MODEL 1
REMARK VINA RESULT:      -8.2      0.000      0.000
REMARK  Name = 
REMARK  6 active torsions:
REMARK  status: ('A' for Active; 'I' for Inactive)
REMARK    1  A    between atoms: C_2  and  C_3
REMARK    2  A    between atoms: C_2  and  N_18
REMARK    3  A    between atoms: C_8  and  O_9
REMARK    4  A    between atoms: O_9  and  C_10
REMARK    5  A    between atoms: C_10  and  C_11
REMARK    6  A    between atoms: C_10  and  C_12
REMARK                            x       y       z     vdW  Elec       q    Type
REMARK                         _______ _______ _______ _____ _____    ______ ____
ROOT
ATOM      1  C   UNL     1       3.091   5.016  18.067  0.00  0.00    +0.000 A 
ATOM      2  C   UNL     1       2.213   5.971  18.633  0.00  0.00    +0.000 A 
ATOM      3  C   UNL     1       2.383   7.332  18.431  0.00  0.00    +0.000 A 
ATOM      4  C   UNL     1       3.464   7.782  17.691  0.00  0.00    +0.000 A 
ATOM      5  C   UNL     1       4.353   6.865  17.142  0.00  0.00    +0.000 A 
ATOM      6  C   UNL     1       4.160   5.474  17.255  0.00  0.00    +0.000 A 
ENDROOT
BRANCH   1   8
ATOM      7  C   UNL     1       2.579   2.807  17.285  0.00  0.00    +0.000 C 
ATOM      8  C   UNL     1       2.747   3.594  18.368  0.00  0.00    +0.000 C 
BRANCH   8   9
ATOM      9  N   UNL     1       2.436   3.174  19.688  0.00  0.00    +0.000 N 
ATOM     10  C   UNL     1       1.183   3.046  20.276  0.00  0.00    +0.000 A 
ATOM     11  C   UNL     1       1.390   2.660  21.581  0.00  0.00    +0.000 A 
ATOM     12  N   UNL     1       2.719   2.542  21.842  0.00  0.00    +0.000 NA
ATOM     13  C   UNL     1       3.316   2.848  20.709  0.00  0.00    +0.000 A 
ENDBRANCH   8   9
ENDBRANCH   1   8
BRANCH   6  14
ATOM     14  O   UNL     1       4.990   4.562  16.638  0.00  0.00    +0.000 OA
BRANCH  14  15
ATOM     15  C   UNL     1       6.266   5.058  16.144  0.00  0.00    +0.000 C 
ATOM     16  C   UNL     1       7.409   4.516  17.007  0.00  0.00    +0.000 C 
BRANCH  15  17
ATOM     17  C   UNL     1       6.489   4.721  14.683  0.00  0.00    +0.000 A 
ATOM     18  C   UNL     1       7.544   5.337  13.982  0.00  0.00    +0.000 A 
ATOM     19  C   UNL     1       7.795   5.021  12.645  0.00  0.00    +0.000 A 
ATOM     20  C   UNL     1       6.997   4.084  11.996  0.00  0.00    +0.000 A 
ATOM     21  C   UNL     1       5.951   3.463  12.677  0.00  0.00    +0.000 A 
ATOM     22  C   UNL     1       5.699   3.777  14.013  0.00  0.00    +0.000 A 
ENDBRANCH  15  17
ENDBRANCH  14  15
ENDBRANCH   6  14
TORSDOF 5
ENDMDL
MODEL 2
REMARK VINA RESULT:      -8.1      0.048      1.031
REMARK  Name = 
REMARK  6 active torsions:
REMARK  status: ('A' for Active; 'I' for Inactive)
REMARK    1  A    between atoms: C_2  and  C_3
REMARK    2  A    between atoms: C_2  and  N_18
REMARK    3  A    between atoms: C_8  and  O_9
REMARK    4  A    between atoms: O_9  and  C_10
REMARK    5  A    between atoms: C_10  and  C_11
REMARK    6  A    between atoms: C_10  and  C_12
REMARK                            x       y       z     vdW  Elec       q    Type
REMARK                         _______ _______ _______ _____ _____    ______ ____
ROOT
ATOM      1  C   UNL     1       3.107   5.043  18.050  0.00  0.00    +0.000 A 
ATOM      2  C   UNL     1       2.238   5.992  18.640  0.00  0.00    +0.000 A 
ATOM      3  C   UNL     1       2.394   7.355  18.435  0.00  0.00    +0.000 A 
ATOM      4  C   UNL     1       3.452   7.812  17.667  0.00  0.00    +0.000 A 
ATOM      5  C   UNL     1       4.331   6.902  17.093  0.00  0.00    +0.000 A 
ATOM      6  C   UNL     1       4.150   5.510  17.211  0.00  0.00    +0.000 A 
ENDROOT
BRANCH   1   8
ATOM      7  C   UNL     1       2.637   2.821  17.281  0.00  0.00    +0.000 C 
ATOM      8  C   UNL     1       2.780   3.619  18.358  0.00  0.00    +0.000 C 
BRANCH   8   9
ATOM      9  N   UNL     1       2.459   3.205  19.679  0.00  0.00    +0.000 N 
ATOM     10  C   UNL     1       1.201   3.059  20.250  0.00  0.00    +0.000 A 
ATOM     11  C   UNL     1       1.397   2.689  21.562  0.00  0.00    +0.000 A 
ATOM     12  N   UNL     1       2.724   2.599  21.842  0.00  0.00    +0.000 NA
ATOM     13  C   UNL     1       3.331   2.906  20.714  0.00  0.00    +0.000 A 
ENDBRANCH   8   9
ENDBRANCH   1   8
BRANCH   6  14
ATOM     14  O   UNL     1       4.970   4.603  16.571  0.00  0.00    +0.000 OA
BRANCH  14  15
ATOM     15  C   UNL     1       6.266   5.088  16.118  0.00  0.00    +0.000 C 
ATOM     16  C   UNL     1       7.373   4.554  17.031  0.00  0.00    +0.000 C 
BRANCH  15  17
ATOM     17  C   UNL     1       6.541   4.731  14.671  0.00  0.00    +0.000 A 
ATOM     18  C   UNL     1       5.725   3.783  14.022  0.00  0.00    +0.000 A 
ATOM     19  C   UNL     1       5.933   3.460  12.680  0.00  0.00    +0.000 A 
ATOM     20  C   UNL     1       6.957   4.081  11.971  0.00  0.00    +0.000 A 
ATOM     21  C   UNL     1       7.772   5.022  12.598  0.00  0.00    +0.000 A 
ATOM     22  C   UNL     1       7.564   5.348  13.939  0.00  0.00    +0.000 A 
ENDBRANCH  15  17
ENDBRANCH  14  15
ENDBRANCH   6  14
TORSDOF 5
ENDMDL
MODEL 3
REMARK VINA RESULT:      -8.0      2.811      6.509
REMARK  Name = 
REMARK  6 active torsions:
REMARK  status: ('A' for Active; 'I' for Inactive)
REMARK    1  A    between atoms: C_2  and  C_3
REMARK    2  A    between atoms: C_2  and  N_18
REMARK    3  A    between atoms: C_8  and  O_9
REMARK    4  A    between atoms: O_9  and  C_10
REMARK    5  A    between atoms: C_10  and  C_11
REMARK    6  A    between atoms: C_10  and  C_12
REMARK                            x       y       z     vdW  Elec       q    Type
REMARK                         _______ _______ _______ _____ _____    ______ ____
ROOT
ATOM      1  C   UNL     1       3.437   3.842  19.217  0.00  0.00    +0.000 A 
ATOM      2  C   UNL     1       3.578   2.785  20.146  0.00  0.00    +0.000 A 
ATOM      3  C   UNL     1       2.732   2.651  21.238  0.00  0.00    +0.000 A 
ATOM      4  C   UNL     1       1.746   3.599  21.457  0.00  0.00    +0.000 A 
ATOM      5  C   UNL     1       1.600   4.659  20.570  0.00  0.00    +0.000 A 
ATOM      6  C   UNL     1       2.385   4.775  19.406  0.00  0.00    +0.000 A 
ENDROOT
BRANCH   1   8
ATOM      7  C   UNL     1       4.102   2.987  17.077  0.00  0.00    +0.000 C 
ATOM      8  C   UNL     1       4.417   3.820  18.090  0.00  0.00    +0.000 C 
BRANCH   8   9
ATOM      9  N   UNL     1       5.669   4.484  18.188  0.00  0.00    +0.000 N 
ATOM     10  C   UNL     1       6.165   5.226  19.253  0.00  0.00    +0.000 A 
ATOM     11  C   UNL     1       7.391   5.716  18.863  0.00  0.00    +0.000 A 
ATOM     12  N   UNL     1       7.687   5.317  17.598  0.00  0.00    +0.000 NA
ATOM     13  C   UNL     1       6.656   4.590  17.221  0.00  0.00    +0.000 A 
ENDBRANCH   8   9
ENDBRANCH   1   8
BRANCH   6  14
ATOM     14  O   UNL     1       2.185   5.777  18.478  0.00  0.00    +0.000 OA
BRANCH  14  15
ATOM     15  C   UNL     1       2.874   7.038  18.709  0.00  0.00    +0.000 C 
ATOM     16  C   UNL     1       3.709   7.411  17.481  0.00  0.00    +0.000 C 
BRANCH  15  17
ATOM     17  C   UNL     1       1.920   8.158  19.071  0.00  0.00    +0.000 A 
ATOM     18  C   UNL     1       1.443   9.018  18.061  0.00  0.00    +0.000 A 
ATOM     19  C   UNL     1       0.536  10.036  18.359  0.00  0.00    +0.000 A 
ATOM     20  C   UNL     1       0.093  10.206  19.667  0.00  0.00    +0.000 A 
ATOM     21  C   UNL     1       0.553   9.362  20.677  0.00  0.00    +0.000 A 
ATOM     22  C   UNL     1       1.458   8.342  20.382  0.00  0.00    +0.000 A 
ENDBRANCH  15  17
ENDBRANCH  14  15
ENDBRANCH   6  14
TORSDOF 5
ENDMDL
MODEL 4
REMARK VINA RESULT:      -8.0      2.808      6.510
REMARK  Name = 
REMARK  6 active torsions:
REMARK  status: ('A' for Active; 'I' for Inactive)
REMARK    1  A    between atoms: C_2  and  C_3
REMARK    2  A    between atoms: C_2  and  N_18
REMARK    3  A    between atoms: C_8  and  O_9
REMARK    4  A    between atoms: O_9  and  C_10
REMARK    5  A    between atoms: C_10  and  C_11
REMARK    6  A    between atoms: C_10  and  C_12
REMARK                            x       y       z     vdW  Elec       q    Type
REMARK                         _______ _______ _______ _____ _____    ______ ____
ROOT
ATOM      1  C   UNL     1       3.455   3.793  19.229  0.00  0.00    +0.000 A 
ATOM      2  C   UNL     1       3.596   2.742  20.166  0.00  0.00    +0.000 A 
ATOM      3  C   UNL     1       2.749   2.615  21.257  0.00  0.00    +0.000 A 
ATOM      4  C   UNL     1       1.761   3.563  21.468  0.00  0.00    +0.000 A 
ATOM      5  C   UNL     1       1.616   4.617  20.574  0.00  0.00    +0.000 A 
ATOM      6  C   UNL     1       2.402   4.727  19.410  0.00  0.00    +0.000 A 
ENDROOT
BRANCH   1   8
ATOM      7  C   UNL     1       4.133   2.913  17.104  0.00  0.00    +0.000 C 
ATOM      8  C   UNL     1       4.436   3.765  18.104  0.00  0.00    +0.000 C 
BRANCH   8   9
ATOM      9  N   UNL     1       5.680   4.445  18.193  0.00  0.00    +0.000 N 
ATOM     10  C   UNL     1       6.173   5.196  19.253  0.00  0.00    +0.000 A 
ATOM     11  C   UNL     1       7.391   5.700  18.854  0.00  0.00    +0.000 A 
ATOM     12  N   UNL     1       7.684   5.301  17.589  0.00  0.00    +0.000 NA
ATOM     13  C   UNL     1       6.660   4.560  17.220  0.00  0.00    +0.000 A 
ENDBRANCH   8   9
ENDBRANCH   1   8
BRANCH   6  14
ATOM     14  O   UNL     1       2.202   5.722  18.476  0.00  0.00    +0.000 OA
BRANCH  14  15
ATOM     15  C   UNL     1       2.893   6.984  18.698  0.00  0.00    +0.000 C 
ATOM     16  C   UNL     1       3.742   7.339  17.474  0.00  0.00    +0.000 C 
BRANCH  15  17
ATOM     17  C   UNL     1       1.938   8.112  19.035  0.00  0.00    +0.000 A 
ATOM     18  C   UNL     1       1.518   8.290  20.368  0.00  0.00    +0.000 A 
ATOM     19  C   UNL     1       0.666   9.342  20.714  0.00  0.00    +0.000 A 
ATOM     20  C   UNL     1       0.227  10.226  19.734  0.00  0.00    +0.000 A 
ATOM     21  C   UNL     1       0.636  10.065  18.411  0.00  0.00    +0.000 A 
ATOM     22  C   UNL     1       1.488   9.016  18.063  0.00  0.00    +0.000 A 
ENDBRANCH  15  17
ENDBRANCH  14  15
ENDBRANCH   6  14
TORSDOF 5
ENDMDL
MODEL 5
REMARK VINA RESULT:      -7.8      2.656      6.430
REMARK  Name = 
REMARK  6 active torsions:
REMARK  status: ('A' for Active; 'I' for Inactive)
REMARK    1  A    between atoms: C_2  and  C_3
REMARK    2  A    between atoms: C_2  and  N_18
REMARK    3  A    between atoms: C_8  and  O_9
REMARK    4  A    between atoms: O_9  and  C_10
REMARK    5  A    between atoms: C_10  and  C_11
REMARK    6  A    between atoms: C_10  and  C_12
REMARK                            x       y       z     vdW  Elec       q    Type
REMARK                         _______ _______ _______ _____ _____    ______ ____
ROOT
ATOM      1  C   UNL     1       3.571   3.764  17.917  0.00  0.00    +0.000 A 
ATOM      2  C   UNL     1       3.595   2.416  18.347  0.00  0.00    +0.000 A 
ATOM      3  C   UNL     1       2.502   1.824  18.962  0.00  0.00    +0.000 A 
ATOM      4  C   UNL     1       1.365   2.577  19.206  0.00  0.00    +0.000 A 
ATOM      5  C   UNL     1       1.324   3.909  18.813  0.00  0.00    +0.000 A 
ATOM      6  C   UNL     1       2.383   4.516  18.108  0.00  0.00    +0.000 A 
ENDROOT
BRANCH   1   8
ATOM      7  C   UNL     1       4.888   3.996  15.927  0.00  0.00    +0.000 C 
ATOM      8  C   UNL     1       4.824   4.232  17.253  0.00  0.00    +0.000 C 
BRANCH   8   9
ATOM      9  N   UNL     1       5.927   4.708  18.011  0.00  0.00    +0.000 N 
ATOM     10  C   UNL     1       7.246   4.859  17.604  0.00  0.00    +0.000 A 
ATOM     11  C   UNL     1       7.955   5.301  18.699  0.00  0.00    +0.000 A 
ATOM     12  N   UNL     1       7.140   5.431  19.778  0.00  0.00    +0.000 NA
ATOM     13  C   UNL     1       5.947   5.077  19.347  0.00  0.00    +0.000 A 
ENDBRANCH   8   9
ENDBRANCH   1   8
BRANCH   6  14
ATOM     14  O   UNL     1       2.311   5.811  17.639  0.00  0.00    +0.000 OA
BRANCH  14  15
ATOM     15  C   UNL     1       3.055   6.823  18.375  0.00  0.00    +0.000 C 
ATOM     16  C   UNL     1       3.938   7.625  17.416  0.00  0.00    +0.000 C 
BRANCH  15  17
ATOM     17  C   UNL     1       2.147   7.742  19.168  0.00  0.00    +0.000 A 
ATOM     18  C   UNL     1       1.633   8.904  18.559  0.00  0.00    +0.000 A 
ATOM     19  C   UNL     1       0.767   9.751  19.253  0.00  0.00    +0.000 A 
ATOM     20  C   UNL     1       0.403   9.447  20.561  0.00  0.00    +0.000 A 
ATOM     21  C   UNL     1       0.902   8.300  21.177  0.00  0.00    +0.000 A 
ATOM     22  C   UNL     1       1.766   7.450  20.485  0.00  0.00    +0.000 A 
ENDBRANCH  15  17
ENDBRANCH  14  15
ENDBRANCH   6  14
TORSDOF 5
ENDMDL
MODEL 6
REMARK VINA RESULT:      -7.7      2.742      6.481
REMARK  Name = 
REMARK  6 active torsions:
REMARK  status: ('A' for Active; 'I' for Inactive)
REMARK    1  A    between atoms: C_2  and  C_3
REMARK    2  A    between atoms: C_2  and  N_18
REMARK    3  A    between atoms: C_8  and  O_9
REMARK    4  A    between atoms: O_9  and  C_10
REMARK    5  A    between atoms: C_10  and  C_11
REMARK    6  A    between atoms: C_10  and  C_12
REMARK                            x       y       z     vdW  Elec       q    Type
REMARK                         _______ _______ _______ _____ _____    ______ ____
ROOT
ATOM      1  C   UNL     1       3.346   3.732  18.415  0.00  0.00    +0.000 A 
ATOM      2  C   UNL     1       3.324   2.469  19.051  0.00  0.00    +0.000 A 
ATOM      3  C   UNL     1       2.251   2.059  19.829  0.00  0.00    +0.000 A 
ATOM      4  C   UNL     1       1.186   2.921  20.030  0.00  0.00    +0.000 A 
ATOM      5  C   UNL     1       1.193   4.176  19.434  0.00  0.00    +0.000 A 
ATOM      6  C   UNL     1       2.225   4.588  18.568  0.00  0.00    +0.000 A 
ENDROOT
BRANCH   1   8
ATOM      7  C   UNL     1       4.536   3.500  16.346  0.00  0.00    +0.000 C 
ATOM      8  C   UNL     1       4.567   4.000  17.598  0.00  0.00    +0.000 C 
BRANCH   8   9
ATOM      9  N   UNL     1       5.732   4.570  18.178  0.00  0.00    +0.000 N 
ATOM     10  C   UNL     1       6.976   4.764  17.589  0.00  0.00    +0.000 A 
ATOM     11  C   UNL     1       7.797   5.298  18.557  0.00  0.00    +0.000 A 
ATOM     12  N   UNL     1       7.126   5.445  19.729  0.00  0.00    +0.000 NA
ATOM     13  C   UNL     1       5.908   5.011  19.480  0.00  0.00    +0.000 A 
ENDBRANCH   8   9
ENDBRANCH   1   8
BRANCH   6  14
ATOM     14  O   UNL     1       2.193   5.798  17.905  0.00  0.00    +0.000 OA
BRANCH  14  15
ATOM     15  C   UNL     1       2.919   6.904  18.513  0.00  0.00    +0.000 C 
ATOM     16  C   UNL     1       3.820   7.574  17.472  0.00  0.00    +0.000 C 
BRANCH  15  17
ATOM     17  C   UNL     1       1.992   7.917  19.155  0.00  0.00    +0.000 A 
ATOM     18  C   UNL     1       1.672   7.796  20.522  0.00  0.00    +0.000 A 
ATOM     19  C   UNL     1       0.849   8.734  21.149  0.00  0.00    +0.000 A 
ATOM     20  C   UNL     1       0.341   9.804  20.419  0.00  0.00    +0.000 A 
ATOM     21  C   UNL     1       0.651   9.939  19.067  0.00  0.00    +0.000 A 
ATOM     22  C   UNL     1       1.474   9.004  18.438  0.00  0.00    +0.000 A 
ENDBRANCH  15  17
ENDBRANCH  14  15
ENDBRANCH   6  14
TORSDOF 5
ENDMDL
MODEL 7
REMARK VINA RESULT:      -7.7      1.178      1.386
REMARK  Name = 
REMARK  6 active torsions:
REMARK  status: ('A' for Active; 'I' for Inactive)
REMARK    1  A    between atoms: C_2  and  C_3
REMARK    2  A    between atoms: C_2  and  N_18
REMARK    3  A    between atoms: C_8  and  O_9
REMARK    4  A    between atoms: O_9  and  C_10
REMARK    5  A    between atoms: C_10  and  C_11
REMARK    6  A    between atoms: C_10  and  C_12
REMARK                            x       y       z     vdW  Elec       q    Type
REMARK                         _______ _______ _______ _____ _____    ______ ____
ROOT
ATOM      1  C   UNL     1       3.027   5.207  17.908  0.00  0.00    +0.000 A 
ATOM      2  C   UNL     1       2.174   6.206  18.433  0.00  0.00    +0.000 A 
ATOM      3  C   UNL     1       2.436   7.557  18.261  0.00  0.00    +0.000 A 
ATOM      4  C   UNL     1       3.584   7.950  17.594  0.00  0.00    +0.000 A 
ATOM      5  C   UNL     1       4.450   6.988  17.087  0.00  0.00    +0.000 A 
ATOM      6  C   UNL     1       4.169   5.610  17.168  0.00  0.00    +0.000 A 
ENDROOT
BRANCH   1   8
ATOM      7  C   UNL     1       1.279   3.565  17.919  0.00  0.00    +0.000 C 
ATOM      8  C   UNL     1       2.583   3.805  18.166  0.00  0.00    +0.000 C 
BRANCH   8   9
ATOM      9  N   UNL     1       3.437   2.866  18.805  0.00  0.00    +0.000 N 
ATOM     10  C   UNL     1       3.581   1.512  18.529  0.00  0.00    +0.000 A 
ATOM     11  C   UNL     1       4.482   1.011  19.442  0.00  0.00    +0.000 A 
ATOM     12  N   UNL     1       4.908   1.990  20.282  0.00  0.00    +0.000 NA
ATOM     13  C   UNL     1       4.278   3.077  19.885  0.00  0.00    +0.000 A 
ENDBRANCH   8   9
ENDBRANCH   1   8
BRANCH   6  14
ATOM     14  O   UNL     1       4.981   4.656  16.589  0.00  0.00    +0.000 OA
BRANCH  14  15
ATOM     15  C   UNL     1       6.279   5.100  16.105  0.00  0.00    +0.000 C 
ATOM     16  C   UNL     1       7.393   4.513  16.977  0.00  0.00    +0.000 C 
BRANCH  15  17
ATOM     17  C   UNL     1       6.499   4.753  14.646  0.00  0.00    +0.000 A 
ATOM     18  C   UNL     1       7.540   5.380  13.932  0.00  0.00    +0.000 A 
ATOM     19  C   UNL     1       7.788   5.055  12.597  0.00  0.00    +0.000 A 
ATOM     20  C   UNL     1       7.002   4.099  11.962  0.00  0.00    +0.000 A 
ATOM     21  C   UNL     1       5.971   3.468  12.655  0.00  0.00    +0.000 A 
ATOM     22  C   UNL     1       5.721   3.789  13.989  0.00  0.00    +0.000 A 
ENDBRANCH  15  17
ENDBRANCH  14  15
ENDBRANCH   6  14
TORSDOF 5
ENDMDL
MODEL 8
REMARK VINA RESULT:      -7.4      2.362      3.564
REMARK  Name = 
REMARK  6 active torsions:
REMARK  status: ('A' for Active; 'I' for Inactive)
REMARK    1  A    between atoms: C_2  and  C_3
REMARK    2  A    between atoms: C_2  and  N_18
REMARK    3  A    between atoms: C_8  and  O_9
REMARK    4  A    between atoms: O_9  and  C_10
REMARK    5  A    between atoms: C_10  and  C_11
REMARK    6  A    between atoms: C_10  and  C_12
REMARK                            x       y       z     vdW  Elec       q    Type
REMARK                         _______ _______ _______ _____ _____    ______ ____
ROOT
ATOM      1  C   UNL     1       2.150   4.825  19.291  0.00  0.00    +0.000 A 
ATOM      2  C   UNL     1       1.454   5.245  20.448  0.00  0.00    +0.000 A 
ATOM      3  C   UNL     1       1.382   6.581  20.815  0.00  0.00    +0.000 A 
ATOM      4  C   UNL     1       2.042   7.533  20.056  0.00  0.00    +0.000 A 
ATOM      5  C   UNL     1       2.750   7.144  18.926  0.00  0.00    +0.000 A 
ATOM      6  C   UNL     1       2.771   5.808  18.478  0.00  0.00    +0.000 A 
ENDROOT
BRANCH   1   8
ATOM      7  C   UNL     1       0.898   2.874  18.675  0.00  0.00    +0.000 C 
ATOM      8  C   UNL     1       2.106   3.354  19.034  0.00  0.00    +0.000 C 
BRANCH   8   9
ATOM      9  N   UNL     1       3.214   2.519  19.337  0.00  0.00    +0.000 N 
ATOM     10  C   UNL     1       3.640   1.381  18.664  0.00  0.00    +0.000 A 
ATOM     11  C   UNL     1       4.720   0.885  19.360  0.00  0.00    +0.000 A 
ATOM     12  N   UNL     1       4.990   1.660  20.443  0.00  0.00    +0.000 NA
ATOM     13  C   UNL     1       4.089   2.620  20.407  0.00  0.00    +0.000 A 
ENDBRANCH   8   9
ENDBRANCH   1   8
BRANCH   6  14
ATOM     14  O   UNL     1       3.399   5.431  17.309  0.00  0.00    +0.000 OA
BRANCH  14  15
ATOM     15  C   UNL     1       4.653   4.704  17.438  0.00  0.00    +0.000 C 
ATOM     16  C   UNL     1       4.927   3.902  16.162  0.00  0.00    +0.000 C 
BRANCH  15  17
ATOM     17  C   UNL     1       5.819   5.618  17.760  0.00  0.00    +0.000 A 
ATOM     18  C   UNL     1       6.737   5.245  18.761  0.00  0.00    +0.000 A 
ATOM     19  C   UNL     1       7.840   6.050  19.055  0.00  0.00    +0.000 A 
ATOM     20  C   UNL     1       8.038   7.233  18.351  0.00  0.00    +0.000 A 
ATOM     21  C   UNL     1       7.140   7.614  17.355  0.00  0.00    +0.000 A 
ATOM     22  C   UNL     1       6.039   6.811  17.058  0.00  0.00    +0.000 A 
ENDBRANCH  15  17
ENDBRANCH  14  15
ENDBRANCH   6  14
TORSDOF 5
ENDMDL
MODEL 9
REMARK VINA RESULT:      -7.4      2.235      5.255
REMARK  Name = 
REMARK  6 active torsions:
REMARK  status: ('A' for Active; 'I' for Inactive)
REMARK    1  A    between atoms: C_2  and  C_3
REMARK    2  A    between atoms: C_2  and  N_18
REMARK    3  A    between atoms: C_8  and  O_9
REMARK    4  A    between atoms: O_9  and  C_10
REMARK    5  A    between atoms: C_10  and  C_11
REMARK    6  A    between atoms: C_10  and  C_12
REMARK                            x       y       z     vdW  Elec       q    Type
REMARK                         _______ _______ _______ _____ _____    ______ ____
ROOT
ATOM      1  C   UNL     1       5.922   5.129  17.407  0.00  0.00    +0.000 A 
ATOM      2  C   UNL     1       7.247   4.870  17.831  0.00  0.00    +0.000 A 
ATOM      3  C   UNL     1       8.101   5.889  18.225  0.00  0.00    +0.000 A 
ATOM      4  C   UNL     1       7.669   7.204  18.164  0.00  0.00    +0.000 A 
ATOM      5  C   UNL     1       6.379   7.486  17.731  0.00  0.00    +0.000 A 
ATOM      6  C   UNL     1       5.459   6.469  17.408  0.00  0.00    +0.000 A 
ENDROOT
BRANCH   1   8
ATOM      7  C   UNL     1       4.823   3.808  15.733  0.00  0.00    +0.000 C 
ATOM      8  C   UNL     1       5.134   3.914  17.041  0.00  0.00    +0.000 C 
BRANCH   8   9
ATOM      9  N   UNL     1       4.600   3.054  18.038  0.00  0.00    +0.000 N 
ATOM     10  C   UNL     1       3.837   1.906  17.861  0.00  0.00    +0.000 A 
ATOM     11  C   UNL     1       3.511   1.445  19.117  0.00  0.00    +0.000 A 
ATOM     12  N   UNL     1       4.032   2.254  20.076  0.00  0.00    +0.000 NA
ATOM     13  C   UNL     1       4.673   3.196  19.415  0.00  0.00    +0.000 A 
ENDBRANCH   8   9
ENDBRANCH   1   8
BRANCH   6  14
ATOM     14  O   UNL     1       4.151   6.741  17.062  0.00  0.00    +0.000 OA
BRANCH  14  15
ATOM     15  C   UNL     1       3.259   7.164  18.132  0.00  0.00    +0.000 C 
ATOM     16  C   UNL     1       2.330   8.274  17.633  0.00  0.00    +0.000 C 
BRANCH  15  17
ATOM     17  C   UNL     1       2.460   6.010  18.705  0.00  0.00    +0.000 A 
ATOM     18  C   UNL     1       2.285   5.910  20.099  0.00  0.00    +0.000 A 
ATOM     19  C   UNL     1       1.525   4.878  20.653  0.00  0.00    +0.000 A 
ATOM     20  C   UNL     1       0.928   3.937  19.820  0.00  0.00    +0.000 A 
ATOM     21  C   UNL     1       1.089   4.023  18.438  0.00  0.00    +0.000 A 
ATOM     22  C   UNL     1       1.847   5.055  17.882  0.00  0.00    +0.000 A 
ENDBRANCH  15  17
ENDBRANCH  14  15
ENDBRANCH   6  14
TORSDOF 5
ENDMDL
