MODEL 1
REMARK VINA RESULT:      -6.8      0.000      0.000
REMARK  Name = 
REMARK  3 active torsions:
REMARK  status: ('A' for Active; 'I' for Inactive)
REMARK    1  A    between atoms: C_2  and  C_3
REMARK    2  A    between atoms: C_3  and  O_4
REMARK    3  A    between atoms: O_4  and  C_5
REMARK                            x       y       z     vdW  Elec       q    Type
REMARK                         _______ _______ _______ _____ _____    ______ ____
ROOT
ATOM      1  C   UNL     1       4.008   3.904  16.922  0.00  0.00    +0.000 C 
ENDROOT
BRANCH   1   3
ATOM      2  O   UNL     1       3.648   1.713  17.830  0.00  0.00    +0.000 OA
ATOM      3  C   UNL     1       3.739   2.922  18.060  0.00  0.00    +0.000 C 
ATOM      4  N   UNL     1       3.658   3.430  19.346  0.00  0.00    +0.000 N 
ATOM      5  C   UNL     1       3.583   2.520  20.489  0.00  0.00    +0.000 C 
ATOM      6  C   UNL     1       2.308   2.773  21.295  0.00  0.00    +0.000 C 
ATOM      7  O   UNL     1       2.212   4.155  21.684  0.00  0.00    +0.000 OA
ATOM      8  C   UNL     1       2.191   5.006  20.528  0.00  0.00    +0.000 C 
ATOM      9  C   UNL     1       3.468   4.841  19.697  0.00  0.00    +0.000 C 
ENDBRANCH   1   3
BRANCH   1  10
ATOM     10  O   UNL     1       5.381   3.933  16.557  0.00  0.00    +0.000 OA
BRANCH  10  11
ATOM     11  C   UNL     1       6.105   4.984  17.059  0.00  0.00    +0.000 A 
ATOM     12  C   UNL     1       7.012   4.646  18.072  0.00  0.00    +0.000 A 
ATOM     13  C   UNL     1       7.827   5.623  18.656  0.00  0.00    +0.000 A 
ATOM     14  C   UNL     1       7.741   6.946  18.232  0.00  0.00    +0.000 A 
ATOM     15  C   UNL     1       6.840   7.299  17.234  0.00  0.00    +0.000 A 
ATOM     16  C   UNL     1       6.032   6.323  16.660  0.00  0.00    +0.000 A 
ATOM     17  F   UNL     1       5.188   6.725  15.697  0.00  0.00    +0.000 F 
ENDBRANCH  10  11
ENDBRANCH   1  10
TORSDOF 3
ENDMDL
MODEL 2
REMARK VINA RESULT:      -6.7      3.024      4.107
REMARK  Name = 
REMARK  3 active torsions:
REMARK  status: ('A' for Active; 'I' for Inactive)
REMARK    1  A    between atoms: C_2  and  C_3
REMARK    2  A    between atoms: C_3  and  O_4
REMARK    3  A    between atoms: O_4  and  C_5
REMARK                            x       y       z     vdW  Elec       q    Type
REMARK                         _______ _______ _______ _____ _____    ______ ____
ROOT
ATOM      1  C   UNL     1       6.454   5.841  16.411  0.00  0.00    +0.000 C 
ENDROOT
BRANCH   1   3
ATOM      2  O   UNL     1       7.359   4.494  18.179  0.00  0.00    +0.000 OA
ATOM      3  C   UNL     1       6.343   4.933  17.635  0.00  0.00    +0.000 C 
ATOM      4  N   UNL     1       5.076   4.674  18.133  0.00  0.00    +0.000 N 
ATOM      5  C   UNL     1       4.921   3.963  19.403  0.00  0.00    +0.000 C 
ATOM      6  C   UNL     1       4.105   2.685  19.208  0.00  0.00    +0.000 C 
ATOM      7  O   UNL     1       2.842   2.973  18.580  0.00  0.00    +0.000 OA
ATOM      8  C   UNL     1       3.043   3.580  17.294  0.00  0.00    +0.000 C 
ATOM      9  C   UNL     1       3.815   4.899  17.420  0.00  0.00    +0.000 C 
ENDBRANCH   1   3
BRANCH   1  10
ATOM     10  O   UNL     1       7.526   5.457  15.561  0.00  0.00    +0.000 OA
BRANCH  10  11
ATOM     11  C   UNL     1       7.160   4.902  14.361  0.00  0.00    +0.000 A 
ATOM     12  C   UNL     1       6.025   4.083  14.412  0.00  0.00    +0.000 A 
ATOM     13  C   UNL     1       5.534   3.471  13.252  0.00  0.00    +0.000 A 
ATOM     14  C   UNL     1       6.175   3.672  12.034  0.00  0.00    +0.000 A 
ATOM     15  C   UNL     1       7.307   4.476  11.968  0.00  0.00    +0.000 A 
ATOM     16  C   UNL     1       7.791   5.079  13.125  0.00  0.00    +0.000 A 
ATOM     17  F   UNL     1       8.883   5.848  12.996  0.00  0.00    +0.000 F 
ENDBRANCH  10  11
ENDBRANCH   1  10
TORSDOF 3
ENDMDL
MODEL 3
REMARK VINA RESULT:      -6.6      2.100      5.284
REMARK  Name = 
REMARK  3 active torsions:
REMARK  status: ('A' for Active; 'I' for Inactive)
REMARK    1  A    between atoms: C_2  and  C_3
REMARK    2  A    between atoms: C_3  and  O_4
REMARK    3  A    between atoms: O_4  and  C_5
REMARK                            x       y       z     vdW  Elec       q    Type
REMARK                         _______ _______ _______ _____ _____    ______ ____
ROOT
ATOM      1  C   UNL     1       4.460   3.603  17.096  0.00  0.00    +0.000 C 
ENDROOT
BRANCH   1   3
ATOM      2  O   UNL     1       5.028   5.218  15.415  0.00  0.00    +0.000 OA
ATOM      3  C   UNL     1       5.100   4.901  16.605  0.00  0.00    +0.000 C 
ATOM      4  N   UNL     1       5.704   5.719  17.545  0.00  0.00    +0.000 N 
ATOM      5  C   UNL     1       6.171   7.052  17.162  0.00  0.00    +0.000 C 
ATOM      6  C   UNL     1       7.671   7.192  17.425  0.00  0.00    +0.000 C 
ATOM      7  O   UNL     1       7.985   6.870  18.792  0.00  0.00    +0.000 OA
ATOM      8  C   UNL     1       7.599   5.520  19.096  0.00  0.00    +0.000 C 
ATOM      9  C   UNL     1       6.091   5.321  18.902  0.00  0.00    +0.000 C 
ENDBRANCH   1   3
BRANCH   1  10
ATOM     10  O   UNL     1       3.041   3.672  17.084  0.00  0.00    +0.000 OA
BRANCH  10  11
ATOM     11  C   UNL     1       2.443   3.785  18.312  0.00  0.00    +0.000 A 
ATOM     12  C   UNL     1       2.022   2.575  18.878  0.00  0.00    +0.000 A 
ATOM     13  C   UNL     1       1.414   2.549  20.139  0.00  0.00    +0.000 A 
ATOM     14  C   UNL     1       1.222   3.733  20.844  0.00  0.00    +0.000 A 
ATOM     15  C   UNL     1       1.628   4.944  20.293  0.00  0.00    +0.000 A 
ATOM     16  C   UNL     1       2.228   4.962  19.038  0.00  0.00    +0.000 A 
ATOM     17  F   UNL     1       2.603   6.160  18.564  0.00  0.00    +0.000 F 
ENDBRANCH  10  11
ENDBRANCH   1  10
TORSDOF 3
ENDMDL
MODEL 4
REMARK VINA RESULT:      -6.6      2.426      5.819
REMARK  Name = 
REMARK  3 active torsions:
REMARK  status: ('A' for Active; 'I' for Inactive)
REMARK    1  A    between atoms: C_2  and  C_3
REMARK    2  A    between atoms: C_3  and  O_4
REMARK    3  A    between atoms: O_4  and  C_5
REMARK                            x       y       z     vdW  Elec       q    Type
REMARK                         _______ _______ _______ _____ _____    ______ ____
ROOT
ATOM      1  C   UNL     1       3.371   3.563  17.087  0.00  0.00    +0.000 C 
ENDROOT
BRANCH   1   3
ATOM      2  O   UNL     1       3.575   5.561  18.400  0.00  0.00    +0.000 OA
ATOM      3  C   UNL     1       4.141   4.750  17.662  0.00  0.00    +0.000 C 
ATOM      4  N   UNL     1       5.492   4.846  17.369  0.00  0.00    +0.000 N 
ATOM      5  C   UNL     1       6.315   5.856  18.036  0.00  0.00    +0.000 C 
ATOM      6  C   UNL     1       6.965   6.783  17.009  0.00  0.00    +0.000 C 
ATOM      7  O   UNL     1       7.703   6.029  16.030  0.00  0.00    +0.000 OA
ATOM      8  C   UNL     1       6.838   5.120  15.333  0.00  0.00    +0.000 C 
ATOM      9  C   UNL     1       6.188   4.124  16.300  0.00  0.00    +0.000 C 
ENDBRANCH   1   3
BRANCH   1  10
ATOM     10  O   UNL     1       3.419   2.432  17.946  0.00  0.00    +0.000 OA
BRANCH  10  11
ATOM     11  C   UNL     1       2.803   2.585  19.161  0.00  0.00    +0.000 A 
ATOM     12  C   UNL     1       1.439   2.898  19.096  0.00  0.00    +0.000 A 
ATOM     13  C   UNL     1       0.687   3.061  20.265  0.00  0.00    +0.000 A 
ATOM     14  C   UNL     1       1.293   2.914  21.509  0.00  0.00    +0.000 A 
ATOM     15  C   UNL     1       2.648   2.611  21.591  0.00  0.00    +0.000 A 
ATOM     16  C   UNL     1       3.389   2.453  20.425  0.00  0.00    +0.000 A 
ATOM     17  F   UNL     1       4.690   2.155  20.570  0.00  0.00    +0.000 F 
ENDBRANCH  10  11
ENDBRANCH   1  10
TORSDOF 3
ENDMDL
MODEL 5
REMARK VINA RESULT:      -6.6      1.939      2.257
REMARK  Name = 
REMARK  3 active torsions:
REMARK  status: ('A' for Active; 'I' for Inactive)
REMARK    1  A    between atoms: C_2  and  C_3
REMARK    2  A    between atoms: C_3  and  O_4
REMARK    3  A    between atoms: O_4  and  C_5
REMARK                            x       y       z     vdW  Elec       q    Type
REMARK                         _______ _______ _______ _____ _____    ______ ____
ROOT
ATOM      1  C   UNL     1       3.374   3.452  16.875  0.00  0.00    +0.000 C 
ENDROOT
BRANCH   1   3
ATOM      2  O   UNL     1       1.172   4.194  17.474  0.00  0.00    +0.000 OA
ATOM      3  C   UNL     1       2.156   3.523  17.795  0.00  0.00    +0.000 C 
ATOM      4  N   UNL     1       2.182   2.771  18.959  0.00  0.00    +0.000 N 
ATOM      5  C   UNL     1       0.979   2.660  19.784  0.00  0.00    +0.000 C 
ATOM      6  C   UNL     1       1.248   3.173  21.199  0.00  0.00    +0.000 C 
ATOM      7  O   UNL     1       2.380   2.502  21.782  0.00  0.00    +0.000 OA
ATOM      8  C   UNL     1       3.560   2.720  20.992  0.00  0.00    +0.000 C 
ATOM      9  C   UNL     1       3.378   2.181  19.568  0.00  0.00    +0.000 C 
ENDBRANCH   1   3
BRANCH   1  10
ATOM     10  O   UNL     1       4.011   4.715  16.737  0.00  0.00    +0.000 OA
BRANCH  10  11
ATOM     11  C   UNL     1       5.184   4.865  17.432  0.00  0.00    +0.000 A 
ATOM     12  C   UNL     1       6.339   4.516  16.720  0.00  0.00    +0.000 A 
ATOM     13  C   UNL     1       7.604   4.642  17.308  0.00  0.00    +0.000 A 
ATOM     14  C   UNL     1       7.723   5.115  18.611  0.00  0.00    +0.000 A 
ATOM     15  C   UNL     1       6.585   5.458  19.333  0.00  0.00    +0.000 A 
ATOM     16  C   UNL     1       5.331   5.328  18.744  0.00  0.00    +0.000 A 
ATOM     17  F   UNL     1       4.273   5.681  19.489  0.00  0.00    +0.000 F 
ENDBRANCH  10  11
ENDBRANCH   1  10
TORSDOF 3
ENDMDL
MODEL 6
REMARK VINA RESULT:      -6.6      2.455      5.534
REMARK  Name = 
REMARK  3 active torsions:
REMARK  status: ('A' for Active; 'I' for Inactive)
REMARK    1  A    between atoms: C_2  and  C_3
REMARK    2  A    between atoms: C_3  and  O_4
REMARK    3  A    between atoms: O_4  and  C_5
REMARK                            x       y       z     vdW  Elec       q    Type
REMARK                         _______ _______ _______ _____ _____    ______ ____
ROOT
ATOM      1  C   UNL     1       4.532   3.682  17.074  0.00  0.00    +0.000 C 
ENDROOT
BRANCH   1   3
ATOM      2  O   UNL     1       5.050   5.359  15.438  0.00  0.00    +0.000 OA
ATOM      3  C   UNL     1       5.148   5.002  16.615  0.00  0.00    +0.000 C 
ATOM      4  N   UNL     1       5.763   5.795  17.570  0.00  0.00    +0.000 N 
ATOM      5  C   UNL     1       6.209   7.145  17.224  0.00  0.00    +0.000 C 
ATOM      6  C   UNL     1       7.713   7.291  17.461  0.00  0.00    +0.000 C 
ATOM      7  O   UNL     1       8.058   6.926  18.810  0.00  0.00    +0.000 OA
ATOM      8  C   UNL     1       7.691   5.564  19.075  0.00  0.00    +0.000 C 
ATOM      9  C   UNL     1       6.182   5.355  18.904  0.00  0.00    +0.000 C 
ENDBRANCH   1   3
BRANCH   1  10
ATOM     10  O   UNL     1       3.114   3.753  17.141  0.00  0.00    +0.000 OA
BRANCH  10  11
ATOM     11  C   UNL     1       2.575   3.643  18.398  0.00  0.00    +0.000 A 
ATOM     12  C   UNL     1       2.153   4.852  18.965  0.00  0.00    +0.000 A 
ATOM     13  C   UNL     1       1.566   4.877  20.237  0.00  0.00    +0.000 A 
ATOM     14  C   UNL     1       1.399   3.694  20.950  0.00  0.00    +0.000 A 
ATOM     15  C   UNL     1       1.820   2.487  20.403  0.00  0.00    +0.000 A 
ATOM     16  C   UNL     1       2.404   2.470  19.141  0.00  0.00    +0.000 A 
ATOM     17  F   UNL     1       2.784   1.274  18.666  0.00  0.00    +0.000 F 
ENDBRANCH  10  11
ENDBRANCH   1  10
TORSDOF 3
ENDMDL
MODEL 7
REMARK VINA RESULT:      -6.6      2.347      5.402
REMARK  Name = 
REMARK  3 active torsions:
REMARK  status: ('A' for Active; 'I' for Inactive)
REMARK    1  A    between atoms: C_2  and  C_3
REMARK    2  A    between atoms: C_3  and  O_4
REMARK    3  A    between atoms: O_4  and  C_5
REMARK                            x       y       z     vdW  Elec       q    Type
REMARK                         _______ _______ _______ _____ _____    ______ ____
ROOT
ATOM      1  C   UNL     1       4.268   3.938  17.058  0.00  0.00    +0.000 C 
ENDROOT
BRANCH   1   3
ATOM      2  O   UNL     1       5.494   3.463  19.064  0.00  0.00    +0.000 OA
ATOM      3  C   UNL     1       5.447   4.107  18.014  0.00  0.00    +0.000 C 
ATOM      4  N   UNL     1       6.471   4.959  17.631  0.00  0.00    +0.000 N 
ATOM      5  C   UNL     1       7.703   5.022  18.418  0.00  0.00    +0.000 C 
ATOM      6  C   UNL     1       7.946   6.444  18.923  0.00  0.00    +0.000 C 
ATOM      7  O   UNL     1       7.940   7.385  17.834  0.00  0.00    +0.000 OA
ATOM      8  C   UNL     1       6.678   7.359  17.150  0.00  0.00    +0.000 C 
ATOM      9  C   UNL     1       6.391   5.969  16.572  0.00  0.00    +0.000 C 
ENDBRANCH   1   3
BRANCH   1  10
ATOM     10  O   UNL     1       3.194   4.811  17.379  0.00  0.00    +0.000 OA
BRANCH  10  11
ATOM     11  C   UNL     1       2.374   4.392  18.396  0.00  0.00    +0.000 A 
ATOM     12  C   UNL     1       1.707   3.184  18.157  0.00  0.00    +0.000 A 
ATOM     13  C   UNL     1       0.856   2.635  19.123  0.00  0.00    +0.000 A 
ATOM     14  C   UNL     1       0.664   3.291  20.335  0.00  0.00    +0.000 A 
ATOM     15  C   UNL     1       1.312   4.495  20.585  0.00  0.00    +0.000 A 
ATOM     16  C   UNL     1       2.155   5.036  19.619  0.00  0.00    +0.000 A 
ATOM     17  F   UNL     1       2.757   6.197  19.921  0.00  0.00    +0.000 F 
ENDBRANCH  10  11
ENDBRANCH   1  10
TORSDOF 3
ENDMDL
MODEL 8
REMARK VINA RESULT:      -6.5      2.193      5.366
REMARK  Name = 
REMARK  3 active torsions:
REMARK  status: ('A' for Active; 'I' for Inactive)
REMARK    1  A    between atoms: C_2  and  C_3
REMARK    2  A    between atoms: C_3  and  O_4
REMARK    3  A    between atoms: O_4  and  C_5
REMARK                            x       y       z     vdW  Elec       q    Type
REMARK                         _______ _______ _______ _____ _____    ______ ____
ROOT
ATOM      1  C   UNL     1       4.831   3.264  17.581  0.00  0.00    +0.000 C 
ENDROOT
BRANCH   1   3
ATOM      2  O   UNL     1       5.022   4.770  15.723  0.00  0.00    +0.000 OA
ATOM      3  C   UNL     1       5.242   4.580  16.921  0.00  0.00    +0.000 C 
ATOM      4  N   UNL     1       5.812   5.554  17.725  0.00  0.00    +0.000 N 
ATOM      5  C   UNL     1       6.059   6.892  17.187  0.00  0.00    +0.000 C 
ATOM      6  C   UNL     1       7.544   7.245  17.284  0.00  0.00    +0.000 C 
ATOM      7  O   UNL     1       8.021   7.097  18.633  0.00  0.00    +0.000 OA
ATOM      8  C   UNL     1       7.849   5.745  19.085  0.00  0.00    +0.000 C 
ATOM      9  C   UNL     1       6.371   5.339  19.063  0.00  0.00    +0.000 C 
ENDBRANCH   1   3
BRANCH   1  10
ATOM     10  O   UNL     1       3.434   3.028  17.470  0.00  0.00    +0.000 OA
BRANCH  10  11
ATOM     11  C   UNL     1       2.715   3.172  18.629  0.00  0.00    +0.000 A 
ATOM     12  C   UNL     1       3.302   2.595  19.763  0.00  0.00    +0.000 A 
ATOM     13  C   UNL     1       2.681   2.688  21.014  0.00  0.00    +0.000 A 
ATOM     14  C   UNL     1       1.468   3.358  21.141  0.00  0.00    +0.000 A 
ATOM     15  C   UNL     1       0.869   3.929  20.024  0.00  0.00    +0.000 A 
ATOM     16  C   UNL     1       1.491   3.831  18.784  0.00  0.00    +0.000 A 
ATOM     17  F   UNL     1       0.866   4.408  17.746  0.00  0.00    +0.000 F 
ENDBRANCH  10  11
ENDBRANCH   1  10
TORSDOF 3
ENDMDL
MODEL 9
REMARK VINA RESULT:      -6.4      2.483      5.660
REMARK  Name = 
REMARK  3 active torsions:
REMARK  status: ('A' for Active; 'I' for Inactive)
REMARK    1  A    between atoms: C_2  and  C_3
REMARK    2  A    between atoms: C_3  and  O_4
REMARK    3  A    between atoms: O_4  and  C_5
REMARK                            x       y       z     vdW  Elec       q    Type
REMARK                         _______ _______ _______ _____ _____    ______ ____
ROOT
ATOM      1  C   UNL     1       3.159   3.563  16.972  0.00  0.00    +0.000 C 
ENDROOT
BRANCH   1   3
ATOM      2  O   UNL     1       3.182   5.662  18.134  0.00  0.00    +0.000 OA
ATOM      3  C   UNL     1       3.841   4.811  17.531  0.00  0.00    +0.000 C 
ATOM      4  N   UNL     1       5.214   4.916  17.384  0.00  0.00    +0.000 N 
ATOM      5  C   UNL     1       5.940   5.996  18.055  0.00  0.00    +0.000 C 
ATOM      6  C   UNL     1       6.688   6.855  17.035  0.00  0.00    +0.000 C 
ATOM      7  O   UNL     1       7.544   6.045  16.209  0.00  0.00    +0.000 OA
ATOM      8  C   UNL     1       6.777   5.063  15.495  0.00  0.00    +0.000 C 
ATOM      9  C   UNL     1       6.038   4.130  16.461  0.00  0.00    +0.000 C 
ENDBRANCH   1   3
BRANCH   1  10
ATOM     10  O   UNL     1       3.291   2.449  17.844  0.00  0.00    +0.000 OA
BRANCH  10  11
ATOM     11  C   UNL     1       2.662   2.569  19.056  0.00  0.00    +0.000 A 
ATOM     12  C   UNL     1       3.514   2.548  20.168  0.00  0.00    +0.000 A 
ATOM     13  C   UNL     1       3.001   2.682  21.464  0.00  0.00    +0.000 A 
ATOM     14  C   UNL     1       1.632   2.836  21.658  0.00  0.00    +0.000 A 
ATOM     15  C   UNL     1       0.772   2.850  20.565  0.00  0.00    +0.000 A 
ATOM     16  C   UNL     1       1.289   2.714  19.281  0.00  0.00    +0.000 A 
ATOM     17  F   UNL     1       0.409   2.742  18.268  0.00  0.00    +0.000 F 
ENDBRANCH  10  11
ENDBRANCH   1  10
TORSDOF 3
ENDMDL
