MODEL 1
REMARK VINA RESULT:      -7.0      0.000      0.000
REMARK  Name = 
REMARK  9 active torsions:
REMARK  status: ('A' for Active; 'I' for Inactive)
REMARK    1  A    between atoms: S_2  and  N_4
REMARK    2  A    between atoms: S_2  and  C_11
REMARK    3  A    between atoms: N_4  and  C_5
REMARK    4  A    between atoms: C_5  and  C_6
REMARK    5  A    between atoms: C_6  and  C_7
REMARK    6  A    between atoms: C_7  and  C_8
REMARK    7  A    between atoms: C_8  and  C_9
REMARK    8  A    between atoms: C_9  and  O_10
REMARK    9  A    between atoms: C_14  and  C_15
REMARK                            x       y       z     vdW  Elec       q    Type
REMARK                         _______ _______ _______ _____ _____    ______ ____
ROOT
ATOM      1  C   UNL     1       3.832   5.804  18.569  0.00  0.00    +0.000 A 
ATOM      2  C   UNL     1       3.706   6.826  17.630  0.00  0.00    +0.000 A 
ATOM      3  C   UNL     1       2.834   7.894  17.883  0.00  0.00    +0.000 A 
ATOM      4  C   UNL     1       2.087   7.976  19.075  0.00  0.00    +0.000 A 
ATOM      5  C   UNL     1       2.236   6.917  19.996  0.00  0.00    +0.000 A 
ATOM      6  C   UNL     1       3.088   5.836  19.746  0.00  0.00    +0.000 A 
ENDROOT
BRANCH   4   7
ATOM      7  C   UNL     1       1.183   9.122  19.358  0.00  0.00    +0.000 A 
ATOM      8  C   UNL     1       0.514   9.798  18.316  0.00  0.00    +0.000 A 
ATOM      9  C   UNL     1      -0.363  10.858  18.575  0.00  0.00    +0.000 A 
ATOM     10  C   UNL     1      -0.571  11.274  19.882  0.00  0.00    +0.000 A 
ATOM     11  F   UNL     1      -1.408  12.290  20.127  0.00  0.00    +0.000 F 
ATOM     12  C   UNL     1       0.075  10.649  20.933  0.00  0.00    +0.000 A 
ATOM     13  C   UNL     1       0.934   9.583  20.667  0.00  0.00    +0.000 A 
ATOM     14  F   UNL     1       1.511   8.988  21.723  0.00  0.00    +0.000 F 
ENDBRANCH   4   7
BRANCH   1  16
ATOM     15  O   UNL     1       5.739   4.215  19.427  0.00  0.00    +0.000 OA
ATOM     16  S   UNL     1       4.910   4.432  18.261  0.00  0.00    +0.000 S 
ATOM     17  O   UNL     1       5.479   4.616  16.944  0.00  0.00    +0.000 OA
BRANCH  16  18
ATOM     18  N   UNL     1       3.835   3.134  18.133  0.00  0.00    +0.000 NA
ATOM     19  H   UNL     1       3.663   2.720  19.050  0.00  0.00    +0.000 HD
BRANCH  18  20
ATOM     20  C   UNL     1       2.689   3.315  17.237  0.00  0.00    +0.000 C 
BRANCH  20  21
ATOM     21  C   UNL     1       1.383   3.326  18.033  0.00  0.00    +0.000 C 
BRANCH  21  22
ATOM     22  C   UNL     1       1.487   2.340  19.201  0.00  0.00    +0.000 C 
BRANCH  22  23
ATOM     23  C   UNL     1       1.100   2.959  20.539  0.00  0.00    +0.000 C 
BRANCH  23  24
ATOM     24  C   UNL     1       2.189   2.722  21.581  0.00  0.00    +0.000 C 
BRANCH  24  25
ATOM     25  O   UNL     1       3.443   2.536  20.940  0.00  0.00    +0.000 OA
ATOM     26  H   UNL     1       4.058   2.172  21.600  0.00  0.00    +0.000 HD
ENDBRANCH  24  25
ENDBRANCH  23  24
ENDBRANCH  22  23
ENDBRANCH  21  22
ENDBRANCH  20  21
ENDBRANCH  18  20
ENDBRANCH  16  18
ENDBRANCH   1  16
TORSDOF 9
ENDMDL
MODEL 2
REMARK VINA RESULT:      -6.8      1.236      1.557
REMARK  Name = 
REMARK  9 active torsions:
REMARK  status: ('A' for Active; 'I' for Inactive)
REMARK    1  A    between atoms: S_2  and  N_4
REMARK    2  A    between atoms: S_2  and  C_11
REMARK    3  A    between atoms: N_4  and  C_5
REMARK    4  A    between atoms: C_5  and  C_6
REMARK    5  A    between atoms: C_6  and  C_7
REMARK    6  A    between atoms: C_7  and  C_8
REMARK    7  A    between atoms: C_8  and  C_9
REMARK    8  A    between atoms: C_9  and  O_10
REMARK    9  A    between atoms: C_14  and  C_15
REMARK                            x       y       z     vdW  Elec       q    Type
REMARK                         _______ _______ _______ _____ _____    ______ ____
ROOT
ATOM      1  C   UNL     1       4.236   5.664  18.272  0.00  0.00    +0.000 A 
ATOM      2  C   UNL     1       3.977   6.746  17.432  0.00  0.00    +0.000 A 
ATOM      3  C   UNL     1       3.039   7.712  17.818  0.00  0.00    +0.000 A 
ATOM      4  C   UNL     1       2.355   7.632  19.048  0.00  0.00    +0.000 A 
ATOM      5  C   UNL     1       2.639   6.518  19.866  0.00  0.00    +0.000 A 
ATOM      6  C   UNL     1       3.560   5.537  19.482  0.00  0.00    +0.000 A 
ENDROOT
BRANCH   4   7
ATOM      7  C   UNL     1       1.379   8.672  19.472  0.00  0.00    +0.000 A 
ATOM      8  C   UNL     1       0.759   8.616  20.737  0.00  0.00    +0.000 A 
ATOM      9  C   UNL     1      -0.138   9.606  21.158  0.00  0.00    +0.000 A 
ATOM     10  C   UNL     1      -0.444  10.660  20.309  0.00  0.00    +0.000 A 
ATOM     11  F   UNL     1      -1.303  11.605  20.713  0.00  0.00    +0.000 F 
ATOM     12  C   UNL     1       0.131  10.747  19.054  0.00  0.00    +0.000 A 
ATOM     13  C   UNL     1       1.035   9.765  18.651  0.00  0.00    +0.000 A 
ATOM     14  F   UNL     1       1.592   9.912  17.438  0.00  0.00    +0.000 F 
ENDBRANCH   4   7
BRANCH   1  16
ATOM     15  O   UNL     1       6.491   4.403  18.747  0.00  0.00    +0.000 OA
ATOM     16  S   UNL     1       5.402   4.418  17.795  0.00  0.00    +0.000 S 
ATOM     17  O   UNL     1       5.633   4.563  16.374  0.00  0.00    +0.000 OA
BRANCH  16  18
ATOM     18  N   UNL     1       4.520   2.989  17.985  0.00  0.00    +0.000 NA
ATOM     19  H   UNL     1       4.753   2.539  18.871  0.00  0.00    +0.000 HD
BRANCH  18  20
ATOM     20  C   UNL     1       3.109   3.029  17.587  0.00  0.00    +0.000 C 
BRANCH  20  21
ATOM     21  C   UNL     1       2.290   2.038  18.417  0.00  0.00    +0.000 C 
BRANCH  21  22
ATOM     22  C   UNL     1       0.917   2.643  18.725  0.00  0.00    +0.000 C 
BRANCH  22  23
ATOM     23  C   UNL     1       0.836   3.256  20.119  0.00  0.00    +0.000 C 
BRANCH  23  24
ATOM     24  C   UNL     1       1.949   2.719  21.012  0.00  0.00    +0.000 C 
BRANCH  24  25
ATOM     25  O   UNL     1       1.438   2.426  22.304  0.00  0.00    +0.000 OA
ATOM     26  H   UNL     1       1.511   1.465  22.437  0.00  0.00    +0.000 HD
ENDBRANCH  24  25
ENDBRANCH  23  24
ENDBRANCH  22  23
ENDBRANCH  21  22
ENDBRANCH  20  21
ENDBRANCH  18  20
ENDBRANCH  16  18
ENDBRANCH   1  16
TORSDOF 9
ENDMDL
MODEL 3
REMARK VINA RESULT:      -6.8      1.020      1.154
REMARK  Name = 
REMARK  9 active torsions:
REMARK  status: ('A' for Active; 'I' for Inactive)
REMARK    1  A    between atoms: S_2  and  N_4
REMARK    2  A    between atoms: S_2  and  C_11
REMARK    3  A    between atoms: N_4  and  C_5
REMARK    4  A    between atoms: C_5  and  C_6
REMARK    5  A    between atoms: C_6  and  C_7
REMARK    6  A    between atoms: C_7  and  C_8
REMARK    7  A    between atoms: C_8  and  C_9
REMARK    8  A    between atoms: C_9  and  O_10
REMARK    9  A    between atoms: C_14  and  C_15
REMARK                            x       y       z     vdW  Elec       q    Type
REMARK                         _______ _______ _______ _____ _____    ______ ____
ROOT
ATOM      1  C   UNL     1       4.446   5.863  18.230  0.00  0.00    +0.000 A 
ATOM      2  C   UNL     1       4.206   6.904  17.335  0.00  0.00    +0.000 A 
ATOM      3  C   UNL     1       3.200   7.838  17.615  0.00  0.00    +0.000 A 
ATOM      4  C   UNL     1       2.427   7.767  18.790  0.00  0.00    +0.000 A 
ATOM      5  C   UNL     1       2.694   6.693  19.666  0.00  0.00    +0.000 A 
ATOM      6  C   UNL     1       3.683   5.743  19.389  0.00  0.00    +0.000 A 
ENDROOT
BRANCH   4   7
ATOM      7  C   UNL     1       1.378   8.774  19.103  0.00  0.00    +0.000 A 
ATOM      8  C   UNL     1       0.725   9.489  18.077  0.00  0.00    +0.000 A 
ATOM      9  C   UNL     1      -0.285  10.416  18.359  0.00  0.00    +0.000 A 
ATOM     10  C   UNL     1      -0.647  10.658  19.677  0.00  0.00    +0.000 A 
ATOM     11  F   UNL     1      -1.612  11.547  19.945  0.00  0.00    +0.000 F 
ATOM     12  C   UNL     1      -0.023   9.990  20.715  0.00  0.00    +0.000 A 
ATOM     13  C   UNL     1       0.971   9.056  20.423  0.00  0.00    +0.000 A 
ATOM     14  F   UNL     1       1.522   8.410  21.462  0.00  0.00    +0.000 F 
ENDBRANCH   4   7
BRANCH   1  16
ATOM     15  O   UNL     1       6.171   4.103  19.136  0.00  0.00    +0.000 OA
ATOM     16  S   UNL     1       5.697   4.656  17.887  0.00  0.00    +0.000 S 
ATOM     17  O   UNL     1       6.601   5.234  16.917  0.00  0.00    +0.000 OA
BRANCH  16  18
ATOM     18  N   UNL     1       4.839   3.450  17.071  0.00  0.00    +0.000 NA
ATOM     19  H   UNL     1       5.420   2.619  16.947  0.00  0.00    +0.000 HD
BRANCH  18  20
ATOM     20  C   UNL     1       3.441   3.255  17.466  0.00  0.00    +0.000 C 
BRANCH  20  21
ATOM     21  C   UNL     1       3.246   1.870  18.085  0.00  0.00    +0.000 C 
BRANCH  21  22
ATOM     22  C   UNL     1       2.043   1.898  19.032  0.00  0.00    +0.000 C 
BRANCH  22  23
ATOM     23  C   UNL     1       1.138   3.105  18.810  0.00  0.00    +0.000 C 
BRANCH  23  24
ATOM     24  C   UNL     1       0.759   3.749  20.139  0.00  0.00    +0.000 C 
BRANCH  24  25
ATOM     25  O   UNL     1       0.832   2.789  21.183  0.00  0.00    +0.000 OA
ATOM     26  H   UNL     1       0.800   3.271  22.028  0.00  0.00    +0.000 HD
ENDBRANCH  24  25
ENDBRANCH  23  24
ENDBRANCH  22  23
ENDBRANCH  21  22
ENDBRANCH  20  21
ENDBRANCH  18  20
ENDBRANCH  16  18
ENDBRANCH   1  16
TORSDOF 9
ENDMDL
MODEL 4
REMARK VINA RESULT:      -6.7      0.960      1.487
REMARK  Name = 
REMARK  9 active torsions:
REMARK  status: ('A' for Active; 'I' for Inactive)
REMARK    1  A    between atoms: S_2  and  N_4
REMARK    2  A    between atoms: S_2  and  C_11
REMARK    3  A    between atoms: N_4  and  C_5
REMARK    4  A    between atoms: C_5  and  C_6
REMARK    5  A    between atoms: C_6  and  C_7
REMARK    6  A    between atoms: C_7  and  C_8
REMARK    7  A    between atoms: C_8  and  C_9
REMARK    8  A    between atoms: C_9  and  O_10
REMARK    9  A    between atoms: C_14  and  C_15
REMARK                            x       y       z     vdW  Elec       q    Type
REMARK                         _______ _______ _______ _____ _____    ______ ____
ROOT
ATOM      1  C   UNL     1       4.424   5.848  18.244  0.00  0.00    +0.000 A 
ATOM      2  C   UNL     1       3.679   5.743  19.418  0.00  0.00    +0.000 A 
ATOM      3  C   UNL     1       2.694   6.699  19.698  0.00  0.00    +0.000 A 
ATOM      4  C   UNL     1       2.420   7.763  18.816  0.00  0.00    +0.000 A 
ATOM      5  C   UNL     1       3.202   7.839  17.644  0.00  0.00    +0.000 A 
ATOM      6  C   UNL     1       4.200   6.901  17.362  0.00  0.00    +0.000 A 
ENDROOT
BRANCH   4   7
ATOM      7  C   UNL     1       1.355   8.764  19.099  0.00  0.00    +0.000 A 
ATOM      8  C   UNL     1       0.701   9.447  18.053  0.00  0.00    +0.000 A 
ATOM      9  C   UNL     1      -0.323  10.368  18.308  0.00  0.00    +0.000 A 
ATOM     10  C   UNL     1      -0.696  10.635  19.618  0.00  0.00    +0.000 A 
ATOM     11  F   UNL     1      -1.674  11.517  19.859  0.00  0.00    +0.000 F 
ATOM     12  C   UNL     1      -0.071   9.998  20.674  0.00  0.00    +0.000 A 
ATOM     13  C   UNL     1       0.936   9.070  20.410  0.00  0.00    +0.000 A 
ATOM     14  F   UNL     1       1.489   8.454  21.467  0.00  0.00    +0.000 F 
ENDBRANCH   4   7
BRANCH   1  16
ATOM     15  O   UNL     1       6.133   4.053  19.113  0.00  0.00    +0.000 OA
ATOM     16  S   UNL     1       5.690   4.664  17.879  0.00  0.00    +0.000 S 
ATOM     17  O   UNL     1       6.617   5.291  16.963  0.00  0.00    +0.000 OA
BRANCH  16  18
ATOM     18  N   UNL     1       4.861   3.494  16.983  0.00  0.00    +0.000 NA
ATOM     19  H   UNL     1       5.470   2.700  16.781  0.00  0.00    +0.000 HD
BRANCH  18  20
ATOM     20  C   UNL     1       3.480   3.213  17.386  0.00  0.00    +0.000 C 
BRANCH  20  21
ATOM     21  C   UNL     1       3.413   1.923  18.205  0.00  0.00    +0.000 C 
BRANCH  21  22
ATOM     22  C   UNL     1       2.094   1.878  18.981  0.00  0.00    +0.000 C 
BRANCH  22  23
ATOM     23  C   UNL     1       1.265   3.148  18.820  0.00  0.00    +0.000 C 
BRANCH  23  24
ATOM     24  C   UNL     1       0.731   3.621  20.168  0.00  0.00    +0.000 C 
BRANCH  24  25
ATOM     25  O   UNL     1       1.561   3.141  21.215  0.00  0.00    +0.000 OA
ATOM     26  H   UNL     1       2.204   2.526  20.821  0.00  0.00    +0.000 HD
ENDBRANCH  24  25
ENDBRANCH  23  24
ENDBRANCH  22  23
ENDBRANCH  21  22
ENDBRANCH  20  21
ENDBRANCH  18  20
ENDBRANCH  16  18
ENDBRANCH   1  16
TORSDOF 9
ENDMDL
MODEL 5
REMARK VINA RESULT:      -6.7      1.594      2.215
REMARK  Name = 
REMARK  9 active torsions:
REMARK  status: ('A' for Active; 'I' for Inactive)
REMARK    1  A    between atoms: S_2  and  N_4
REMARK    2  A    between atoms: S_2  and  C_11
REMARK    3  A    between atoms: N_4  and  C_5
REMARK    4  A    between atoms: C_5  and  C_6
REMARK    5  A    between atoms: C_6  and  C_7
REMARK    6  A    between atoms: C_7  and  C_8
REMARK    7  A    between atoms: C_8  and  C_9
REMARK    8  A    between atoms: C_9  and  O_10
REMARK    9  A    between atoms: C_14  and  C_15
REMARK                            x       y       z     vdW  Elec       q    Type
REMARK                         _______ _______ _______ _____ _____    ______ ____
ROOT
ATOM      1  C   UNL     1       2.981   6.984  18.810  0.00  0.00    +0.000 A 
ATOM      2  C   UNL     1       2.291   7.092  20.015  0.00  0.00    +0.000 A 
ATOM      3  C   UNL     1       1.423   8.172  20.220  0.00  0.00    +0.000 A 
ATOM      4  C   UNL     1       1.212   9.153  19.230  0.00  0.00    +0.000 A 
ATOM      5  C   UNL     1       1.936   9.013  18.027  0.00  0.00    +0.000 A 
ATOM      6  C   UNL     1       2.820   7.948  17.818  0.00  0.00    +0.000 A 
ENDROOT
BRANCH   4   7
ATOM      7  C   UNL     1       0.269  10.286  19.435  0.00  0.00    +0.000 A 
ATOM      8  C   UNL     1       0.463  11.216  20.477  0.00  0.00    +0.000 A 
ATOM      9  C   UNL     1      -0.401  12.302  20.659  0.00  0.00    +0.000 A 
ATOM     10  C   UNL     1      -1.487  12.466  19.810  0.00  0.00    +0.000 A 
ATOM     11  F   UNL     1      -2.313  13.505  19.987  0.00  0.00    +0.000 F 
ATOM     12  C   UNL     1      -1.722  11.570  18.784  0.00  0.00    +0.000 A 
ATOM     13  C   UNL     1      -0.847  10.500  18.600  0.00  0.00    +0.000 A 
ATOM     14  F   UNL     1      -1.099   9.677  17.570  0.00  0.00    +0.000 F 
ENDBRANCH   4   7
BRANCH   1  16
ATOM     15  O   UNL     1       4.168   4.831  19.735  0.00  0.00    +0.000 OA
ATOM     16  S   UNL     1       4.102   5.639  18.536  0.00  0.00    +0.000 S 
ATOM     17  O   UNL     1       5.290   6.185  17.918  0.00  0.00    +0.000 OA
BRANCH  16  18
ATOM     18  N   UNL     1       3.320   4.737  17.339  0.00  0.00    +0.000 NA
ATOM     19  H   UNL     1       3.995   4.190  16.805  0.00  0.00    +0.000 HD
BRANCH  18  20
ATOM     20  C   UNL     1       2.061   4.089  17.721  0.00  0.00    +0.000 C 
BRANCH  20  21
ATOM     21  C   UNL     1       2.223   2.568  17.731  0.00  0.00    +0.000 C 
BRANCH  21  22
ATOM     22  C   UNL     1       1.671   2.005  19.044  0.00  0.00    +0.000 C 
BRANCH  22  23
ATOM     23  C   UNL     1       0.988   3.062  19.906  0.00  0.00    +0.000 C 
BRANCH  23  24
ATOM     24  C   UNL     1       1.375   2.898  21.372  0.00  0.00    +0.000 C 
BRANCH  24  25
ATOM     25  O   UNL     1       2.242   3.951  21.767  0.00  0.00    +0.000 OA
ATOM     26  H   UNL     1       3.048   3.885  21.226  0.00  0.00    +0.000 HD
ENDBRANCH  24  25
ENDBRANCH  23  24
ENDBRANCH  22  23
ENDBRANCH  21  22
ENDBRANCH  20  21
ENDBRANCH  18  20
ENDBRANCH  16  18
ENDBRANCH   1  16
TORSDOF 9
ENDMDL
MODEL 6
REMARK VINA RESULT:      -6.7      2.217      3.885
REMARK  Name = 
REMARK  9 active torsions:
REMARK  status: ('A' for Active; 'I' for Inactive)
REMARK    1  A    between atoms: S_2  and  N_4
REMARK    2  A    between atoms: S_2  and  C_11
REMARK    3  A    between atoms: N_4  and  C_5
REMARK    4  A    between atoms: C_5  and  C_6
REMARK    5  A    between atoms: C_6  and  C_7
REMARK    6  A    between atoms: C_7  and  C_8
REMARK    7  A    between atoms: C_8  and  C_9
REMARK    8  A    between atoms: C_9  and  O_10
REMARK    9  A    between atoms: C_14  and  C_15
REMARK                            x       y       z     vdW  Elec       q    Type
REMARK                         _______ _______ _______ _____ _____    ______ ____
ROOT
ATOM      1  C   UNL     1       3.398   5.026  18.886  0.00  0.00    +0.000 A 
ATOM      2  C   UNL     1       3.440   6.089  17.985  0.00  0.00    +0.000 A 
ATOM      3  C   UNL     1       2.771   7.281  18.291  0.00  0.00    +0.000 A 
ATOM      4  C   UNL     1       2.063   7.447  19.499  0.00  0.00    +0.000 A 
ATOM      5  C   UNL     1       2.037   6.344  20.379  0.00  0.00    +0.000 A 
ATOM      6  C   UNL     1       2.686   5.143  20.077  0.00  0.00    +0.000 A 
ENDROOT
BRANCH   4   7
ATOM      7  C   UNL     1       1.375   8.721  19.838  0.00  0.00    +0.000 A 
ATOM      8  C   UNL     1       1.072   9.053  21.175  0.00  0.00    +0.000 A 
ATOM      9  C   UNL     1       0.452  10.263  21.506  0.00  0.00    +0.000 A 
ATOM     10  C   UNL     1       0.107  11.156  20.502  0.00  0.00    +0.000 A 
ATOM     11  F   UNL     1      -0.488  12.312  20.821  0.00  0.00    +0.000 F 
ATOM     12  C   UNL     1       0.373  10.865  19.176  0.00  0.00    +0.000 A 
ATOM     13  C   UNL     1       1.005   9.664  18.857  0.00  0.00    +0.000 A 
ATOM     14  F   UNL     1       1.272   9.443  17.560  0.00  0.00    +0.000 F 
ENDBRANCH   4   7
BRANCH   1  16
ATOM     15  O   UNL     1       4.248   3.324  17.075  0.00  0.00    +0.000 OA
ATOM     16  S   UNL     1       4.217   3.501  18.510  0.00  0.00    +0.000 S 
ATOM     17  O   UNL     1       3.675   2.490  19.391  0.00  0.00    +0.000 OA
BRANCH  16  18
ATOM     18  N   UNL     1       5.798   3.786  19.038  0.00  0.00    +0.000 NA
ATOM     19  H   UNL     1       6.458   3.203  18.522  0.00  0.00    +0.000 HD
BRANCH  18  20
ATOM     20  C   UNL     1       6.166   5.183  19.286  0.00  0.00    +0.000 C 
BRANCH  20  21
ATOM     21  C   UNL     1       7.430   5.551  18.505  0.00  0.00    +0.000 C 
BRANCH  21  22
ATOM     22  C   UNL     1       7.483   4.738  17.208  0.00  0.00    +0.000 C 
BRANCH  22  23
ATOM     23  C   UNL     1       6.809   5.442  16.035  0.00  0.00    +0.000 C 
BRANCH  23  24
ATOM     24  C   UNL     1       6.945   4.619  14.759  0.00  0.00    +0.000 C 
BRANCH  24  25
ATOM     25  O   UNL     1       6.178   3.429  14.864  0.00  0.00    +0.000 OA
ATOM     26  H   UNL     1       6.797   2.692  15.007  0.00  0.00    +0.000 HD
ENDBRANCH  24  25
ENDBRANCH  23  24
ENDBRANCH  22  23
ENDBRANCH  21  22
ENDBRANCH  20  21
ENDBRANCH  18  20
ENDBRANCH  16  18
ENDBRANCH   1  16
TORSDOF 9
ENDMDL
MODEL 7
REMARK VINA RESULT:      -6.7      0.770      1.249
REMARK  Name = 
REMARK  9 active torsions:
REMARK  status: ('A' for Active; 'I' for Inactive)
REMARK    1  A    between atoms: S_2  and  N_4
REMARK    2  A    between atoms: S_2  and  C_11
REMARK    3  A    between atoms: N_4  and  C_5
REMARK    4  A    between atoms: C_5  and  C_6
REMARK    5  A    between atoms: C_6  and  C_7
REMARK    6  A    between atoms: C_7  and  C_8
REMARK    7  A    between atoms: C_8  and  C_9
REMARK    8  A    between atoms: C_9  and  O_10
REMARK    9  A    between atoms: C_14  and  C_15
REMARK                            x       y       z     vdW  Elec       q    Type
REMARK                         _______ _______ _______ _____ _____    ______ ____
ROOT
ATOM      1  C   UNL     1       3.569   6.188  18.546  0.00  0.00    +0.000 A 
ATOM      2  C   UNL     1       2.822   6.208  19.722  0.00  0.00    +0.000 A 
ATOM      3  C   UNL     1       1.967   7.289  19.978  0.00  0.00    +0.000 A 
ATOM      4  C   UNL     1       1.826   8.356  19.070  0.00  0.00    +0.000 A 
ATOM      5  C   UNL     1       2.607   8.303  17.895  0.00  0.00    +0.000 A 
ATOM      6  C   UNL     1       3.478   7.239  17.636  0.00  0.00    +0.000 A 
ENDROOT
BRANCH   4   7
ATOM      7  C   UNL     1       0.898   9.490  19.328  0.00  0.00    +0.000 A 
ATOM      8  C   UNL     1       0.094  10.022  18.299  0.00  0.00    +0.000 A 
ATOM      9  C   UNL     1      -0.805  11.069  18.539  0.00  0.00    +0.000 A 
ATOM     10  C   UNL     1      -0.899  11.615  19.811  0.00  0.00    +0.000 A 
ATOM     11  F   UNL     1      -1.757  12.617  20.038  0.00  0.00    +0.000 F 
ATOM     12  C   UNL     1      -0.118  11.133  20.846  0.00  0.00    +0.000 A 
ATOM     13  C   UNL     1       0.762  10.080  20.602  0.00  0.00    +0.000 A 
ATOM     14  F   UNL     1       1.472   9.625  21.646  0.00  0.00    +0.000 F 
ENDBRANCH   4   7
BRANCH   1  16
ATOM     15  O   UNL     1       4.820   4.045  19.406  0.00  0.00    +0.000 OA
ATOM     16  S   UNL     1       4.674   4.845  18.209  0.00  0.00    +0.000 S 
ATOM     17  O   UNL     1       5.818   5.390  17.512  0.00  0.00    +0.000 OA
BRANCH  16  18
ATOM     18  N   UNL     1       3.819   3.933  17.071  0.00  0.00    +0.000 NA
ATOM     19  H   UNL     1       4.377   3.139  16.757  0.00  0.00    +0.000 HD
BRANCH  18  20
ATOM     20  C   UNL     1       2.397   3.706  17.345  0.00  0.00    +0.000 C 
BRANCH  20  21
ATOM     21  C   UNL     1       2.195   2.364  18.052  0.00  0.00    +0.000 C 
BRANCH  21  22
ATOM     22  C   UNL     1       0.878   2.392  18.833  0.00  0.00    +0.000 C 
BRANCH  22  23
ATOM     23  C   UNL     1       0.944   3.266  20.081  0.00  0.00    +0.000 C 
BRANCH  23  24
ATOM     24  C   UNL     1       1.646   2.533  21.219  0.00  0.00    +0.000 C 
BRANCH  24  25
ATOM     25  O   UNL     1       2.214   3.469  22.123  0.00  0.00    +0.000 OA
ATOM     26  H   UNL     1       3.172   3.303  22.154  0.00  0.00    +0.000 HD
ENDBRANCH  24  25
ENDBRANCH  23  24
ENDBRANCH  22  23
ENDBRANCH  21  22
ENDBRANCH  20  21
ENDBRANCH  18  20
ENDBRANCH  16  18
ENDBRANCH   1  16
TORSDOF 9
ENDMDL
MODEL 8
REMARK VINA RESULT:      -6.6      2.749      4.525
REMARK  Name = 
REMARK  9 active torsions:
REMARK  status: ('A' for Active; 'I' for Inactive)
REMARK    1  A    between atoms: S_2  and  N_4
REMARK    2  A    between atoms: S_2  and  C_11
REMARK    3  A    between atoms: N_4  and  C_5
REMARK    4  A    between atoms: C_5  and  C_6
REMARK    5  A    between atoms: C_6  and  C_7
REMARK    6  A    between atoms: C_7  and  C_8
REMARK    7  A    between atoms: C_8  and  C_9
REMARK    8  A    between atoms: C_9  and  O_10
REMARK    9  A    between atoms: C_14  and  C_15
REMARK                            x       y       z     vdW  Elec       q    Type
REMARK                         _______ _______ _______ _____ _____    ______ ____
ROOT
ATOM      1  C   UNL     1       3.820   5.384  18.152  0.00  0.00    +0.000 A 
ATOM      2  C   UNL     1       3.743   6.653  17.581  0.00  0.00    +0.000 A 
ATOM      3  C   UNL     1       2.966   7.642  18.198  0.00  0.00    +0.000 A 
ATOM      4  C   UNL     1       2.267   7.398  19.397  0.00  0.00    +0.000 A 
ATOM      5  C   UNL     1       2.364   6.098  19.938  0.00  0.00    +0.000 A 
ATOM      6  C   UNL     1       3.121   5.096  19.322  0.00  0.00    +0.000 A 
ENDROOT
BRANCH   4   7
ATOM      7  C   UNL     1       1.464   8.455  20.068  0.00  0.00    +0.000 A 
ATOM      8  C   UNL     1       1.220   8.414  21.457  0.00  0.00    +0.000 A 
ATOM      9  C   UNL     1       0.492   9.420  22.102  0.00  0.00    +0.000 A 
ATOM     10  C   UNL     1      -0.022  10.477  21.364  0.00  0.00    +0.000 A 
ATOM     11  F   UNL     1      -0.721  11.437  21.983  0.00  0.00    +0.000 F 
ATOM     12  C   UNL     1       0.181  10.549  19.998  0.00  0.00    +0.000 A 
ATOM     13  C   UNL     1       0.922   9.551  19.366  0.00  0.00    +0.000 A 
ATOM     14  F   UNL     1       1.120   9.684  18.045  0.00  0.00    +0.000 F 
ENDBRANCH   4   7
BRANCH   1  16
ATOM     15  O   UNL     1       5.166   4.550  16.057  0.00  0.00    +0.000 OA
ATOM     16  S   UNL     1       4.778   4.110  17.379  0.00  0.00    +0.000 S 
ATOM     17  O   UNL     1       4.084   2.858  17.592  0.00  0.00    +0.000 OA
BRANCH  16  18
ATOM     18  N   UNL     1       6.166   4.049  18.340  0.00  0.00    +0.000 NA
ATOM     19  H   UNL     1       6.308   3.107  18.705  0.00  0.00    +0.000 HD
BRANCH  18  20
ATOM     20  C   UNL     1       7.340   4.777  17.847  0.00  0.00    +0.000 C 
BRANCH  20  21
ATOM     21  C   UNL     1       7.382   6.188  18.436  0.00  0.00    +0.000 C 
BRANCH  21  22
ATOM     22  C   UNL     1       7.744   7.190  17.336  0.00  0.00    +0.000 C 
BRANCH  22  23
ATOM     23  C   UNL     1       7.455   8.635  17.728  0.00  0.00    +0.000 C 
BRANCH  23  24
ATOM     24  C   UNL     1       8.653   9.252  18.442  0.00  0.00    +0.000 C 
BRANCH  24  25
ATOM     25  O   UNL     1       8.779  10.621  18.087  0.00  0.00    +0.000 OA
ATOM     26  H   UNL     1       9.534  10.985  18.581  0.00  0.00    +0.000 HD
ENDBRANCH  24  25
ENDBRANCH  23  24
ENDBRANCH  22  23
ENDBRANCH  21  22
ENDBRANCH  20  21
ENDBRANCH  18  20
ENDBRANCH  16  18
ENDBRANCH   1  16
TORSDOF 9
ENDMDL
MODEL 9
REMARK VINA RESULT:      -6.6      2.843      4.378
REMARK  Name = 
REMARK  9 active torsions:
REMARK  status: ('A' for Active; 'I' for Inactive)
REMARK    1  A    between atoms: S_2  and  N_4
REMARK    2  A    between atoms: S_2  and  C_11
REMARK    3  A    between atoms: N_4  and  C_5
REMARK    4  A    between atoms: C_5  and  C_6
REMARK    5  A    between atoms: C_6  and  C_7
REMARK    6  A    between atoms: C_7  and  C_8
REMARK    7  A    between atoms: C_8  and  C_9
REMARK    8  A    between atoms: C_9  and  O_10
REMARK    9  A    between atoms: C_14  and  C_15
REMARK                            x       y       z     vdW  Elec       q    Type
REMARK                         _______ _______ _______ _____ _____    ______ ____
ROOT
ATOM      1  C   UNL     1       3.529   4.981  18.999  0.00  0.00    +0.000 A 
ATOM      2  C   UNL     1       3.607   6.148  18.240  0.00  0.00    +0.000 A 
ATOM      3  C   UNL     1       2.886   7.281  18.639  0.00  0.00    +0.000 A 
ATOM      4  C   UNL     1       2.090   7.283  19.801  0.00  0.00    +0.000 A 
ATOM      5  C   UNL     1       2.030   6.080  20.537  0.00  0.00    +0.000 A 
ATOM      6  C   UNL     1       2.730   4.937  20.139  0.00  0.00    +0.000 A 
ENDROOT
BRANCH   4   7
ATOM      7  C   UNL     1       1.346   8.494  20.241  0.00  0.00    +0.000 A 
ATOM      8  C   UNL     1       1.119   8.753  21.609  0.00  0.00    +0.000 A 
ATOM      9  C   UNL     1       0.446   9.905  22.034  0.00  0.00    +0.000 A 
ATOM     10  C   UNL     1      -0.028  10.810  21.095  0.00  0.00    +0.000 A 
ATOM     11  F   UNL     1      -0.673  11.910  21.504  0.00  0.00    +0.000 F 
ATOM     12  C   UNL     1       0.160  10.588  19.743  0.00  0.00    +0.000 A 
ATOM     13  C   UNL     1       0.845   9.446  19.329  0.00  0.00    +0.000 A 
ATOM     14  F   UNL     1       1.031   9.292  18.009  0.00  0.00    +0.000 F 
ENDBRANCH   4   7
BRANCH   1  16
ATOM     15  O   UNL     1       3.639   2.825  17.503  0.00  0.00    +0.000 OA
ATOM     16  S   UNL     1       4.413   3.529  18.502  0.00  0.00    +0.000 S 
ATOM     17  O   UNL     1       4.879   2.874  19.705  0.00  0.00    +0.000 OA
BRANCH  16  18
ATOM     18  N   UNL     1       5.786   4.165  17.749  0.00  0.00    +0.000 NA
ATOM     19  H   UNL     1       6.615   4.005  18.323  0.00  0.00    +0.000 HD
BRANCH  18  20
ATOM     20  C   UNL     1       5.901   3.952  16.304  0.00  0.00    +0.000 C 
BRANCH  20  21
ATOM     21  C   UNL     1       7.051   4.782  15.729  0.00  0.00    +0.000 C 
BRANCH  21  22
ATOM     22  C   UNL     1       6.902   4.877  14.208  0.00  0.00    +0.000 C 
BRANCH  22  23
ATOM     23  C   UNL     1       5.974   3.813  13.633  0.00  0.00    +0.000 C 
BRANCH  23  24
ATOM     24  C   UNL     1       6.388   3.443  12.212  0.00  0.00    +0.000 C 
BRANCH  24  25
ATOM     25  O   UNL     1       5.989   2.112  11.920  0.00  0.00    +0.000 OA
ATOM     26  H   UNL     1       5.967   1.622  12.761  0.00  0.00    +0.000 HD
ENDBRANCH  24  25
ENDBRANCH  23  24
ENDBRANCH  22  23
ENDBRANCH  21  22
ENDBRANCH  20  21
ENDBRANCH  18  20
ENDBRANCH  16  18
ENDBRANCH   1  16
TORSDOF 9
ENDMDL
