MODEL 1
REMARK VINA RESULT:      -8.1      0.000      0.000
REMARK  Name = 
REMARK  3 active torsions:
REMARK  status: ('A' for Active; 'I' for Inactive)
REMARK    1  A    between atoms: C_2  and  C_17
REMARK    2  A    between atoms: N_3  and  C_4
REMARK    3  A    between atoms: C_7  and  N_8
REMARK                            x       y       z     vdW  Elec       q    Type
REMARK                         _______ _______ _______ _____ _____    ______ ____
ROOT
ATOM      1  C   UNL     1       7.832   6.967  18.220  0.00  0.00    +0.000 C 
ATOM      2  C   UNL     1       7.689   5.803  19.222  0.00  0.00    +0.000 C 
ATOM      3  C   UNL     1       6.744   4.705  18.733  0.00  0.00    +0.000 C 
ATOM      4  C   UNL     1       5.382   5.301  18.354  0.00  0.00    +0.000 C 
ATOM      5  C   UNL     1       5.578   6.287  17.201  0.00  0.00    +0.000 C 
ATOM      6  C   UNL     1       6.487   7.434  17.632  0.00  0.00    +0.000 C 
ENDROOT
BRANCH   4   7
ATOM      7  N   UNL     1       4.480   4.228  17.975  0.00  0.00    +0.000 N 
ATOM      8  C   UNL     1       3.299   3.963  18.636  0.00  0.00    +0.000 A 
ATOM      9  C   UNL     1       3.110   4.152  20.001  0.00  0.00    +0.000 A 
ATOM     10  C   UNL     1       1.918   3.740  20.599  0.00  0.00    +0.000 A 
ATOM     11  C   UNL     1       0.939   3.146  19.820  0.00  0.00    +0.000 A 
ATOM     12  C   UNL     1       1.192   3.010  18.469  0.00  0.00    +0.000 A 
ATOM     13  N   UNL     1       2.340   3.405  17.869  0.00  0.00    +0.000 NA
ATOM     14  H   UNL     1       4.327   4.084  16.981  0.00  0.00    +0.000 HD
ENDBRANCH   4   7
BRANCH   1  17
ATOM     15  O   UNL     1       7.634   9.736  17.431  0.00  0.00    +0.000 OA
ATOM     16  C   UNL     1       8.446   9.383  18.274  0.00  0.00    +0.000 C 
ATOM     17  N   UNL     1       8.567   8.103  18.780  0.00  0.00    +0.000 N 
ATOM     18  H   UNL     1       9.392   7.925  19.349  0.00  0.00    +0.000 HD
BRANCH  16  19
ATOM     19  C   UNL     1       9.433  10.420  18.796  0.00  0.00    +0.000 A 
ATOM     20  C   UNL     1      10.267  11.071  17.760  0.00  0.00    +0.000 A 
ATOM     21  C   UNL     1      11.220  11.905  18.178  0.00  0.00    +0.000 A 
ATOM     22  C   UNL     1      11.393  12.164  19.620  0.00  0.00    +0.000 A 
ATOM     23  O   UNL     1      12.286  12.901  20.020  0.00  0.00    +0.000 OA
ATOM     24  N   UNL     1      10.495  11.539  20.455  0.00  0.00    +0.000 N 
ATOM     25  N   UNL     1       9.520  10.646  20.074  0.00  0.00    +0.000 NA
ATOM     26  H   UNL     1      10.613  11.694  21.452  0.00  0.00    +0.000 HD
ENDBRANCH  16  19
ENDBRANCH   1  17
TORSDOF 3
ENDMDL
MODEL 2
REMARK VINA RESULT:      -8.1      1.661      1.751
REMARK  Name = 
REMARK  3 active torsions:
REMARK  status: ('A' for Active; 'I' for Inactive)
REMARK    1  A    between atoms: C_2  and  C_17
REMARK    2  A    between atoms: N_3  and  C_4
REMARK    3  A    between atoms: C_7  and  N_8
REMARK                            x       y       z     vdW  Elec       q    Type
REMARK                         _______ _______ _______ _____ _____    ______ ____
ROOT
ATOM      1  C   UNL     1       6.755   6.859  16.924  0.00  0.00    +0.000 C 
ATOM      2  C   UNL     1       7.441   5.734  17.726  0.00  0.00    +0.000 C 
ATOM      3  C   UNL     1       6.641   4.431  17.734  0.00  0.00    +0.000 C 
ATOM      4  C   UNL     1       5.208   4.685  18.220  0.00  0.00    +0.000 C 
ATOM      5  C   UNL     1       4.519   5.643  17.246  0.00  0.00    +0.000 C 
ATOM      6  C   UNL     1       5.247   6.983  17.214  0.00  0.00    +0.000 C 
ENDROOT
BRANCH   4   7
ATOM      7  N   UNL     1       4.499   3.420  18.297  0.00  0.00    +0.000 N 
ATOM      8  C   UNL     1       3.217   3.301  18.794  0.00  0.00    +0.000 A 
ATOM      9  C   UNL     1       2.702   4.088  19.818  0.00  0.00    +0.000 A 
ATOM     10  C   UNL     1       1.435   3.810  20.334  0.00  0.00    +0.000 A 
ATOM     11  C   UNL     1       0.710   2.749  19.817  0.00  0.00    +0.000 A 
ATOM     12  C   UNL     1       1.281   2.026  18.788  0.00  0.00    +0.000 A 
ATOM     13  N   UNL     1       2.507   2.281  18.271  0.00  0.00    +0.000 NA
ATOM     14  H   UNL     1       4.593   2.790  17.506  0.00  0.00    +0.000 HD
ENDBRANCH   4   7
BRANCH   1  17
ATOM     15  O   UNL     1       8.625   7.603  18.992  0.00  0.00    +0.000 OA
ATOM     16  C   UNL     1       8.245   8.424  18.168  0.00  0.00    +0.000 C 
ATOM     17  N   UNL     1       7.418   8.154  17.094  0.00  0.00    +0.000 N 
ATOM     18  H   UNL     1       7.057   8.964  16.596  0.00  0.00    +0.000 HD
BRANCH  16  19
ATOM     19  C   UNL     1       8.683   9.872  18.346  0.00  0.00    +0.000 A 
ATOM     20  C   UNL     1       9.492  10.141  19.556  0.00  0.00    +0.000 A 
ATOM     21  C   UNL     1       9.807  11.412  19.811  0.00  0.00    +0.000 A 
ATOM     22  C   UNL     1       9.369  12.478  18.891  0.00  0.00    +0.000 A 
ATOM     23  O   UNL     1       9.621  13.653  19.131  0.00  0.00    +0.000 OA
ATOM     24  N   UNL     1       8.684  12.064  17.772  0.00  0.00    +0.000 N 
ATOM     25  N   UNL     1       8.307  10.772  17.484  0.00  0.00    +0.000 NA
ATOM     26  H   UNL     1       8.361  12.789  17.138  0.00  0.00    +0.000 HD
ENDBRANCH  16  19
ENDBRANCH   1  17
TORSDOF 3
ENDMDL
MODEL 3
REMARK VINA RESULT:      -8.0      0.838      1.047
REMARK  Name = 
REMARK  3 active torsions:
REMARK  status: ('A' for Active; 'I' for Inactive)
REMARK    1  A    between atoms: C_2  and  C_17
REMARK    2  A    between atoms: N_3  and  C_4
REMARK    3  A    between atoms: C_7  and  N_8
REMARK                            x       y       z     vdW  Elec       q    Type
REMARK                         _______ _______ _______ _____ _____    ______ ____
ROOT
ATOM      1  C   UNL     1       7.867   7.011  18.180  0.00  0.00    +0.000 C 
ATOM      2  C   UNL     1       7.736   5.862  19.202  0.00  0.00    +0.000 C 
ATOM      3  C   UNL     1       6.790   4.754  18.738  0.00  0.00    +0.000 C 
ATOM      4  C   UNL     1       5.423   5.340  18.362  0.00  0.00    +0.000 C 
ATOM      5  C   UNL     1       5.606   6.308  17.192  0.00  0.00    +0.000 C 
ATOM      6  C   UNL     1       6.515   7.464  17.597  0.00  0.00    +0.000 C 
ENDROOT
BRANCH   4   7
ATOM      7  N   UNL     1       4.521   4.258  18.007  0.00  0.00    +0.000 N 
ATOM      8  C   UNL     1       3.323   4.030  18.652  0.00  0.00    +0.000 A 
ATOM      9  C   UNL     1       3.105   4.277  20.003  0.00  0.00    +0.000 A 
ATOM     10  C   UNL     1       1.896   3.900  20.591  0.00  0.00    +0.000 A 
ATOM     11  C   UNL     1       0.931   3.281  19.815  0.00  0.00    +0.000 A 
ATOM     12  C   UNL     1       1.213   3.086  18.477  0.00  0.00    +0.000 A 
ATOM     13  N   UNL     1       2.377   3.448  17.887  0.00  0.00    +0.000 NA
ATOM     14  H   UNL     1       4.389   4.074  17.017  0.00  0.00    +0.000 HD
ENDBRANCH   4   7
BRANCH   1  17
ATOM     15  O   UNL     1       7.601   9.776  17.400  0.00  0.00    +0.000 OA
ATOM     16  C   UNL     1       8.446   9.436  18.216  0.00  0.00    +0.000 C 
ATOM     17  N   UNL     1       8.604   8.157  18.717  0.00  0.00    +0.000 N 
ATOM     18  H   UNL     1       9.449   7.992  19.257  0.00  0.00    +0.000 HD
BRANCH  16  19
ATOM     19  C   UNL     1       9.435  10.487  18.704  0.00  0.00    +0.000 A 
ATOM     20  C   UNL     1       9.446  10.708  20.168  0.00  0.00    +0.000 A 
ATOM     21  C   UNL     1      10.216  11.694  20.632  0.00  0.00    +0.000 A 
ATOM     22  C   UNL     1      11.028  12.496  19.698  0.00  0.00    +0.000 A 
ATOM     23  O   UNL     1      11.713  13.427  20.105  0.00  0.00    +0.000 OA
ATOM     24  N   UNL     1      10.965  12.125  18.374  0.00  0.00    +0.000 N 
ATOM     25  N   UNL     1      10.162  11.140  17.845  0.00  0.00    +0.000 NA
ATOM     26  H   UNL     1      11.506  12.679  17.717  0.00  0.00    +0.000 HD
ENDBRANCH  16  19
ENDBRANCH   1  17
TORSDOF 3
ENDMDL
MODEL 4
REMARK VINA RESULT:      -8.0      5.211      7.660
REMARK  Name = 
REMARK  3 active torsions:
REMARK  status: ('A' for Active; 'I' for Inactive)
REMARK    1  A    between atoms: C_2  and  C_17
REMARK    2  A    between atoms: N_3  and  C_4
REMARK    3  A    between atoms: C_7  and  N_8
REMARK                            x       y       z     vdW  Elec       q    Type
REMARK                         _______ _______ _______ _____ _____    ______ ____
ROOT
ATOM      1  C   UNL     1       3.509   6.317  18.156  0.00  0.00    +0.000 C 
ATOM      2  C   UNL     1       4.000   7.347  17.117  0.00  0.00    +0.000 C 
ATOM      3  C   UNL     1       5.045   6.776  16.157  0.00  0.00    +0.000 C 
ATOM      4  C   UNL     1       6.209   6.155  16.939  0.00  0.00    +0.000 C 
ATOM      5  C   UNL     1       5.675   4.995  17.781  0.00  0.00    +0.000 C 
ATOM      6  C   UNL     1       4.649   5.499  18.791  0.00  0.00    +0.000 C 
ENDROOT
BRANCH   4   7
ATOM      7  N   UNL     1       7.222   5.698  16.004  0.00  0.00    +0.000 N 
ATOM      8  C   UNL     1       6.924   5.131  14.782  0.00  0.00    +0.000 A 
ATOM      9  C   UNL     1       5.802   4.345  14.542  0.00  0.00    +0.000 A 
ATOM     10  C   UNL     1       5.650   3.716  13.304  0.00  0.00    +0.000 A 
ATOM     11  C   UNL     1       6.624   3.885  12.334  0.00  0.00    +0.000 A 
ATOM     12  C   UNL     1       7.699   4.696  12.642  0.00  0.00    +0.000 A 
ATOM     13  N   UNL     1       7.863   5.318  13.833  0.00  0.00    +0.000 NA
ATOM     14  H   UNL     1       8.042   6.286  15.890  0.00  0.00    +0.000 HD
ENDBRANCH   4   7
BRANCH   1  17
ATOM     15  O   UNL     1       1.640   8.492  17.841  0.00  0.00    +0.000 OA
ATOM     16  C   UNL     1       1.861   8.013  18.944  0.00  0.00    +0.000 C 
ATOM     17  N   UNL     1       2.673   6.922  19.194  0.00  0.00    +0.000 N 
ATOM     18  H   UNL     1       2.891   6.745  20.171  0.00  0.00    +0.000 HD
BRANCH  16  19
ATOM     19  C   UNL     1       1.225   8.683  20.156  0.00  0.00    +0.000 A 
ATOM     20  C   UNL     1       0.342   9.831  19.850  0.00  0.00    +0.000 A 
ATOM     21  C   UNL     1      -0.151  10.516  20.883  0.00  0.00    +0.000 A 
ATOM     22  C   UNL     1       0.173  10.104  22.261  0.00  0.00    +0.000 A 
ATOM     23  O   UNL     1      -0.244  10.745  23.219  0.00  0.00    +0.000 OA
ATOM     24  N   UNL     1       0.950   8.975  22.386  0.00  0.00    +0.000 N 
ATOM     25  N   UNL     1       1.507   8.257  21.353  0.00  0.00    +0.000 NA
ATOM     26  H   UNL     1       1.195   8.690  23.329  0.00  0.00    +0.000 HD
ENDBRANCH  16  19
ENDBRANCH   1  17
TORSDOF 3
ENDMDL
MODEL 5
REMARK VINA RESULT:      -8.0      6.616      8.490
REMARK  Name = 
REMARK  3 active torsions:
REMARK  status: ('A' for Active; 'I' for Inactive)
REMARK    1  A    between atoms: C_2  and  C_17
REMARK    2  A    between atoms: N_3  and  C_4
REMARK    3  A    between atoms: C_7  and  N_8
REMARK                            x       y       z     vdW  Elec       q    Type
REMARK                         _______ _______ _______ _____ _____    ______ ____
ROOT
ATOM      1  C   UNL     1       1.771   8.015  18.857  0.00  0.00    +0.000 C 
ATOM      2  C   UNL     1       1.639   8.165  20.387  0.00  0.00    +0.000 C 
ATOM      3  C   UNL     1       0.412   8.975  20.806  0.00  0.00    +0.000 C 
ATOM      4  C   UNL     1       0.401  10.335  20.097  0.00  0.00    +0.000 C 
ATOM      5  C   UNL     1       0.307  10.105  18.588  0.00  0.00    +0.000 C 
ATOM      6  C   UNL     1       1.524   9.329  18.092  0.00  0.00    +0.000 C 
ENDROOT
BRANCH   4   7
ATOM      7  N   UNL     1      -0.728  11.114  20.576  0.00  0.00    +0.000 N 
ATOM      8  C   UNL     1      -0.710  12.489  20.677  0.00  0.00    +0.000 A 
ATOM      9  C   UNL     1       0.424  13.233  20.987  0.00  0.00    +0.000 A 
ATOM     10  C   UNL     1       0.316  14.611  21.185  0.00  0.00    +0.000 A 
ATOM     11  C   UNL     1      -0.925  15.216  21.071  0.00  0.00    +0.000 A 
ATOM     12  C   UNL     1      -2.000  14.414  20.741  0.00  0.00    +0.000 A 
ATOM     13  N   UNL     1      -1.916  13.077  20.542  0.00  0.00    +0.000 NA
ATOM     14  H   UNL     1      -1.650  10.830  20.260  0.00  0.00    +0.000 HD
ENDBRANCH   4   7
BRANCH   1  17
ATOM     15  O   UNL     1       2.302   5.240  18.274  0.00  0.00    +0.000 OA
ATOM     16  C   UNL     1       3.207   6.062  18.273  0.00  0.00    +0.000 C 
ATOM     17  N   UNL     1       3.050   7.423  18.460  0.00  0.00    +0.000 N 
ATOM     18  H   UNL     1       3.906   7.955  18.599  0.00  0.00    +0.000 HD
BRANCH  16  19
ATOM     19  C   UNL     1       4.633   5.559  18.088  0.00  0.00    +0.000 A 
ATOM     20  C   UNL     1       5.472   6.368  17.176  0.00  0.00    +0.000 A 
ATOM     21  C   UNL     1       6.693   5.907  16.897  0.00  0.00    +0.000 A 
ATOM     22  C   UNL     1       7.163   4.650  17.509  0.00  0.00    +0.000 A 
ATOM     23  O   UNL     1       8.268   4.197  17.235  0.00  0.00    +0.000 OA
ATOM     24  N   UNL     1       6.294   4.047  18.390  0.00  0.00    +0.000 N 
ATOM     25  N   UNL     1       5.016   4.466  18.682  0.00  0.00    +0.000 NA
ATOM     26  H   UNL     1       6.597   3.172  18.805  0.00  0.00    +0.000 HD
ENDBRANCH  16  19
ENDBRANCH   1  17
TORSDOF 3
ENDMDL
MODEL 6
REMARK VINA RESULT:      -7.9      7.297      9.241
REMARK  Name = 
REMARK  3 active torsions:
REMARK  status: ('A' for Active; 'I' for Inactive)
REMARK    1  A    between atoms: C_2  and  C_17
REMARK    2  A    between atoms: N_3  and  C_4
REMARK    3  A    between atoms: C_7  and  N_8
REMARK                            x       y       z     vdW  Elec       q    Type
REMARK                         _______ _______ _______ _____ _____    ______ ____
ROOT
ATOM      1  C   UNL     1       0.995   9.886  19.591  0.00  0.00    +0.000 C 
ATOM      2  C   UNL     1       0.912   8.629  20.481  0.00  0.00    +0.000 C 
ATOM      3  C   UNL     1       2.045   7.636  20.221  0.00  0.00    +0.000 C 
ATOM      4  C   UNL     1       2.111   7.275  18.732  0.00  0.00    +0.000 C 
ATOM      5  C   UNL     1       2.416   8.542  17.930  0.00  0.00    +0.000 C 
ATOM      6  C   UNL     1       1.303   9.569  18.115  0.00  0.00    +0.000 C 
ENDROOT
BRANCH   4   7
ATOM      7  N   UNL     1       3.138   6.270  18.528  0.00  0.00    +0.000 N 
ATOM      8  C   UNL     1       2.859   4.950  18.239  0.00  0.00    +0.000 A 
ATOM      9  C   UNL     1       1.748   4.265  18.719  0.00  0.00    +0.000 A 
ATOM     10  C   UNL     1       1.615   2.898  18.469  0.00  0.00    +0.000 A 
ATOM     11  C   UNL     1       2.599   2.243  17.747  0.00  0.00    +0.000 A 
ATOM     12  C   UNL     1       3.663   2.995  17.287  0.00  0.00    +0.000 A 
ATOM     13  N   UNL     1       3.808   4.322  17.515  0.00  0.00    +0.000 NA
ATOM     14  H   UNL     1       3.954   6.547  17.991  0.00  0.00    +0.000 HD
ENDBRANCH   4   7
BRANCH   1  17
ATOM     15  O   UNL     1       0.391  11.806  21.658  0.00  0.00    +0.000 OA
ATOM     16  C   UNL     1      -0.418  11.565  20.773  0.00  0.00    +0.000 C 
ATOM     17  N   UNL     1      -0.199  10.727  19.696  0.00  0.00    +0.000 N 
ATOM     18  H   UNL     1      -1.017  10.497  19.137  0.00  0.00    +0.000 HD
BRANCH  16  19
ATOM     19  C   UNL     1      -1.797  12.207  20.870  0.00  0.00    +0.000 A 
ATOM     20  C   UNL     1      -2.365  12.274  22.235  0.00  0.00    +0.000 A 
ATOM     21  C   UNL     1      -3.614  12.727  22.356  0.00  0.00    +0.000 A 
ATOM     22  C   UNL     1      -4.361  13.158  21.159  0.00  0.00    +0.000 A 
ATOM     23  O   UNL     1      -5.520  13.544  21.251  0.00  0.00    +0.000 OA
ATOM     24  N   UNL     1      -3.673  13.101  19.968  0.00  0.00    +0.000 N 
ATOM     25  N   UNL     1      -2.400  12.611  19.790  0.00  0.00    +0.000 NA
ATOM     26  H   UNL     1      -4.181  13.379  19.134  0.00  0.00    +0.000 HD
ENDBRANCH  16  19
ENDBRANCH   1  17
TORSDOF 3
ENDMDL
MODEL 7
REMARK VINA RESULT:      -7.9      1.757      2.209
REMARK  Name = 
REMARK  3 active torsions:
REMARK  status: ('A' for Active; 'I' for Inactive)
REMARK    1  A    between atoms: C_2  and  C_17
REMARK    2  A    between atoms: N_3  and  C_4
REMARK    3  A    between atoms: C_7  and  N_8
REMARK                            x       y       z     vdW  Elec       q    Type
REMARK                         _______ _______ _______ _____ _____    ______ ____
ROOT
ATOM      1  C   UNL     1       7.518   8.156  18.169  0.00  0.00    +0.000 C 
ATOM      2  C   UNL     1       6.591   7.644  17.047  0.00  0.00    +0.000 C 
ATOM      3  C   UNL     1       5.861   6.353  17.418  0.00  0.00    +0.000 C 
ATOM      4  C   UNL     1       6.862   5.280  17.864  0.00  0.00    +0.000 C 
ATOM      5  C   UNL     1       7.589   5.773  19.117  0.00  0.00    +0.000 C 
ATOM      6  C   UNL     1       8.372   7.046  18.810  0.00  0.00    +0.000 C 
ENDROOT
BRANCH   4   7
ATOM      7  N   UNL     1       6.150   4.043  18.129  0.00  0.00    +0.000 N 
ATOM      8  C   UNL     1       4.855   4.002  18.605  0.00  0.00    +0.000 A 
ATOM      9  C   UNL     1       4.314   4.944  19.473  0.00  0.00    +0.000 A 
ATOM     10  C   UNL     1       3.034   4.751  19.994  0.00  0.00    +0.000 A 
ATOM     11  C   UNL     1       2.322   3.617  19.639  0.00  0.00    +0.000 A 
ATOM     12  C   UNL     1       2.919   2.737  18.758  0.00  0.00    +0.000 A 
ATOM     13  N   UNL     1       4.157   2.908  18.238  0.00  0.00    +0.000 NA
ATOM     14  H   UNL     1       6.264   3.292  17.454  0.00  0.00    +0.000 HD
ENDBRANCH   4   7
BRANCH   1  17
ATOM     15  O   UNL     1       8.986   9.993  19.842  0.00  0.00    +0.000 OA
ATOM     16  C   UNL     1       8.968  10.133  18.627  0.00  0.00    +0.000 C 
ATOM     17  N   UNL     1       8.366   9.267  17.732  0.00  0.00    +0.000 N 
ATOM     18  H   UNL     1       8.291   9.600  16.774  0.00  0.00    +0.000 HD
BRANCH  16  19
ATOM     19  C   UNL     1       9.630  11.372  18.038  0.00  0.00    +0.000 A 
ATOM     20  C   UNL     1      11.110  11.371  18.070  0.00  0.00    +0.000 A 
ATOM     21  C   UNL     1      11.731  12.480  17.666  0.00  0.00    +0.000 A 
ATOM     22  C   UNL     1      10.945  13.634  17.191  0.00  0.00    +0.000 A 
ATOM     23  O   UNL     1      11.500  14.671  16.849  0.00  0.00    +0.000 OA
ATOM     24  N   UNL     1       9.580  13.458  17.154  0.00  0.00    +0.000 N 
ATOM     25  N   UNL     1       8.894  12.348  17.591  0.00  0.00    +0.000 NA
ATOM     26  H   UNL     1       9.025  14.250  16.845  0.00  0.00    +0.000 HD
ENDBRANCH  16  19
ENDBRANCH   1  17
TORSDOF 3
ENDMDL
MODEL 8
REMARK VINA RESULT:      -7.8      8.339     10.506
REMARK  Name = 
REMARK  3 active torsions:
REMARK  status: ('A' for Active; 'I' for Inactive)
REMARK    1  A    between atoms: C_2  and  C_17
REMARK    2  A    between atoms: N_3  and  C_4
REMARK    3  A    between atoms: C_7  and  N_8
REMARK                            x       y       z     vdW  Elec       q    Type
REMARK                         _______ _______ _______ _____ _____    ______ ____
ROOT
ATOM      1  C   UNL     1      -0.081  10.555  21.161  0.00  0.00    +0.000 C 
ATOM      2  C   UNL     1       0.192   9.458  22.212  0.00  0.00    +0.000 C 
ATOM      3  C   UNL     1       1.418   8.607  21.882  0.00  0.00    +0.000 C 
ATOM      4  C   UNL     1       1.303   8.025  20.468  0.00  0.00    +0.000 C 
ATOM      5  C   UNL     1       1.259   9.177  19.462  0.00  0.00    +0.000 C 
ATOM      6  C   UNL     1       0.035  10.052  19.710  0.00  0.00    +0.000 C 
ENDROOT
BRANCH   4   7
ATOM      7  N   UNL     1       2.438   7.155  20.215  0.00  0.00    +0.000 N 
ATOM      8  C   UNL     1       2.318   5.797  20.001  0.00  0.00    +0.000 A 
ATOM      9  C   UNL     1       1.352   4.996  20.601  0.00  0.00    +0.000 A 
ATOM     10  C   UNL     1       1.387   3.613  20.416  0.00  0.00    +0.000 A 
ATOM     11  C   UNL     1       2.390   3.059  19.637  0.00  0.00    +0.000 A 
ATOM     12  C   UNL     1       3.301   3.921  19.059  0.00  0.00    +0.000 A 
ATOM     13  N   UNL     1       3.283   5.266  19.223  0.00  0.00    +0.000 NA
ATOM     14  H   UNL     1       3.163   7.511  19.599  0.00  0.00    +0.000 HD
ENDBRANCH   4   7
BRANCH   1  17
ATOM     15  O   UNL     1      -0.746  12.441  23.241  0.00  0.00    +0.000 OA
ATOM     16  C   UNL     1      -1.595  12.060  22.448  0.00  0.00    +0.000 C 
ATOM     17  N   UNL     1      -1.366  11.225  21.371  0.00  0.00    +0.000 N 
ATOM     18  H   UNL     1      -2.193  10.865  20.902  0.00  0.00    +0.000 HD
BRANCH  16  19
ATOM     19  C   UNL     1      -3.035  12.506  22.672  0.00  0.00    +0.000 A 
ATOM     20  C   UNL     1      -3.502  12.446  24.075  0.00  0.00    +0.000 A 
ATOM     21  C   UNL     1      -4.786  12.722  24.305  0.00  0.00    +0.000 A 
ATOM     22  C   UNL     1      -5.672  13.092  23.186  0.00  0.00    +0.000 A 
ATOM     23  O   UNL     1      -6.861  13.315  23.377  0.00  0.00    +0.000 OA
ATOM     24  N   UNL     1      -5.075  13.173  21.948  0.00  0.00    +0.000 N 
ATOM     25  N   UNL     1      -3.766  12.865  21.657  0.00  0.00    +0.000 NA
ATOM     26  H   UNL     1      -5.677  13.411  21.165  0.00  0.00    +0.000 HD
ENDBRANCH  16  19
ENDBRANCH   1  17
TORSDOF 3
ENDMDL
MODEL 9
REMARK VINA RESULT:      -7.8      1.350      1.463
REMARK  Name = 
REMARK  3 active torsions:
REMARK  status: ('A' for Active; 'I' for Inactive)
REMARK    1  A    between atoms: C_2  and  C_17
REMARK    2  A    between atoms: N_3  and  C_4
REMARK    3  A    between atoms: C_7  and  N_8
REMARK                            x       y       z     vdW  Elec       q    Type
REMARK                         _______ _______ _______ _____ _____    ______ ____
ROOT
ATOM      1  C   UNL     1       6.674   7.041  16.978  0.00  0.00    +0.000 C 
ATOM      2  C   UNL     1       7.405   5.818  17.572  0.00  0.00    +0.000 C 
ATOM      3  C   UNL     1       6.572   4.538  17.514  0.00  0.00    +0.000 C 
ATOM      4  C   UNL     1       5.203   4.758  18.170  0.00  0.00    +0.000 C 
ATOM      5  C   UNL     1       4.448   5.834  17.387  0.00  0.00    +0.000 C 
ATOM      6  C   UNL     1       5.208   7.156  17.434  0.00  0.00    +0.000 C 
ENDROOT
BRANCH   4   7
ATOM      7  N   UNL     1       4.469   3.505  18.175  0.00  0.00    +0.000 N 
ATOM      8  C   UNL     1       3.212   3.367  18.726  0.00  0.00    +0.000 A 
ATOM      9  C   UNL     1       2.767   4.072  19.840  0.00  0.00    +0.000 A 
ATOM     10  C   UNL     1       1.522   3.776  20.396  0.00  0.00    +0.000 A 
ATOM     11  C   UNL     1       0.747   2.778  19.828  0.00  0.00    +0.000 A 
ATOM     12  C   UNL     1       1.248   2.136  18.712  0.00  0.00    +0.000 A 
ATOM     13  N   UNL     1       2.451   2.411  18.156  0.00  0.00    +0.000 NA
ATOM     14  H   UNL     1       4.508   2.945  17.329  0.00  0.00    +0.000 HD
ENDBRANCH   4   7
BRANCH   1  17
ATOM     15  O   UNL     1       8.630   7.559  19.035  0.00  0.00    +0.000 OA
ATOM     16  C   UNL     1       8.256   8.454  18.289  0.00  0.00    +0.000 C 
ATOM     17  N   UNL     1       7.388   8.295  17.225  0.00  0.00    +0.000 N 
ATOM     18  H   UNL     1       7.042   9.153  16.802  0.00  0.00    +0.000 HD
BRANCH  16  19
ATOM     19  C   UNL     1       8.750   9.868  18.563  0.00  0.00    +0.000 A 
ATOM     20  C   UNL     1       8.273  10.897  17.611  0.00  0.00    +0.000 A 
ATOM     21  C   UNL     1       8.765  12.129  17.745  0.00  0.00    +0.000 A 
ATOM     22  C   UNL     1       9.727  12.426  18.823  0.00  0.00    +0.000 A 
ATOM     23  O   UNL     1      10.213  13.544  18.937  0.00  0.00    +0.000 OA
ATOM     24  N   UNL     1      10.020  11.382  19.671  0.00  0.00    +0.000 N 
ATOM     25  N   UNL     1       9.565  10.089  19.553  0.00  0.00    +0.000 NA
ATOM     26  H   UNL     1      10.694  11.567  20.408  0.00  0.00    +0.000 HD
ENDBRANCH  16  19
ENDBRANCH   1  17
TORSDOF 3
ENDMDL
