MODEL 1
REMARK VINA RESULT:      -7.5      0.000      0.000
REMARK  Name = 
REMARK  4 active torsions:
REMARK  status: ('A' for Active; 'I' for Inactive)
REMARK    1  A    between atoms: C_2  and  OXT_3
REMARK    2  A    between atoms: C_2  and  CA_4
REMARK    3  A    between atoms: N_9  and  C_10
REMARK    4  A    between atoms: C_10  and  C_11
REMARK                            x       y       z     vdW  Elec       q    Type
REMARK                         _______ _______ _______ _____ _____    ______ ____
ROOT
ATOM      1  CA  UNL     1       6.742   5.226  14.916  0.00  0.00    +0.000 A 
ATOM      2  C   UNL     1       7.358   4.799  16.081  0.00  0.00    +0.000 A 
ATOM      3  C   UNL     1       6.657   5.036  17.269  0.00  0.00    +0.000 A 
ATOM      4  C   UNL     1       6.942   4.768  18.633  0.00  0.00    +0.000 A 
ATOM      5  C   UNL     1       5.869   5.200  19.375  0.00  0.00    +0.000 A 
ATOM      6  N   UNL     1       4.930   5.719  18.513  0.00  0.00    +0.000 N 
ATOM      7  C   UNL     1       5.405   5.660  17.213  0.00  0.00    +0.000 A 
ATOM      8  C   UNL     1       4.857   6.079  16.000  0.00  0.00    +0.000 A 
ATOM      9  N   UNL     1       5.536   5.860  14.847  0.00  0.00    +0.000 NA
ENDROOT
BRANCH   1  11
ATOM     10  O   UNL     1       7.040   4.195  12.756  0.00  0.00    +0.000 OA
ATOM     11  C   UNL     1       7.411   4.989  13.603  0.00  0.00    +0.000 C 
BRANCH  11  12
ATOM     12  OXT UNL     1       8.506   5.780  13.480  0.00  0.00    +0.000 OA
ATOM     13  HXT UNL     1       9.050   5.681  14.298  0.00  0.00    +0.000 HD
ENDBRANCH  11  12
ENDBRANCH   1  11
BRANCH   6  14
ATOM     14  C   UNL     1       3.604   6.161  18.943  0.00  0.00    +0.000 C 
BRANCH  14  15
ATOM     15  C   UNL     1       2.634   5.014  19.013  0.00  0.00    +0.000 A 
ATOM     16  C   UNL     1       2.042   4.485  17.855  0.00  0.00    +0.000 A 
ATOM     17  C   UNL     1       1.204   3.369  17.933  0.00  0.00    +0.000 A 
ATOM     18  C   UNL     1       0.951   2.765  19.166  0.00  0.00    +0.000 A 
ATOM     19  C   UNL     1       1.513   3.300  20.324  0.00  0.00    +0.000 A 
ATOM     20 CL   UNL     1       1.194   2.558  21.845  0.00  0.00    +0.000 Cl
ATOM     21  C   UNL     1       2.335   4.421  20.244  0.00  0.00    +0.000 A 
ATOM     22  F   UNL     1       2.848   4.954  21.363  0.00  0.00    +0.000 F 
ENDBRANCH  14  15
ENDBRANCH   6  14
TORSDOF 4
ENDMDL
MODEL 2
REMARK VINA RESULT:      -7.5      2.923      3.933
REMARK  Name = 
REMARK  4 active torsions:
REMARK  status: ('A' for Active; 'I' for Inactive)
REMARK    1  A    between atoms: C_2  and  OXT_3
REMARK    2  A    between atoms: C_2  and  CA_4
REMARK    3  A    between atoms: N_9  and  C_10
REMARK    4  A    between atoms: C_10  and  C_11
REMARK                            x       y       z     vdW  Elec       q    Type
REMARK                         _______ _______ _______ _____ _____    ______ ____
ROOT
ATOM      1  CA  UNL     1       5.812   4.763  16.047  0.00  0.00    +0.000 A 
ATOM      2  C   UNL     1       4.646   4.016  16.023  0.00  0.00    +0.000 A 
ATOM      3  C   UNL     1       3.746   4.248  17.070  0.00  0.00    +0.000 A 
ATOM      4  C   UNL     1       2.481   3.696  17.401  0.00  0.00    +0.000 A 
ATOM      5  C   UNL     1       2.037   4.328  18.538  0.00  0.00    +0.000 A 
ATOM      6  N   UNL     1       2.982   5.255  18.913  0.00  0.00    +0.000 N 
ATOM      7  C   UNL     1       4.060   5.203  18.045  0.00  0.00    +0.000 A 
ATOM      8  C   UNL     1       5.267   5.904  18.011  0.00  0.00    +0.000 A 
ATOM      9  N   UNL     1       6.145   5.677  17.005  0.00  0.00    +0.000 NA
ENDROOT
BRANCH   1  11
ATOM     10  O   UNL     1       7.791   5.303  14.779  0.00  0.00    +0.000 OA
ATOM     11  C   UNL     1       6.814   4.594  14.955  0.00  0.00    +0.000 C 
BRANCH  11  12
ATOM     12  OXT UNL     1       6.487   3.539  14.169  0.00  0.00    +0.000 OA
ATOM     13  HXT UNL     1       7.323   3.098  13.883  0.00  0.00    +0.000 HD
ENDBRANCH  11  12
ENDBRANCH   1  11
BRANCH   6  14
ATOM     14  C   UNL     1       2.787   6.199  20.013  0.00  0.00    +0.000 C 
BRANCH  14  15
ATOM     15  C   UNL     1       2.190   7.493  19.532  0.00  0.00    +0.000 A 
ATOM     16  C   UNL     1       2.316   7.905  18.195  0.00  0.00    +0.000 A 
ATOM     17  C   UNL     1       1.686   9.070  17.750  0.00  0.00    +0.000 A 
ATOM     18  C   UNL     1       0.920   9.836  18.631  0.00  0.00    +0.000 A 
ATOM     19  C   UNL     1       0.811   9.449  19.965  0.00  0.00    +0.000 A 
ATOM     20 CL   UNL     1      -0.129  10.398  21.051  0.00  0.00    +0.000 Cl
ATOM     21  C   UNL     1       1.452   8.295  20.409  0.00  0.00    +0.000 A 
ATOM     22  F   UNL     1       1.374   7.943  21.701  0.00  0.00    +0.000 F 
ENDBRANCH  14  15
ENDBRANCH   6  14
TORSDOF 4
ENDMDL
MODEL 3
REMARK VINA RESULT:      -7.5      3.210      4.350
REMARK  Name = 
REMARK  4 active torsions:
REMARK  status: ('A' for Active; 'I' for Inactive)
REMARK    1  A    between atoms: C_2  and  OXT_3
REMARK    2  A    between atoms: C_2  and  CA_4
REMARK    3  A    between atoms: N_9  and  C_10
REMARK    4  A    between atoms: C_10  and  C_11
REMARK                            x       y       z     vdW  Elec       q    Type
REMARK                         _______ _______ _______ _____ _____    ______ ____
ROOT
ATOM      1  CA  UNL     1       6.053   4.704  17.319  0.00  0.00    +0.000 A 
ATOM      2  C   UNL     1       4.897   4.087  16.869  0.00  0.00    +0.000 A 
ATOM      3  C   UNL     1       3.735   4.351  17.604  0.00  0.00    +0.000 A 
ATOM      4  C   UNL     1       2.389   3.917  17.479  0.00  0.00    +0.000 A 
ATOM      5  C   UNL     1       1.662   4.523  18.475  0.00  0.00    +0.000 A 
ATOM      6  N   UNL     1       2.513   5.321  19.205  0.00  0.00    +0.000 N 
ATOM      7  C   UNL     1       3.802   5.207  18.710  0.00  0.00    +0.000 A 
ATOM      8  C   UNL     1       5.011   5.777  19.113  0.00  0.00    +0.000 A 
ATOM      9  N   UNL     1       6.141   5.519  18.410  0.00  0.00    +0.000 NA
ENDROOT
BRANCH   1  11
ATOM     10  O   UNL     1       7.498   4.708  15.388  0.00  0.00    +0.000 OA
ATOM     11  C   UNL     1       7.331   4.496  16.577  0.00  0.00    +0.000 C 
BRANCH  11  12
ATOM     12  OXT UNL     1       8.291   4.025  17.410  0.00  0.00    +0.000 OA
ATOM     13  HXT UNL     1       8.252   3.038  17.398  0.00  0.00    +0.000 HD
ENDBRANCH  11  12
ENDBRANCH   1  11
BRANCH   6  14
ATOM     14  C   UNL     1       2.060   6.213  20.271  0.00  0.00    +0.000 C 
BRANCH  14  15
ATOM     15  C   UNL     1       1.812   7.605  19.759  0.00  0.00    +0.000 A 
ATOM     16  C   UNL     1       2.125   7.966  18.439  0.00  0.00    +0.000 A 
ATOM     17  C   UNL     1       1.814   9.242  17.959  0.00  0.00    +0.000 A 
ATOM     18  C   UNL     1       1.184  10.170  18.789  0.00  0.00    +0.000 A 
ATOM     19  C   UNL     1       0.893   9.830  20.109  0.00  0.00    +0.000 A 
ATOM     20 CL   UNL     1       0.122  10.979  21.133  0.00  0.00    +0.000 Cl
ATOM     21  C   UNL     1       1.218   8.563  20.588  0.00  0.00    +0.000 A 
ATOM     22  F   UNL     1       0.968   8.249  21.868  0.00  0.00    +0.000 F 
ENDBRANCH  14  15
ENDBRANCH   6  14
TORSDOF 4
ENDMDL
MODEL 4
REMARK VINA RESULT:      -7.2      5.462      7.156
REMARK  Name = 
REMARK  4 active torsions:
REMARK  status: ('A' for Active; 'I' for Inactive)
REMARK    1  A    between atoms: C_2  and  OXT_3
REMARK    2  A    between atoms: C_2  and  CA_4
REMARK    3  A    between atoms: N_9  and  C_10
REMARK    4  A    between atoms: C_10  and  C_11
REMARK                            x       y       z     vdW  Elec       q    Type
REMARK                         _______ _______ _______ _____ _____    ______ ____
ROOT
ATOM      1  CA  UNL     1       0.147   9.903  21.300  0.00  0.00    +0.000 A 
ATOM      2  C   UNL     1       0.237  10.148  19.940  0.00  0.00    +0.000 A 
ATOM      3  C   UNL     1       1.101   9.313  19.222  0.00  0.00    +0.000 A 
ATOM      4  C   UNL     1       1.469   9.245  17.853  0.00  0.00    +0.000 A 
ATOM      5  C   UNL     1       2.345   8.196  17.708  0.00  0.00    +0.000 A 
ATOM      6  N   UNL     1       2.523   7.611  18.941  0.00  0.00    +0.000 N 
ATOM      7  C   UNL     1       1.794   8.300  19.896  0.00  0.00    +0.000 A 
ATOM      8  C   UNL     1       1.664   8.128  21.275  0.00  0.00    +0.000 A 
ATOM      9  N   UNL     1       0.835   8.939  21.977  0.00  0.00    +0.000 NA
ENDROOT
BRANCH   1  11
ATOM     10  O   UNL     1      -1.544  11.574  21.709  0.00  0.00    +0.000 OA
ATOM     11  C   UNL     1      -0.770  10.733  22.135  0.00  0.00    +0.000 C 
BRANCH  11  12
ATOM     12  OXT UNL     1      -0.623  10.429  23.448  0.00  0.00    +0.000 OA
ATOM     13  HXT UNL     1       0.213   9.913  23.551  0.00  0.00    +0.000 HD
ENDBRANCH  11  12
ENDBRANCH   1  11
BRANCH   6  14
ATOM     14  C   UNL     1       3.296   6.386  19.144  0.00  0.00    +0.000 C 
BRANCH  14  15
ATOM     15  C   UNL     1       2.412   5.170  19.158  0.00  0.00    +0.000 A 
ATOM     16  C   UNL     1       1.871   4.645  17.973  0.00  0.00    +0.000 A 
ATOM     17  C   UNL     1       1.117   3.468  17.998  0.00  0.00    +0.000 A 
ATOM     18  C   UNL     1       0.898   2.799  19.204  0.00  0.00    +0.000 A 
ATOM     19  C   UNL     1       1.409   3.326  20.388  0.00  0.00    +0.000 A 
ATOM     20 CL   UNL     1       1.133   2.503  21.875  0.00  0.00    +0.000 Cl
ATOM     21  C   UNL     1       2.147   4.508  20.361  0.00  0.00    +0.000 A 
ATOM     22  F   UNL     1       2.610   5.032  21.506  0.00  0.00    +0.000 F 
ENDBRANCH  14  15
ENDBRANCH   6  14
TORSDOF 4
ENDMDL
MODEL 5
REMARK VINA RESULT:      -7.1      4.328      6.872
REMARK  Name = 
REMARK  4 active torsions:
REMARK  status: ('A' for Active; 'I' for Inactive)
REMARK    1  A    between atoms: C_2  and  OXT_3
REMARK    2  A    between atoms: C_2  and  CA_4
REMARK    3  A    between atoms: N_9  and  C_10
REMARK    4  A    between atoms: C_10  and  C_11
REMARK                            x       y       z     vdW  Elec       q    Type
REMARK                         _______ _______ _______ _____ _____    ______ ____
ROOT
ATOM      1  CA  UNL     1       2.402   3.900  18.600  0.00  0.00    +0.000 A 
ATOM      2  C   UNL     1       2.476   5.218  18.180  0.00  0.00    +0.000 A 
ATOM      3  C   UNL     1       3.681   5.605  17.582  0.00  0.00    +0.000 A 
ATOM      4  C   UNL     1       4.146   6.833  17.043  0.00  0.00    +0.000 A 
ATOM      5  C   UNL     1       5.415   6.623  16.560  0.00  0.00    +0.000 A 
ATOM      6  N   UNL     1       5.745   5.304  16.777  0.00  0.00    +0.000 N 
ATOM      7  C   UNL     1       4.708   4.664  17.435  0.00  0.00    +0.000 A 
ATOM      8  C   UNL     1       4.564   3.356  17.902  0.00  0.00    +0.000 A 
ATOM      9  N   UNL     1       3.402   2.978  18.489  0.00  0.00    +0.000 NA
ENDROOT
BRANCH   1  11
ATOM     10  O   UNL     1       0.499   2.438  18.841  0.00  0.00    +0.000 OA
ATOM     11  C   UNL     1       1.143   3.400  19.226  0.00  0.00    +0.000 C 
BRANCH  11  12
ATOM     12  OXT UNL     1       0.802   4.170  20.288  0.00  0.00    +0.000 OA
ATOM     13  HXT UNL     1       1.496   4.059  20.982  0.00  0.00    +0.000 HD
ENDBRANCH  11  12
ENDBRANCH   1  11
BRANCH   6  14
ATOM     14  C   UNL     1       6.977   4.693  16.280  0.00  0.00    +0.000 C 
BRANCH  14  15
ATOM     15  C   UNL     1       7.025   4.688  14.777  0.00  0.00    +0.000 A 
ATOM     16  C   UNL     1       7.892   5.536  14.069  0.00  0.00    +0.000 A 
ATOM     17  C   UNL     1       7.978   5.460  12.676  0.00  0.00    +0.000 A 
ATOM     18  C   UNL     1       7.205   4.534  11.973  0.00  0.00    +0.000 A 
ATOM     19  C   UNL     1       6.323   3.706  12.665  0.00  0.00    +0.000 A 
ATOM     20 CL   UNL     1       5.366   2.569  11.795  0.00  0.00    +0.000 Cl
ATOM     21  C   UNL     1       6.228   3.795  14.052  0.00  0.00    +0.000 A 
ATOM     22  F   UNL     1       5.354   3.021  14.712  0.00  0.00    +0.000 F 
ENDBRANCH  14  15
ENDBRANCH   6  14
TORSDOF 4
ENDMDL
MODEL 6
REMARK VINA RESULT:      -7.1      1.577      2.165
REMARK  Name = 
REMARK  4 active torsions:
REMARK  status: ('A' for Active; 'I' for Inactive)
REMARK    1  A    between atoms: C_2  and  OXT_3
REMARK    2  A    between atoms: C_2  and  CA_4
REMARK    3  A    between atoms: N_9  and  C_10
REMARK    4  A    between atoms: C_10  and  C_11
REMARK                            x       y       z     vdW  Elec       q    Type
REMARK                         _______ _______ _______ _____ _____    ______ ____
ROOT
ATOM      1  CA  UNL     1       7.108   4.941  14.247  0.00  0.00    +0.000 A 
ATOM      2  C   UNL     1       6.010   4.098  14.304  0.00  0.00    +0.000 A 
ATOM      3  C   UNL     1       5.417   3.946  15.563  0.00  0.00    +0.000 A 
ATOM      4  C   UNL     1       4.313   3.187  16.030  0.00  0.00    +0.000 A 
ATOM      5  C   UNL     1       4.167   3.445  17.372  0.00  0.00    +0.000 A 
ATOM      6  N   UNL     1       5.140   4.344  17.745  0.00  0.00    +0.000 N 
ATOM      7  C   UNL     1       5.943   4.643  16.658  0.00  0.00    +0.000 A 
ATOM      8  C   UNL     1       7.067   5.461  16.524  0.00  0.00    +0.000 A 
ATOM      9  N   UNL     1       7.649   5.606  15.309  0.00  0.00    +0.000 NA
ENDROOT
BRANCH   1  11
ATOM     10  O   UNL     1       7.458   4.673  11.876  0.00  0.00    +0.000 OA
ATOM     11  C   UNL     1       7.783   5.178  12.938  0.00  0.00    +0.000 C 
BRANCH  11  12
ATOM     12  OXT UNL     1       8.824   6.033  13.088  0.00  0.00    +0.000 OA
ATOM     13  HXT UNL     1       8.804   6.382  14.013  0.00  0.00    +0.000 HD
ENDBRANCH  11  12
ENDBRANCH   1  11
BRANCH   6  14
ATOM     14  C   UNL     1       5.211   4.941  19.078  0.00  0.00    +0.000 C 
BRANCH  14  15
ATOM     15  C   UNL     1       3.850   5.052  19.709  0.00  0.00    +0.000 A 
ATOM     16  C   UNL     1       3.084   6.224  19.595  0.00  0.00    +0.000 A 
ATOM     17  C   UNL     1       1.790   6.280  20.120  0.00  0.00    +0.000 A 
ATOM     18  C   UNL     1       1.243   5.167  20.760  0.00  0.00    +0.000 A 
ATOM     19  C   UNL     1       2.004   4.008  20.900  0.00  0.00    +0.000 A 
ATOM     20 CL   UNL     1       1.330   2.638  21.696  0.00  0.00    +0.000 Cl
ATOM     21  C   UNL     1       3.300   3.961  20.390  0.00  0.00    +0.000 A 
ATOM     22  F   UNL     1       4.043   2.857  20.556  0.00  0.00    +0.000 F 
ENDBRANCH  14  15
ENDBRANCH   6  14
TORSDOF 4
ENDMDL
MODEL 7
REMARK VINA RESULT:      -6.9      1.810      2.498
REMARK  Name = 
REMARK  4 active torsions:
REMARK  status: ('A' for Active; 'I' for Inactive)
REMARK    1  A    between atoms: C_2  and  OXT_3
REMARK    2  A    between atoms: C_2  and  CA_4
REMARK    3  A    between atoms: N_9  and  C_10
REMARK    4  A    between atoms: C_10  and  C_11
REMARK                            x       y       z     vdW  Elec       q    Type
REMARK                         _______ _______ _______ _____ _____    ______ ____
ROOT
ATOM      1  CA  UNL     1       6.144   4.251  14.058  0.00  0.00    +0.000 A 
ATOM      2  C   UNL     1       5.730   5.558  14.255  0.00  0.00    +0.000 A 
ATOM      3  C   UNL     1       5.305   5.879  15.550  0.00  0.00    +0.000 A 
ATOM      4  C   UNL     1       4.811   7.070  16.142  0.00  0.00    +0.000 A 
ATOM      5  C   UNL     1       4.573   6.809  17.470  0.00  0.00    +0.000 A 
ATOM      6  N   UNL     1       4.911   5.498  17.717  0.00  0.00    +0.000 N 
ATOM      7  C   UNL     1       5.333   4.894  16.545  0.00  0.00    +0.000 A 
ATOM      8  C   UNL     1       5.746   3.590  16.262  0.00  0.00    +0.000 A 
ATOM      9  N   UNL     1       6.151   3.273  15.009  0.00  0.00    +0.000 NA
ENDROOT
BRANCH   1  11
ATOM     10  O   UNL     1       7.384   4.485  12.002  0.00  0.00    +0.000 OA
ATOM     11  C   UNL     1       6.636   3.834  12.712  0.00  0.00    +0.000 C 
BRANCH  11  12
ATOM     12  OXT UNL     1       6.129   2.622  12.377  0.00  0.00    +0.000 OA
ATOM     13  HXT UNL     1       6.807   2.142  11.842  0.00  0.00    +0.000 HD
ENDBRANCH  11  12
ENDBRANCH   1  11
BRANCH   6  14
ATOM     14  C   UNL     1       4.903   4.906  19.054  0.00  0.00    +0.000 C 
BRANCH  14  15
ATOM     15  C   UNL     1       3.504   4.618  19.525  0.00  0.00    +0.000 A 
ATOM     16  C   UNL     1       2.844   5.472  20.424  0.00  0.00    +0.000 A 
ATOM     17  C   UNL     1       1.516   5.230  20.787  0.00  0.00    +0.000 A 
ATOM     18  C   UNL     1       0.830   4.137  20.255  0.00  0.00    +0.000 A 
ATOM     19  C   UNL     1       1.485   3.270  19.383  0.00  0.00    +0.000 A 
ATOM     20 CL   UNL     1       0.639   1.918  18.732  0.00  0.00    +0.000 Cl
ATOM     21  C   UNL     1       2.813   3.505  19.034  0.00  0.00    +0.000 A 
ATOM     22  F   UNL     1       3.452   2.651  18.221  0.00  0.00    +0.000 F 
ENDBRANCH  14  15
ENDBRANCH   6  14
TORSDOF 4
ENDMDL
MODEL 8
REMARK VINA RESULT:      -6.9      4.241      6.347
REMARK  Name = 
REMARK  4 active torsions:
REMARK  status: ('A' for Active; 'I' for Inactive)
REMARK    1  A    between atoms: C_2  and  OXT_3
REMARK    2  A    between atoms: C_2  and  CA_4
REMARK    3  A    between atoms: N_9  and  C_10
REMARK    4  A    between atoms: C_10  and  C_11
REMARK                            x       y       z     vdW  Elec       q    Type
REMARK                         _______ _______ _______ _____ _____    ______ ____
ROOT
ATOM      1  CA  UNL     1       1.762   7.310  20.126  0.00  0.00    +0.000 A 
ATOM      2  C   UNL     1       1.579   6.144  20.851  0.00  0.00    +0.000 A 
ATOM      3  C   UNL     1       1.989   4.961  20.226  0.00  0.00    +0.000 A 
ATOM      4  C   UNL     1       1.964   3.597  20.619  0.00  0.00    +0.000 A 
ATOM      5  C   UNL     1       2.529   2.861  19.605  0.00  0.00    +0.000 A 
ATOM      6  N   UNL     1       2.907   3.727  18.604  0.00  0.00    +0.000 N 
ATOM      7  C   UNL     1       2.556   5.022  18.947  0.00  0.00    +0.000 A 
ATOM      8  C   UNL     1       2.690   6.236  18.271  0.00  0.00    +0.000 A 
ATOM      9  N   UNL     1       2.287   7.384  18.869  0.00  0.00    +0.000 NA
ENDROOT
BRANCH   1  11
ATOM     10  O   UNL     1       0.830   9.534  20.137  0.00  0.00    +0.000 OA
ATOM     11  C   UNL     1       1.374   8.618  20.730  0.00  0.00    +0.000 C 
BRANCH  11  12
ATOM     12  OXT UNL     1       1.717   8.655  22.041  0.00  0.00    +0.000 OA
ATOM     13  HXT UNL     1       1.302   9.456  22.444  0.00  0.00    +0.000 HD
ENDBRANCH  11  12
ENDBRANCH   1  11
BRANCH   6  14
ATOM     14  C   UNL     1       3.655   3.306  17.420  0.00  0.00    +0.000 C 
BRANCH  14  15
ATOM     15  C   UNL     1       4.854   4.183  17.182  0.00  0.00    +0.000 A 
ATOM     16  C   UNL     1       5.068   4.809  15.943  0.00  0.00    +0.000 A 
ATOM     17  C   UNL     1       6.145   5.682  15.766  0.00  0.00    +0.000 A 
ATOM     18  C   UNL     1       7.017   5.945  16.824  0.00  0.00    +0.000 A 
ATOM     19  C   UNL     1       6.828   5.308  18.048  0.00  0.00    +0.000 A 
ATOM     20 CL   UNL     1       7.910   5.628  19.350  0.00  0.00    +0.000 Cl
ATOM     21  C   UNL     1       5.763   4.426  18.217  0.00  0.00    +0.000 A 
ATOM     22  F   UNL     1       5.602   3.788  19.386  0.00  0.00    +0.000 F 
ENDBRANCH  14  15
ENDBRANCH   6  14
TORSDOF 4
ENDMDL
MODEL 9
REMARK VINA RESULT:      -6.9      2.456      3.077
REMARK  Name = 
REMARK  4 active torsions:
REMARK  status: ('A' for Active; 'I' for Inactive)
REMARK    1  A    between atoms: C_2  and  OXT_3
REMARK    2  A    between atoms: C_2  and  CA_4
REMARK    3  A    between atoms: N_9  and  C_10
REMARK    4  A    between atoms: C_10  and  C_11
REMARK                            x       y       z     vdW  Elec       q    Type
REMARK                         _______ _______ _______ _____ _____    ______ ____
ROOT
ATOM      1  CA  UNL     1       7.073   4.901  14.386  0.00  0.00    +0.000 A 
ATOM      2  C   UNL     1       6.013   4.011  14.450  0.00  0.00    +0.000 A 
ATOM      3  C   UNL     1       5.407   3.866  15.703  0.00  0.00    +0.000 A 
ATOM      4  C   UNL     1       4.330   3.070  16.174  0.00  0.00    +0.000 A 
ATOM      5  C   UNL     1       4.150   3.358  17.505  0.00  0.00    +0.000 A 
ATOM      6  N   UNL     1       5.076   4.310  17.869  0.00  0.00    +0.000 N 
ATOM      7  C   UNL     1       5.883   4.615  16.786  0.00  0.00    +0.000 A 
ATOM      8  C   UNL     1       6.971   5.480  16.647  0.00  0.00    +0.000 A 
ATOM      9  N   UNL     1       7.566   5.618  15.437  0.00  0.00    +0.000 NA
ENDROOT
BRANCH   1  11
ATOM     10  O   UNL     1       7.440   4.626  12.018  0.00  0.00    +0.000 OA
ATOM     11  C   UNL     1       7.759   5.132  13.081  0.00  0.00    +0.000 C 
BRANCH  11  12
ATOM     12  OXT UNL     1       8.801   5.985  13.238  0.00  0.00    +0.000 OA
ATOM     13  HXT UNL     1       9.600   5.570  12.831  0.00  0.00    +0.000 HD
ENDBRANCH  11  12
ENDBRANCH   1  11
BRANCH   6  14
ATOM     14  C   UNL     1       5.098   4.945  19.186  0.00  0.00    +0.000 C 
BRANCH  14  15
ATOM     15  C   UNL     1       3.784   5.605  19.505  0.00  0.00    +0.000 A 
ATOM     16  C   UNL     1       2.926   5.087  20.488  0.00  0.00    +0.000 A 
ATOM     17  C   UNL     1       1.747   5.759  20.825  0.00  0.00    +0.000 A 
ATOM     18  C   UNL     1       1.413   6.956  20.189  0.00  0.00    +0.000 A 
ATOM     19  C   UNL     1       2.246   7.463  19.193  0.00  0.00    +0.000 A 
ATOM     20 CL   UNL     1       1.829   8.935  18.404  0.00  0.00    +0.000 Cl
ATOM     21  C   UNL     1       3.412   6.783  18.849  0.00  0.00    +0.000 A 
ATOM     22  F   UNL     1       4.195   7.255  17.867  0.00  0.00    +0.000 F 
ENDBRANCH  14  15
ENDBRANCH   6  14
TORSDOF 4
ENDMDL
