MODEL 1
REMARK VINA RESULT:      -7.4      0.000      0.000
REMARK  Name = 
REMARK  7 active torsions:
REMARK  status: ('A' for Active; 'I' for Inactive)
REMARK    1  A    between atoms: C_1  and  O_2
REMARK    2  A    between atoms: O_2  and  C_3
REMARK    3  A    between atoms: C_3  and  C_5
REMARK    4  A    between atoms: C_5  and  S_6
REMARK    5  A    between atoms: S_6  and  C_7
REMARK    6  A    between atoms: N_16  and  C_17
REMARK    7  A    between atoms: N_25  and  C_26
REMARK                            x       y       z     vdW  Elec       q    Type
REMARK                         _______ _______ _______ _____ _____    ______ ____
ROOT
ATOM      1  C   UNL     1       3.780   5.245  19.301  0.00  0.00    +0.000 A 
ATOM      2  N   UNL     1       2.990   5.638  20.254  0.00  0.00    +0.000 NA
ATOM      3  C   UNL     1       2.340   6.795  20.016  0.00  0.00    +0.000 A 
ATOM      4  S   UNL     1       1.222   7.434  21.136  0.00  0.00    +0.000 S 
ATOM      5  C   UNL     1       0.890   8.763  20.131  0.00  0.00    +0.000 A 
ATOM      6  C   UNL     1       1.587   8.714  18.938  0.00  0.00    +0.000 A 
ATOM      7  C   UNL     1       2.451   7.581  18.891  0.00  0.00    +0.000 A 
ATOM      8  C   UNL     1       3.385   7.182  17.859  0.00  0.00    +0.000 A 
ATOM      9  O   UNL     1       3.586   7.904  16.883  0.00  0.00    +0.000 OA
ATOM     10  N   UNL     1       4.031   5.958  18.112  0.00  0.00    +0.000 N 
ATOM     11  C   UNL     1       1.431   9.797  17.910  0.00  0.00    +0.000 C 
ATOM     12  C   UNL     1       0.248  10.728  18.267  0.00  0.00    +0.000 C 
ATOM     13  N   UNL     1       0.146  11.080  19.704  0.00  0.00    +0.000 NA
ATOM     14  C   UNL     1       1.332  11.812  20.161  0.00  0.00    +0.000 C 
ATOM     15  C   UNL     1      -0.068   9.854  20.513  0.00  0.00    +0.000 C 
ENDROOT
BRANCH  10  16
ATOM     16  C   UNL     1       4.965   5.520  17.127  0.00  0.00    +0.000 A 
ATOM     17  C   UNL     1       4.579   4.642  16.109  0.00  0.00    +0.000 A 
ATOM     18  C   UNL     1       5.491   4.268  15.122  0.00  0.00    +0.000 A 
ATOM     19  C   UNL     1       6.798   4.750  15.162  0.00  0.00    +0.000 A 
ATOM     20  C   UNL     1       7.206   5.581  16.204  0.00  0.00    +0.000 A 
ATOM     21  C   UNL     1       6.295   5.958  17.190  0.00  0.00    +0.000 A 
ENDBRANCH  10  16
BRANCH   1  22
ATOM     22  S   UNL     1       4.534   3.657  19.544  0.00  0.00    +0.000 S 
BRANCH  22  23
ATOM     23  C   UNL     1       3.060   2.583  19.535  0.00  0.00    +0.000 C 
BRANCH  23  24
ATOM     24  C   UNL     1       2.325   2.617  20.862  0.00  0.00    +0.000 C 
ATOM     25  O   UNL     1       2.830   2.491  21.969  0.00  0.00    +0.000 OA
BRANCH  24  27
ATOM     26  C   UNL     1       0.643   2.872  19.264  0.00  0.00    +0.000 C 
ATOM     27  O   UNL     1       0.990   2.835  20.650  0.00  0.00    +0.000 OA
ENDBRANCH  24  27
ENDBRANCH  23  24
ENDBRANCH  22  23
ENDBRANCH   1  22
TORSDOF 5
ENDMDL
MODEL 2
REMARK VINA RESULT:      -7.4      0.867      1.442
REMARK  Name = 
REMARK  7 active torsions:
REMARK  status: ('A' for Active; 'I' for Inactive)
REMARK    1  A    between atoms: C_1  and  O_2
REMARK    2  A    between atoms: O_2  and  C_3
REMARK    3  A    between atoms: C_3  and  C_5
REMARK    4  A    between atoms: C_5  and  S_6
REMARK    5  A    between atoms: S_6  and  C_7
REMARK    6  A    between atoms: N_16  and  C_17
REMARK    7  A    between atoms: N_25  and  C_26
REMARK                            x       y       z     vdW  Elec       q    Type
REMARK                         _______ _______ _______ _____ _____    ______ ____
ROOT
ATOM      1  C   UNL     1       3.876   5.131  19.089  0.00  0.00    +0.000 A 
ATOM      2  N   UNL     1       3.091   5.487  20.062  0.00  0.00    +0.000 NA
ATOM      3  C   UNL     1       2.444   6.654  19.874  0.00  0.00    +0.000 A 
ATOM      4  S   UNL     1       1.333   7.250  21.026  0.00  0.00    +0.000 S 
ATOM      5  C   UNL     1       0.999   8.620  20.077  0.00  0.00    +0.000 A 
ATOM      6  C   UNL     1       1.690   8.618  18.880  0.00  0.00    +0.000 A 
ATOM      7  C   UNL     1       2.550   7.486  18.782  0.00  0.00    +0.000 A 
ATOM      8  C   UNL     1       3.477   7.127  17.729  0.00  0.00    +0.000 A 
ATOM      9  O   UNL     1       3.675   7.887  16.783  0.00  0.00    +0.000 OA
ATOM     10  N   UNL     1       4.122   5.892  17.928  0.00  0.00    +0.000 N 
ATOM     11  C   UNL     1       1.531   9.742  17.898  0.00  0.00    +0.000 C 
ATOM     12  C   UNL     1       0.352  10.661  18.299  0.00  0.00    +0.000 C 
ATOM     13  N   UNL     1       0.259  10.954  19.750  0.00  0.00    +0.000 NA
ATOM     14  C   UNL     1       1.449  11.664  20.229  0.00  0.00    +0.000 C 
ATOM     15  C   UNL     1       0.046   9.697  20.509  0.00  0.00    +0.000 C 
ENDROOT
BRANCH  10  16
ATOM     16  C   UNL     1       5.050   5.492  16.922  0.00  0.00    +0.000 A 
ATOM     17  C   UNL     1       6.388   5.898  16.976  0.00  0.00    +0.000 A 
ATOM     18  C   UNL     1       7.295   5.453  16.014  0.00  0.00    +0.000 A 
ATOM     19  C   UNL     1       6.865   4.621  14.982  0.00  0.00    +0.000 A 
ATOM     20  C   UNL     1       5.522   4.257  14.891  0.00  0.00    +0.000 A 
ATOM     21  C   UNL     1       4.614   4.699  15.852  0.00  0.00    +0.000 A 
ENDBRANCH  10  16
BRANCH   1  22
ATOM     22  S   UNL     1       4.627   3.534  19.263  0.00  0.00    +0.000 S 
BRANCH  22  23
ATOM     23  C   UNL     1       3.157   2.510  19.605  0.00  0.00    +0.000 C 
BRANCH  23  24
ATOM     24  C   UNL     1       2.124   2.610  18.497  0.00  0.00    +0.000 C 
ATOM     25  O   UNL     1       2.335   2.462  17.302  0.00  0.00    +0.000 OA
BRANCH  24  27
ATOM     26  C   UNL     1       0.907   2.956  20.459  0.00  0.00    +0.000 C 
ATOM     27  O   UNL     1       0.891   2.871  19.032  0.00  0.00    +0.000 OA
ENDBRANCH  24  27
ENDBRANCH  23  24
ENDBRANCH  22  23
ENDBRANCH   1  22
TORSDOF 5
ENDMDL
MODEL 3
REMARK VINA RESULT:      -7.3      2.445      4.623
REMARK  Name = 
REMARK  7 active torsions:
REMARK  status: ('A' for Active; 'I' for Inactive)
REMARK    1  A    between atoms: C_1  and  O_2
REMARK    2  A    between atoms: O_2  and  C_3
REMARK    3  A    between atoms: C_3  and  C_5
REMARK    4  A    between atoms: C_5  and  S_6
REMARK    5  A    between atoms: S_6  and  C_7
REMARK    6  A    between atoms: N_16  and  C_17
REMARK    7  A    between atoms: N_25  and  C_26
REMARK                            x       y       z     vdW  Elec       q    Type
REMARK                         _______ _______ _______ _____ _____    ______ ____
ROOT
ATOM      1  C   UNL     1       2.702   6.722  18.395  0.00  0.00    +0.000 A 
ATOM      2  N   UNL     1       2.756   7.903  17.856  0.00  0.00    +0.000 NA
ATOM      3  C   UNL     1       2.105   8.870  18.533  0.00  0.00    +0.000 A 
ATOM      4  S   UNL     1       2.114  10.491  17.998  0.00  0.00    +0.000 S 
ATOM      5  C   UNL     1       1.167  10.990  19.318  0.00  0.00    +0.000 A 
ATOM      6  C   UNL     1       0.871   9.952  20.182  0.00  0.00    +0.000 A 
ATOM      7  C   UNL     1       1.396   8.716  19.704  0.00  0.00    +0.000 A 
ATOM      8  C   UNL     1       1.275   7.389  20.269  0.00  0.00    +0.000 A 
ATOM      9  O   UNL     1       0.572   7.190  21.258  0.00  0.00    +0.000 OA
ATOM     10  N   UNL     1       1.985   6.398  19.564  0.00  0.00    +0.000 N 
ATOM     11  C   UNL     1       0.045  10.187  21.413  0.00  0.00    +0.000 C 
ATOM     12  C   UNL     1      -0.148  11.701  21.666  0.00  0.00    +0.000 C 
ATOM     13  N   UNL     1      -0.425  12.504  20.449  0.00  0.00    +0.000 NA
ATOM     14  C   UNL     1      -1.673  12.084  19.804  0.00  0.00    +0.000 C 
ATOM     15  C   UNL     1       0.720  12.411  19.509  0.00  0.00    +0.000 C 
ENDROOT
BRANCH  10  16
ATOM     16  C   UNL     1       1.896   5.070  20.076  0.00  0.00    +0.000 A 
ATOM     17  C   UNL     1       2.583   4.700  21.237  0.00  0.00    +0.000 A 
ATOM     18  C   UNL     1       2.441   3.413  21.756  0.00  0.00    +0.000 A 
ATOM     19  C   UNL     1       1.631   2.484  21.104  0.00  0.00    +0.000 A 
ATOM     20  C   UNL     1       0.987   2.829  19.917  0.00  0.00    +0.000 A 
ATOM     21  C   UNL     1       1.126   4.116  19.398  0.00  0.00    +0.000 A 
ENDBRANCH  10  16
BRANCH   1  22
ATOM     22  S   UNL     1       3.667   5.472  17.587  0.00  0.00    +0.000 S 
BRANCH  22  23
ATOM     23  C   UNL     1       5.333   5.888  18.201  0.00  0.00    +0.000 C 
BRANCH  23  24
ATOM     24  C   UNL     1       5.850   4.856  19.185  0.00  0.00    +0.000 C 
ATOM     25  O   UNL     1       5.385   3.739  19.368  0.00  0.00    +0.000 OA
BRANCH  24  27
ATOM     26  C   UNL     1       7.839   6.059  18.980  0.00  0.00    +0.000 C 
ATOM     27  O   UNL     1       6.949   5.344  19.840  0.00  0.00    +0.000 OA
ENDBRANCH  24  27
ENDBRANCH  23  24
ENDBRANCH  22  23
ENDBRANCH   1  22
TORSDOF 5
ENDMDL
MODEL 4
REMARK VINA RESULT:      -7.2      2.303      4.259
REMARK  Name = 
REMARK  7 active torsions:
REMARK  status: ('A' for Active; 'I' for Inactive)
REMARK    1  A    between atoms: C_1  and  O_2
REMARK    2  A    between atoms: O_2  and  C_3
REMARK    3  A    between atoms: C_3  and  C_5
REMARK    4  A    between atoms: C_5  and  S_6
REMARK    5  A    between atoms: S_6  and  C_7
REMARK    6  A    between atoms: N_16  and  C_17
REMARK    7  A    between atoms: N_25  and  C_26
REMARK                            x       y       z     vdW  Elec       q    Type
REMARK                         _______ _______ _______ _____ _____    ______ ____
ROOT
ATOM      1  C   UNL     1       3.656   6.537  17.498  0.00  0.00    +0.000 A 
ATOM      2  N   UNL     1       3.476   7.799  17.248  0.00  0.00    +0.000 NA
ATOM      3  C   UNL     1       2.677   8.445  18.122  0.00  0.00    +0.000 A 
ATOM      4  S   UNL     1       2.372  10.119  17.978  0.00  0.00    +0.000 S 
ATOM      5  C   UNL     1       1.386  10.113  19.362  0.00  0.00    +0.000 A 
ATOM      6  C   UNL     1       1.310   8.868  19.957  0.00  0.00    +0.000 A 
ATOM      7  C   UNL     1       2.041   7.896  19.212  0.00  0.00    +0.000 A 
ATOM      8  C   UNL     1       2.183   6.475  19.452  0.00  0.00    +0.000 A 
ATOM      9  O   UNL     1       1.556   5.926  20.356  0.00  0.00    +0.000 OA
ATOM     10  N   UNL     1       3.044   5.824  18.548  0.00  0.00    +0.000 N 
ATOM     11  C   UNL     1       0.489   8.654  21.195  0.00  0.00    +0.000 C 
ATOM     12  C   UNL     1       0.027  10.005  21.789  0.00  0.00    +0.000 C 
ATOM     13  N   UNL     1      -0.426  11.002  20.788  0.00  0.00    +0.000 NA
ATOM     14  C   UNL     1      -1.592  10.518  20.042  0.00  0.00    +0.000 C 
ATOM     15  C   UNL     1       0.690  11.343  19.871  0.00  0.00    +0.000 C 
ENDROOT
BRANCH  10  16
ATOM     16  C   UNL     1       3.215   4.421  18.736  0.00  0.00    +0.000 A 
ATOM     17  C   UNL     1       2.377   3.502  18.095  0.00  0.00    +0.000 A 
ATOM     18  C   UNL     1       2.593   2.132  18.245  0.00  0.00    +0.000 A 
ATOM     19  C   UNL     1       3.632   1.675  19.054  0.00  0.00    +0.000 A 
ATOM     20  C   UNL     1       4.437   2.583  19.739  0.00  0.00    +0.000 A 
ATOM     21  C   UNL     1       4.224   3.953  19.588  0.00  0.00    +0.000 A 
ENDBRANCH  10  16
BRANCH   1  22
ATOM     22  S   UNL     1       4.812   5.709  16.437  0.00  0.00    +0.000 S 
BRANCH  22  23
ATOM     23  C   UNL     1       6.384   6.139  17.257  0.00  0.00    +0.000 C 
BRANCH  23  24
ATOM     24  C   UNL     1       7.343   4.964  17.299  0.00  0.00    +0.000 C 
ATOM     25  O   UNL     1       7.870   4.430  16.333  0.00  0.00    +0.000 OA
BRANCH  24  27
ATOM     26  C   UNL     1       7.859   5.691  19.456  0.00  0.00    +0.000 C 
ATOM     27  O   UNL     1       7.563   4.587  18.597  0.00  0.00    +0.000 OA
ENDBRANCH  24  27
ENDBRANCH  23  24
ENDBRANCH  22  23
ENDBRANCH   1  22
TORSDOF 5
ENDMDL
MODEL 5
REMARK VINA RESULT:      -7.2      1.559      2.123
REMARK  Name = 
REMARK  7 active torsions:
REMARK  status: ('A' for Active; 'I' for Inactive)
REMARK    1  A    between atoms: C_1  and  O_2
REMARK    2  A    between atoms: O_2  and  C_3
REMARK    3  A    between atoms: C_3  and  C_5
REMARK    4  A    between atoms: C_5  and  S_6
REMARK    5  A    between atoms: S_6  and  C_7
REMARK    6  A    between atoms: N_16  and  C_17
REMARK    7  A    between atoms: N_25  and  C_26
REMARK                            x       y       z     vdW  Elec       q    Type
REMARK                         _______ _______ _______ _____ _____    ______ ____
ROOT
ATOM      1  C   UNL     1       2.059   5.970  20.516  0.00  0.00    +0.000 A 
ATOM      2  N   UNL     1       1.258   6.639  21.290  0.00  0.00    +0.000 NA
ATOM      3  C   UNL     1       0.994   7.898  20.887  0.00  0.00    +0.000 A 
ATOM      4  S   UNL     1      -0.079   8.904  21.754  0.00  0.00    +0.000 S 
ATOM      5  C   UNL     1       0.133  10.176  20.648  0.00  0.00    +0.000 A 
ATOM      6  C   UNL     1       0.978   9.841  19.607  0.00  0.00    +0.000 A 
ATOM      7  C   UNL     1       1.499   8.524  19.769  0.00  0.00    +0.000 A 
ATOM      8  C   UNL     1       2.447   7.805  18.943  0.00  0.00    +0.000 A 
ATOM      9  O   UNL     1       2.995   8.358  17.991  0.00  0.00    +0.000 OA
ATOM     10  N   UNL     1       2.686   6.483  19.364  0.00  0.00    +0.000 N 
ATOM     11  C   UNL     1       1.293  10.829  18.522  0.00  0.00    +0.000 C 
ATOM     12  C   UNL     1       0.364  12.063  18.615  0.00  0.00    +0.000 C 
ATOM     13  N   UNL     1       0.125  12.559  19.992  0.00  0.00    +0.000 NA
ATOM     14  C   UNL     1       1.372  12.997  20.627  0.00  0.00    +0.000 C 
ATOM     15  C   UNL     1      -0.544  11.508  20.800  0.00  0.00    +0.000 C 
ENDROOT
BRANCH  10  16
ATOM     16  C   UNL     1       3.617   5.731  18.588  0.00  0.00    +0.000 A 
ATOM     17  C   UNL     1       3.200   5.009  17.464  0.00  0.00    +0.000 A 
ATOM     18  C   UNL     1       4.132   4.325  16.684  0.00  0.00    +0.000 A 
ATOM     19  C   UNL     1       5.480   4.339  17.036  0.00  0.00    +0.000 A 
ATOM     20  C   UNL     1       5.896   5.010  18.185  0.00  0.00    +0.000 A 
ATOM     21  C   UNL     1       4.966   5.697  18.965  0.00  0.00    +0.000 A 
ENDBRANCH  10  16
BRANCH   1  22
ATOM     22  S   UNL     1       2.304   4.271  20.962  0.00  0.00    +0.000 S 
BRANCH  22  23
ATOM     23  C   UNL     1       0.780   3.527  20.292  0.00  0.00    +0.000 C 
BRANCH  23  24
ATOM     24  C   UNL     1       1.077   2.417  19.301  0.00  0.00    +0.000 C 
ATOM     25  O   UNL     1       0.388   2.106  18.339  0.00  0.00    +0.000 OA
BRANCH  24  27
ATOM     26  C   UNL     1       3.092   1.568  18.483  0.00  0.00    +0.000 C 
ATOM     27  O   UNL     1       2.262   1.810  19.622  0.00  0.00    +0.000 OA
ENDBRANCH  24  27
ENDBRANCH  23  24
ENDBRANCH  22  23
ENDBRANCH   1  22
TORSDOF 5
ENDMDL
MODEL 6
REMARK VINA RESULT:      -7.1      0.744      1.294
REMARK  Name = 
REMARK  7 active torsions:
REMARK  status: ('A' for Active; 'I' for Inactive)
REMARK    1  A    between atoms: C_1  and  O_2
REMARK    2  A    between atoms: O_2  and  C_3
REMARK    3  A    between atoms: C_3  and  C_5
REMARK    4  A    between atoms: C_5  and  S_6
REMARK    5  A    between atoms: S_6  and  C_7
REMARK    6  A    between atoms: N_16  and  C_17
REMARK    7  A    between atoms: N_25  and  C_26
REMARK                            x       y       z     vdW  Elec       q    Type
REMARK                         _______ _______ _______ _____ _____    ______ ____
ROOT
ATOM      1  C   UNL     1       3.972   5.210  18.941  0.00  0.00    +0.000 A 
ATOM      2  N   UNL     1       3.199   5.531  19.934  0.00  0.00    +0.000 NA
ATOM      3  C   UNL     1       2.519   6.685  19.778  0.00  0.00    +0.000 A 
ATOM      4  S   UNL     1       1.417   7.235  20.960  0.00  0.00    +0.000 S 
ATOM      5  C   UNL     1       1.031   8.610  20.040  0.00  0.00    +0.000 A 
ATOM      6  C   UNL     1       1.697   8.644  18.829  0.00  0.00    +0.000 A 
ATOM      7  C   UNL     1       2.583   7.535  18.697  0.00  0.00    +0.000 A 
ATOM      8  C   UNL     1       3.497   7.215  17.620  0.00  0.00    +0.000 A 
ATOM      9  O   UNL     1       3.657   7.994  16.682  0.00  0.00    +0.000 OA
ATOM     10  N   UNL     1       4.176   5.993  17.787  0.00  0.00    +0.000 N 
ATOM     11  C   UNL     1       1.490   9.778  17.868  0.00  0.00    +0.000 C 
ATOM     12  C   UNL     1       0.298  10.661  18.306  0.00  0.00    +0.000 C 
ATOM     13  N   UNL     1       0.227  10.930  19.763  0.00  0.00    +0.000 NA
ATOM     14  C   UNL     1       1.408  11.662  20.230  0.00  0.00    +0.000 C 
ATOM     15  C   UNL     1       0.060   9.656  20.507  0.00  0.00    +0.000 C 
ENDROOT
BRANCH  10  16
ATOM     16  C   UNL     1       5.093   5.633  16.757  0.00  0.00    +0.000 A 
ATOM     17  C   UNL     1       6.409   6.109  16.766  0.00  0.00    +0.000 A 
ATOM     18  C   UNL     1       7.309   5.702  15.782  0.00  0.00    +0.000 A 
ATOM     19  C   UNL     1       6.893   4.837  14.771  0.00  0.00    +0.000 A 
ATOM     20  C   UNL     1       5.570   4.402  14.724  0.00  0.00    +0.000 A 
ATOM     21  C   UNL     1       4.669   4.805  15.709  0.00  0.00    +0.000 A 
ENDBRANCH  10  16
BRANCH   1  22
ATOM     22  S   UNL     1       4.766   3.629  19.075  0.00  0.00    +0.000 S 
BRANCH  22  23
ATOM     23  C   UNL     1       3.426   2.646  19.827  0.00  0.00    +0.000 C 
BRANCH  23  24
ATOM     24  C   UNL     1       3.813   2.109  21.193  0.00  0.00    +0.000 C 
ATOM     25  O   UNL     1       4.880   1.586  21.485  0.00  0.00    +0.000 OA
BRANCH  24  27
ATOM     26  C   UNL     1       1.597   2.793  21.459  0.00  0.00    +0.000 C 
ATOM     27  O   UNL     1       2.792   2.314  22.081  0.00  0.00    +0.000 OA
ENDBRANCH  24  27
ENDBRANCH  23  24
ENDBRANCH  22  23
ENDBRANCH   1  22
TORSDOF 5
ENDMDL
MODEL 7
REMARK VINA RESULT:      -7.0      2.203      5.001
REMARK  Name = 
REMARK  7 active torsions:
REMARK  status: ('A' for Active; 'I' for Inactive)
REMARK    1  A    between atoms: C_1  and  O_2
REMARK    2  A    between atoms: O_2  and  C_3
REMARK    3  A    between atoms: C_3  and  C_5
REMARK    4  A    between atoms: C_5  and  S_6
REMARK    5  A    between atoms: S_6  and  C_7
REMARK    6  A    between atoms: N_16  and  C_17
REMARK    7  A    between atoms: N_25  and  C_26
REMARK                            x       y       z     vdW  Elec       q    Type
REMARK                         _______ _______ _______ _____ _____    ______ ____
ROOT
ATOM      1  C   UNL     1       2.725   6.702  18.438  0.00  0.00    +0.000 A 
ATOM      2  N   UNL     1       2.789   7.879  17.891  0.00  0.00    +0.000 NA
ATOM      3  C   UNL     1       2.126   8.850  18.549  0.00  0.00    +0.000 A 
ATOM      4  S   UNL     1       2.145  10.468  18.003  0.00  0.00    +0.000 S 
ATOM      5  C   UNL     1       1.172  10.975  19.300  0.00  0.00    +0.000 A 
ATOM      6  C   UNL     1       0.860   9.944  20.166  0.00  0.00    +0.000 A 
ATOM      7  C   UNL     1       1.394   8.705  19.706  0.00  0.00    +0.000 A 
ATOM      8  C   UNL     1       1.262   7.381  20.279  0.00  0.00    +0.000 A 
ATOM      9  O   UNL     1       0.540   7.190  21.256  0.00  0.00    +0.000 OA
ATOM     10  N   UNL     1       1.986   6.386  19.595  0.00  0.00    +0.000 N 
ATOM     11  C   UNL     1       0.009  10.187  21.379  0.00  0.00    +0.000 C 
ATOM     12  C   UNL     1      -0.189  11.703  21.617  0.00  0.00    +0.000 C 
ATOM     13  N   UNL     1      -0.442  12.497  20.389  0.00  0.00    +0.000 NA
ATOM     14  C   UNL     1      -1.676  12.072  19.722  0.00  0.00    +0.000 C 
ATOM     15  C   UNL     1       0.722  12.398  19.472  0.00  0.00    +0.000 C 
ENDROOT
BRANCH  10  16
ATOM     16  C   UNL     1       1.887   5.062  20.114  0.00  0.00    +0.000 A 
ATOM     17  C   UNL     1       2.579   4.690  21.272  0.00  0.00    +0.000 A 
ATOM     18  C   UNL     1       2.427   3.407  21.798  0.00  0.00    +0.000 A 
ATOM     19  C   UNL     1       1.603   2.483  21.158  0.00  0.00    +0.000 A 
ATOM     20  C   UNL     1       0.953   2.829  19.974  0.00  0.00    +0.000 A 
ATOM     21  C   UNL     1       1.102   4.112  19.448  0.00  0.00    +0.000 A 
ENDBRANCH  10  16
BRANCH   1  22
ATOM     22  S   UNL     1       3.706   5.446  17.657  0.00  0.00    +0.000 S 
BRANCH  22  23
ATOM     23  C   UNL     1       5.348   6.241  17.684  0.00  0.00    +0.000 C 
BRANCH  23  24
ATOM     24  C   UNL     1       6.087   6.062  16.370  0.00  0.00    +0.000 C 
ATOM     25  O   UNL     1       5.620   6.233  15.253  0.00  0.00    +0.000 OA
BRANCH  24  27
ATOM     26  C   UNL     1       7.503   4.668  17.594  0.00  0.00    +0.000 C 
ATOM     27  O   UNL     1       7.385   5.699  16.611  0.00  0.00    +0.000 OA
ENDBRANCH  24  27
ENDBRANCH  23  24
ENDBRANCH  22  23
ENDBRANCH   1  22
TORSDOF 5
ENDMDL
MODEL 8
REMARK VINA RESULT:      -6.8      2.184      4.459
REMARK  Name = 
REMARK  7 active torsions:
REMARK  status: ('A' for Active; 'I' for Inactive)
REMARK    1  A    between atoms: C_1  and  O_2
REMARK    2  A    between atoms: O_2  and  C_3
REMARK    3  A    between atoms: C_3  and  C_5
REMARK    4  A    between atoms: C_5  and  S_6
REMARK    5  A    between atoms: S_6  and  C_7
REMARK    6  A    between atoms: N_16  and  C_17
REMARK    7  A    between atoms: N_25  and  C_26
REMARK                            x       y       z     vdW  Elec       q    Type
REMARK                         _______ _______ _______ _____ _____    ______ ____
ROOT
ATOM      1  C   UNL     1       3.888   6.225  17.448  0.00  0.00    +0.000 A 
ATOM      2  N   UNL     1       3.720   7.489  17.198  0.00  0.00    +0.000 NA
ATOM      3  C   UNL     1       2.893   8.133  18.045  0.00  0.00    +0.000 A 
ATOM      4  S   UNL     1       2.596   9.808  17.898  0.00  0.00    +0.000 S 
ATOM      5  C   UNL     1       1.563   9.799  19.247  0.00  0.00    +0.000 A 
ATOM      6  C   UNL     1       1.465   8.552  19.834  0.00  0.00    +0.000 A 
ATOM      7  C   UNL     1       2.218   7.581  19.112  0.00  0.00    +0.000 A 
ATOM      8  C   UNL     1       2.349   6.159  19.350  0.00  0.00    +0.000 A 
ATOM      9  O   UNL     1       1.690   5.608  20.230  0.00  0.00    +0.000 OA
ATOM     10  N   UNL     1       3.239   5.509  18.474  0.00  0.00    +0.000 N 
ATOM     11  C   UNL     1       0.601   8.335  21.042  0.00  0.00    +0.000 C 
ATOM     12  C   UNL     1       0.121   9.685  21.626  0.00  0.00    +0.000 C 
ATOM     13  N   UNL     1      -0.295  10.686  20.613  0.00  0.00    +0.000 NA
ATOM     14  C   UNL     1      -1.436  10.208  19.826  0.00  0.00    +0.000 C 
ATOM     15  C   UNL     1       0.853  11.029  19.736  0.00  0.00    +0.000 C 
ENDROOT
BRANCH  10  16
ATOM     16  C   UNL     1       3.401   4.105  18.662  0.00  0.00    +0.000 A 
ATOM     17  C   UNL     1       4.297   3.606  19.613  0.00  0.00    +0.000 A 
ATOM     18  C   UNL     1       4.403   2.231  19.823  0.00  0.00    +0.000 A 
ATOM     19  C   UNL     1       3.631   1.349  19.068  0.00  0.00    +0.000 A 
ATOM     20  C   UNL     1       2.776   1.836  18.081  0.00  0.00    +0.000 A 
ATOM     21  C   UNL     1       2.668   3.210  17.871  0.00  0.00    +0.000 A 
ENDBRANCH  10  16
BRANCH   1  22
ATOM     22  S   UNL     1       5.079   5.399  16.425  0.00  0.00    +0.000 S 
BRANCH  22  23
ATOM     23  C   UNL     1       6.555   6.424  16.736  0.00  0.00    +0.000 C 
BRANCH  23  24
ATOM     24  C   UNL     1       7.286   6.000  17.996  0.00  0.00    +0.000 C 
ATOM     25  O   UNL     1       7.221   4.902  18.531  0.00  0.00    +0.000 OA
BRANCH  24  27
ATOM     26  C   UNL     1       7.814   8.263  17.776  0.00  0.00    +0.000 C 
ATOM     27  O   UNL     1       8.066   7.029  18.452  0.00  0.00    +0.000 OA
ENDBRANCH  24  27
ENDBRANCH  23  24
ENDBRANCH  22  23
ENDBRANCH   1  22
TORSDOF 5
ENDMDL
MODEL 9
REMARK VINA RESULT:      -6.8      2.300      4.844
REMARK  Name = 
REMARK  7 active torsions:
REMARK  status: ('A' for Active; 'I' for Inactive)
REMARK    1  A    between atoms: C_1  and  O_2
REMARK    2  A    between atoms: O_2  and  C_3
REMARK    3  A    between atoms: C_3  and  C_5
REMARK    4  A    between atoms: C_5  and  S_6
REMARK    5  A    between atoms: S_6  and  C_7
REMARK    6  A    between atoms: N_16  and  C_17
REMARK    7  A    between atoms: N_25  and  C_26
REMARK                            x       y       z     vdW  Elec       q    Type
REMARK                         _______ _______ _______ _____ _____    ______ ____
ROOT
ATOM      1  C   UNL     1       2.760   6.772  18.432  0.00  0.00    +0.000 A 
ATOM      2  N   UNL     1       2.833   7.960  17.910  0.00  0.00    +0.000 NA
ATOM      3  C   UNL     1       2.148   8.916  18.568  0.00  0.00    +0.000 A 
ATOM      4  S   UNL     1       2.175  10.543  18.053  0.00  0.00    +0.000 S 
ATOM      5  C   UNL     1       1.166  11.023  19.334  0.00  0.00    +0.000 A 
ATOM      6  C   UNL     1       0.836   9.974  20.172  0.00  0.00    +0.000 A 
ATOM      7  C   UNL     1       1.388   8.746  19.703  0.00  0.00    +0.000 A 
ATOM      8  C   UNL     1       1.247   7.412  20.247  0.00  0.00    +0.000 A 
ATOM      9  O   UNL     1       0.501   7.199  21.202  0.00  0.00    +0.000 OA
ATOM     10  N   UNL     1       1.993   6.432  19.564  0.00  0.00    +0.000 N 
ATOM     11  C   UNL     1      -0.046  10.192  21.367  0.00  0.00    +0.000 C 
ATOM     12  C   UNL     1      -0.257  11.702  21.628  0.00  0.00    +0.000 C 
ATOM     13  N   UNL     1      -0.481  12.518  20.409  0.00  0.00    +0.000 NA
ATOM     14  C   UNL     1      -1.697  12.100  19.703  0.00  0.00    +0.000 C 
ATOM     15  C   UNL     1       0.705  12.440  19.521  0.00  0.00    +0.000 C 
ENDROOT
BRANCH  10  16
ATOM     16  C   UNL     1       1.886   5.098  20.056  0.00  0.00    +0.000 A 
ATOM     17  C   UNL     1       1.105   4.147  19.392  0.00  0.00    +0.000 A 
ATOM     18  C   UNL     1       1.056   2.832  19.855  0.00  0.00    +0.000 A 
ATOM     19  C   UNL     1       1.768   2.468  20.997  0.00  0.00    +0.000 A 
ATOM     20  C   UNL     1       2.505   3.423  21.695  0.00  0.00    +0.000 A 
ATOM     21  C   UNL     1       2.557   4.737  21.232  0.00  0.00    +0.000 A 
ENDBRANCH  10  16
BRANCH   1  22
ATOM     22  S   UNL     1       3.766   5.536  17.654  0.00  0.00    +0.000 S 
BRANCH  22  23
ATOM     23  C   UNL     1       4.986   6.588  16.799  0.00  0.00    +0.000 C 
BRANCH  23  24
ATOM     24  C   UNL     1       6.412   6.175  17.113  0.00  0.00    +0.000 C 
ATOM     25  O   UNL     1       7.379   6.304  16.374  0.00  0.00    +0.000 OA
BRANCH  24  27
ATOM     26  C   UNL     1       7.722   5.911  19.027  0.00  0.00    +0.000 C 
ATOM     27  O   UNL     1       6.478   5.646  18.374  0.00  0.00    +0.000 OA
ENDBRANCH  24  27
ENDBRANCH  23  24
ENDBRANCH  22  23
ENDBRANCH   1  22
TORSDOF 5
ENDMDL
