MODEL 1
REMARK VINA RESULT:      -8.7      0.000      0.000
REMARK  Name = 
REMARK  4 active torsions:
REMARK  status: ('A' for Active; 'I' for Inactive)
REMARK    1  A    between atoms: C_2  and  C_3
REMARK    2  A    between atoms: C_16  and  C_17
REMARK    3  A    between atoms: C_17  and  O_18
REMARK    4  A    between atoms: O_18  and  C_19
REMARK                            x       y       z     vdW  Elec       q    Type
REMARK                         _______ _______ _______ _____ _____    ______ ____
ROOT
ATOM      1  O   UNL     1       2.908   8.057  18.061  0.00  0.00    +0.000 OA
ATOM      2  C   UNL     1       2.314   7.616  19.034  0.00  0.00    +0.000 C 
ATOM      3  N   UNL     1       2.215   6.255  19.307  0.00  0.00    +0.000 N 
ATOM      4  C   UNL     1       1.845   5.719  20.563  0.00  0.00    +0.000 C 
ATOM      5  C   UNL     1       2.149   4.279  20.349  0.00  0.00    +0.000 C 
ATOM      6  C   UNL     1       2.216   3.606  21.672  0.00  0.00    +0.000 C 
ATOM      7  O   UNL     1       2.704   2.358  21.260  0.00  0.00    +0.000 OA
ATOM      8  C   UNL     1       3.570   2.636  20.146  0.00  0.00    +0.000 C 
ATOM      9  C   UNL     1       3.560   4.166  19.627  0.00  0.00    +0.000 C 
ATOM     10  C   UNL     1       2.758   5.129  18.527  0.00  0.00    +0.000 C 
ENDROOT
BRANCH   2  11
ATOM     11  C   UNL     1       1.526   8.586  19.860  0.00  0.00    +0.000 A 
ATOM     12  C   UNL     1       0.877   9.626  19.175  0.00  0.00    +0.000 A 
ATOM     13  C   UNL     1      -0.037  10.446  19.844  0.00  0.00    +0.000 A 
ATOM     14  C   UNL     1      -0.305  10.219  21.189  0.00  0.00    +0.000 A 
ATOM     15  F   UNL     1      -1.239  10.949  21.811  0.00  0.00    +0.000 F 
ATOM     16  C   UNL     1       0.389   9.252  21.898  0.00  0.00    +0.000 A 
ATOM     17  C   UNL     1       1.345   8.474  21.246  0.00  0.00    +0.000 A 
ENDBRANCH   2  11
BRANCH   9  18
ATOM     18  C   UNL     1       4.605   3.829  18.464  0.00  0.00    +0.000 C 
BRANCH  18  19
ATOM     19  O   UNL     1       5.951   4.090  18.923  0.00  0.00    +0.000 OA
BRANCH  19  20
ATOM     20  C   UNL     1       6.556   5.248  18.523  0.00  0.00    +0.000 A 
ATOM     21  C   UNL     1       7.639   5.877  19.129  0.00  0.00    +0.000 A 
ATOM     22  C   UNL     1       8.143   7.059  18.581  0.00  0.00    +0.000 A 
ATOM     23  C   UNL     1       7.541   7.579  17.447  0.00  0.00    +0.000 A 
ATOM     24  N   UNL     1       6.483   7.005  16.839  0.00  0.00    +0.000 NA
ATOM     25  C   UNL     1       6.018   5.858  17.392  0.00  0.00    +0.000 A 
ENDBRANCH  19  20
ENDBRANCH  18  19
ENDBRANCH   9  18
TORSDOF 4
ENDMDL
MODEL 2
REMARK VINA RESULT:      -8.6      1.390      1.884
REMARK  Name = 
REMARK  4 active torsions:
REMARK  status: ('A' for Active; 'I' for Inactive)
REMARK    1  A    between atoms: C_2  and  C_3
REMARK    2  A    between atoms: C_16  and  C_17
REMARK    3  A    between atoms: C_17  and  O_18
REMARK    4  A    between atoms: O_18  and  C_19
REMARK                            x       y       z     vdW  Elec       q    Type
REMARK                         _______ _______ _______ _____ _____    ______ ____
ROOT
ATOM      1  O   UNL     1       3.338   7.686  17.517  0.00  0.00    +0.000 OA
ATOM      2  C   UNL     1       2.610   7.384  18.452  0.00  0.00    +0.000 C 
ATOM      3  N   UNL     1       2.444   6.074  18.889  0.00  0.00    +0.000 N 
ATOM      4  C   UNL     1       1.899   5.716  20.145  0.00  0.00    +0.000 C 
ATOM      5  C   UNL     1       2.195   4.258  20.169  0.00  0.00    +0.000 C 
ATOM      6  C   UNL     1       2.071   3.771  21.567  0.00  0.00    +0.000 C 
ATOM      7  O   UNL     1       2.579   2.476  21.394  0.00  0.00    +0.000 OA
ATOM      8  C   UNL     1       3.591   2.596  20.380  0.00  0.00    +0.000 C 
ATOM      9  C   UNL     1       3.686   4.040  19.664  0.00  0.00    +0.000 C 
ATOM     10  C   UNL     1       3.058   4.849  18.347  0.00  0.00    +0.000 C 
ENDROOT
BRANCH   2  11
ATOM     11  C   UNL     1       1.743   8.462  19.027  0.00  0.00    +0.000 A 
ATOM     12  C   UNL     1       1.150   9.355  18.120  0.00  0.00    +0.000 A 
ATOM     13  C   UNL     1       0.173  10.255  18.556  0.00  0.00    +0.000 A 
ATOM     14  C   UNL     1      -0.214  10.254  19.891  0.00  0.00    +0.000 A 
ATOM     15  F   UNL     1      -1.206  11.056  20.295  0.00  0.00    +0.000 F 
ATOM     16  C   UNL     1       0.421   9.437  20.814  0.00  0.00    +0.000 A 
ATOM     17  C   UNL     1       1.438   8.583  20.390  0.00  0.00    +0.000 A 
ENDBRANCH   2  11
BRANCH   9  18
ATOM     18  C   UNL     1       4.867   3.543  18.707  0.00  0.00    +0.000 C 
BRANCH  18  19
ATOM     19  O   UNL     1       5.604   4.681  18.205  0.00  0.00    +0.000 OA
BRANCH  19  20
ATOM     20  C   UNL     1       6.026   4.653  16.906  0.00  0.00    +0.000 A 
ATOM     21  C   UNL     1       5.573   3.807  15.898  0.00  0.00    +0.000 A 
ATOM     22  C   UNL     1       6.109   3.917  14.613  0.00  0.00    +0.000 A 
ATOM     23  C   UNL     1       7.089   4.868  14.379  0.00  0.00    +0.000 A 
ATOM     24  N   UNL     1       7.563   5.697  15.332  0.00  0.00    +0.000 NA
ATOM     25  C   UNL     1       7.021   5.567  16.567  0.00  0.00    +0.000 A 
ENDBRANCH  19  20
ENDBRANCH  18  19
ENDBRANCH   9  18
TORSDOF 4
ENDMDL
MODEL 3
REMARK VINA RESULT:      -8.4      0.360      1.030
REMARK  Name = 
REMARK  4 active torsions:
REMARK  status: ('A' for Active; 'I' for Inactive)
REMARK    1  A    between atoms: C_2  and  C_3
REMARK    2  A    between atoms: C_16  and  C_17
REMARK    3  A    between atoms: C_17  and  O_18
REMARK    4  A    between atoms: O_18  and  C_19
REMARK                            x       y       z     vdW  Elec       q    Type
REMARK                         _______ _______ _______ _____ _____    ______ ____
ROOT
ATOM      1  O   UNL     1       2.959   8.013  17.841  0.00  0.00    +0.000 OA
ATOM      2  C   UNL     1       2.345   7.598  18.814  0.00  0.00    +0.000 C 
ATOM      3  N   UNL     1       2.262   6.248  19.137  0.00  0.00    +0.000 N 
ATOM      4  C   UNL     1       1.866   5.754  20.403  0.00  0.00    +0.000 C 
ATOM      5  C   UNL     1       2.201   4.313  20.254  0.00  0.00    +0.000 C 
ATOM      6  C   UNL     1       2.243   3.692  21.603  0.00  0.00    +0.000 C 
ATOM      7  O   UNL     1       2.763   2.439  21.253  0.00  0.00    +0.000 OA
ATOM      8  C   UNL     1       3.655   2.689  20.154  0.00  0.00    +0.000 C 
ATOM      9  C   UNL     1       3.633   4.197  19.575  0.00  0.00    +0.000 C 
ATOM     10  C   UNL     1       2.846   5.103  18.417  0.00  0.00    +0.000 C 
ENDROOT
BRANCH   2  11
ATOM     11  C   UNL     1       1.519   8.585  19.580  0.00  0.00    +0.000 A 
ATOM     12  C   UNL     1       1.450   8.416  20.972  0.00  0.00    +0.000 A 
ATOM     13  C   UNL     1       0.872   9.406  21.773  0.00  0.00    +0.000 A 
ATOM     14  C   UNL     1       0.374  10.562  21.184  0.00  0.00    +0.000 A 
ATOM     15  F   UNL     1      -0.105  11.546  21.954  0.00  0.00    +0.000 F 
ATOM     16  C   UNL     1       0.359  10.706  19.805  0.00  0.00    +0.000 A 
ATOM     17  C   UNL     1       0.880   9.692  19.002  0.00  0.00    +0.000 A 
ENDBRANCH   2  11
BRANCH   9  18
ATOM     18  C   UNL     1       4.716   3.835  18.455  0.00  0.00    +0.000 C 
BRANCH  18  19
ATOM     19  O   UNL     1       6.044   4.139  18.939  0.00  0.00    +0.000 OA
BRANCH  19  20
ATOM     20  C   UNL     1       6.629   5.303  18.529  0.00  0.00    +0.000 A 
ATOM     21  C   UNL     1       7.713   5.946  19.119  0.00  0.00    +0.000 A 
ATOM     22  C   UNL     1       8.196   7.133  18.562  0.00  0.00    +0.000 A 
ATOM     23  C   UNL     1       7.572   7.643  17.435  0.00  0.00    +0.000 A 
ATOM     24  N   UNL     1       6.513   7.055  16.842  0.00  0.00    +0.000 NA
ATOM     25  C   UNL     1       6.070   5.904  17.404  0.00  0.00    +0.000 A 
ENDBRANCH  19  20
ENDBRANCH  18  19
ENDBRANCH   9  18
TORSDOF 4
ENDMDL
MODEL 4
REMARK VINA RESULT:      -8.3      1.301      2.068
REMARK  Name = 
REMARK  4 active torsions:
REMARK  status: ('A' for Active; 'I' for Inactive)
REMARK    1  A    between atoms: C_2  and  C_3
REMARK    2  A    between atoms: C_16  and  C_17
REMARK    3  A    between atoms: C_17  and  O_18
REMARK    4  A    between atoms: O_18  and  C_19
REMARK                            x       y       z     vdW  Elec       q    Type
REMARK                         _______ _______ _______ _____ _____    ______ ____
ROOT
ATOM      1  O   UNL     1       3.036   7.963  18.047  0.00  0.00    +0.000 OA
ATOM      2  C   UNL     1       2.379   7.545  18.990  0.00  0.00    +0.000 C 
ATOM      3  N   UNL     1       2.253   6.191  19.282  0.00  0.00    +0.000 N 
ATOM      4  C   UNL     1       1.801   5.682  20.523  0.00  0.00    +0.000 C 
ATOM      5  C   UNL     1       2.106   4.236  20.356  0.00  0.00    +0.000 C 
ATOM      6  C   UNL     1       2.085   3.588  21.693  0.00  0.00    +0.000 C 
ATOM      7  O   UNL     1       2.587   2.330  21.336  0.00  0.00    +0.000 OA
ATOM      8  C   UNL     1       3.524   2.580  20.273  0.00  0.00    +0.000 C 
ATOM      9  C   UNL     1       3.558   4.099  19.725  0.00  0.00    +0.000 C 
ATOM     10  C   UNL     1       2.834   5.046  18.559  0.00  0.00    +0.000 C 
ENDROOT
BRANCH   2  11
ATOM     11  C   UNL     1       1.550   8.537  19.746  0.00  0.00    +0.000 A 
ATOM     12  C   UNL     1       1.525   8.412  21.145  0.00  0.00    +0.000 A 
ATOM     13  C   UNL     1       0.944   9.414  21.929  0.00  0.00    +0.000 A 
ATOM     14  C   UNL     1       0.401  10.537  21.317  0.00  0.00    +0.000 A 
ATOM     15  F   UNL     1      -0.081  11.535  22.068  0.00  0.00    +0.000 F 
ATOM     16  C   UNL     1       0.343  10.635  19.936  0.00  0.00    +0.000 A 
ATOM     17  C   UNL     1       0.867   9.607  19.151  0.00  0.00    +0.000 A 
ENDBRANCH   2  11
BRANCH   9  18
ATOM     18  C   UNL     1       4.671   3.733  18.637  0.00  0.00    +0.000 C 
BRANCH  18  19
ATOM     19  O   UNL     1       5.187   4.942  18.036  0.00  0.00    +0.000 OA
BRANCH  19  20
ATOM     20  C   UNL     1       5.718   4.861  16.780  0.00  0.00    +0.000 A 
ATOM     21  C   UNL     1       5.202   4.154  15.698  0.00  0.00    +0.000 A 
ATOM     22  C   UNL     1       5.871   4.185  14.472  0.00  0.00    +0.000 A 
ATOM     23  C   UNL     1       7.041   4.919  14.369  0.00  0.00    +0.000 A 
ATOM     24  N   UNL     1       7.579   5.607  15.397  0.00  0.00    +0.000 NA
ATOM     25  C   UNL     1       6.906   5.559  16.572  0.00  0.00    +0.000 A 
ENDBRANCH  19  20
ENDBRANCH  18  19
ENDBRANCH   9  18
TORSDOF 4
ENDMDL
MODEL 5
REMARK VINA RESULT:      -8.1      3.776      6.904
REMARK  Name = 
REMARK  4 active torsions:
REMARK  status: ('A' for Active; 'I' for Inactive)
REMARK    1  A    between atoms: C_2  and  C_3
REMARK    2  A    between atoms: C_16  and  C_17
REMARK    3  A    between atoms: C_17  and  O_18
REMARK    4  A    between atoms: O_18  and  C_19
REMARK                            x       y       z     vdW  Elec       q    Type
REMARK                         _______ _______ _______ _____ _____    ______ ____
ROOT
ATOM      1  O   UNL     1       5.424   6.665  17.143  0.00  0.00    +0.000 OA
ATOM      2  C   UNL     1       5.220   5.488  16.879  0.00  0.00    +0.000 C 
ATOM      3  N   UNL     1       4.593   4.612  17.760  0.00  0.00    +0.000 N 
ATOM      4  C   UNL     1       4.041   3.365  17.385  0.00  0.00    +0.000 C 
ATOM      5  C   UNL     1       3.310   3.002  18.629  0.00  0.00    +0.000 C 
ATOM      6  C   UNL     1       2.332   1.930  18.309  0.00  0.00    +0.000 C 
ATOM      7  O   UNL     1       1.638   1.896  19.526  0.00  0.00    +0.000 OA
ATOM      8  C   UNL     1       1.633   3.253  20.001  0.00  0.00    +0.000 C 
ATOM      9  C   UNL     1       2.533   4.288  19.147  0.00  0.00    +0.000 C 
ATOM     10  C   UNL     1       4.087   4.892  19.115  0.00  0.00    +0.000 C 
ENDROOT
BRANCH   2  11
ATOM     11  C   UNL     1       5.827   4.949  15.620  0.00  0.00    +0.000 A 
ATOM     12  C   UNL     1       4.960   4.317  14.714  0.00  0.00    +0.000 A 
ATOM     13  C   UNL     1       5.409   3.972  13.436  0.00  0.00    +0.000 A 
ATOM     14  C   UNL     1       6.715   4.268  13.064  0.00  0.00    +0.000 A 
ATOM     15  F   UNL     1       7.123   4.014  11.814  0.00  0.00    +0.000 F 
ATOM     16  C   UNL     1       7.606   4.815  13.974  0.00  0.00    +0.000 A 
ATOM     17  C   UNL     1       7.176   5.102  15.269  0.00  0.00    +0.000 A 
ENDBRANCH   2  11
BRANCH   9  18
ATOM     18  C   UNL     1       2.158   5.497  20.125  0.00  0.00    +0.000 C 
BRANCH  18  19
ATOM     19  O   UNL     1       2.880   6.686  19.735  0.00  0.00    +0.000 OA
BRANCH  19  20
ATOM     20  C   UNL     1       2.159   7.784  19.358  0.00  0.00    +0.000 A 
ATOM     21  C   UNL     1       2.090   8.341  18.085  0.00  0.00    +0.000 A 
ATOM     22  C   UNL     1       1.292   9.468  17.868  0.00  0.00    +0.000 A 
ATOM     23  C   UNL     1       0.593  10.005  18.937  0.00  0.00    +0.000 A 
ATOM     24  N   UNL     1       0.644   9.501  20.187  0.00  0.00    +0.000 NA
ATOM     25  C   UNL     1       1.425   8.407  20.364  0.00  0.00    +0.000 A 
ENDBRANCH  19  20
ENDBRANCH  18  19
ENDBRANCH   9  18
TORSDOF 4
ENDMDL
MODEL 6
REMARK VINA RESULT:      -8.1      4.186      7.302
REMARK  Name = 
REMARK  4 active torsions:
REMARK  status: ('A' for Active; 'I' for Inactive)
REMARK    1  A    between atoms: C_2  and  C_3
REMARK    2  A    between atoms: C_16  and  C_17
REMARK    3  A    between atoms: C_17  and  O_18
REMARK    4  A    between atoms: O_18  and  C_19
REMARK                            x       y       z     vdW  Elec       q    Type
REMARK                         _______ _______ _______ _____ _____    ______ ____
ROOT
ATOM      1  O   UNL     1       6.365   6.582  16.317  0.00  0.00    +0.000 OA
ATOM      2  C   UNL     1       5.920   5.478  16.035  0.00  0.00    +0.000 C 
ATOM      3  N   UNL     1       5.344   4.632  16.977  0.00  0.00    +0.000 N 
ATOM      4  C   UNL     1       4.529   3.521  16.656  0.00  0.00    +0.000 C 
ATOM      5  C   UNL     1       4.008   3.163  18.002  0.00  0.00    +0.000 C 
ATOM      6  C   UNL     1       2.822   2.283  17.835  0.00  0.00    +0.000 C 
ATOM      7  O   UNL     1       2.386   2.246  19.166  0.00  0.00    +0.000 OA
ATOM      8  C   UNL     1       2.700   3.541  19.707  0.00  0.00    +0.000 C 
ATOM      9  C   UNL     1       3.573   4.499  18.744  0.00  0.00    +0.000 C 
ATOM     10  C   UNL     1       5.168   4.863  18.421  0.00  0.00    +0.000 C 
ENDROOT
BRANCH   2  11
ATOM     11  C   UNL     1       6.169   4.969  14.649  0.00  0.00    +0.000 A 
ATOM     12  C   UNL     1       7.371   5.354  14.034  0.00  0.00    +0.000 A 
ATOM     13  C   UNL     1       7.767   4.760  12.832  0.00  0.00    +0.000 A 
ATOM     14  C   UNL     1       6.969   3.780  12.254  0.00  0.00    +0.000 A 
ATOM     15  F   UNL     1       7.385   3.151  11.148  0.00  0.00    +0.000 F 
ATOM     16  C   UNL     1       5.741   3.449  12.805  0.00  0.00    +0.000 A 
ATOM     17  C   UNL     1       5.316   4.085  13.971  0.00  0.00    +0.000 A 
ENDBRANCH   2  11
BRANCH   9  18
ATOM     18  C   UNL     1       3.605   5.659  19.845  0.00  0.00    +0.000 C 
BRANCH  18  19
ATOM     19  O   UNL     1       2.279   6.207  20.020  0.00  0.00    +0.000 OA
BRANCH  19  20
ATOM     20  C   UNL     1       2.017   7.441  19.496  0.00  0.00    +0.000 A 
ATOM     21  C   UNL     1       2.340   7.893  18.220  0.00  0.00    +0.000 A 
ATOM     22  C   UNL     1       1.990   9.191  17.840  0.00  0.00    +0.000 A 
ATOM     23  C   UNL     1       1.334   9.999  18.753  0.00  0.00    +0.000 A 
ATOM     24  N   UNL     1       1.015   9.602  20.003  0.00  0.00    +0.000 NA
ATOM     25  C   UNL     1       1.366   8.338  20.340  0.00  0.00    +0.000 A 
ENDBRANCH  19  20
ENDBRANCH  18  19
ENDBRANCH   9  18
TORSDOF 4
ENDMDL
MODEL 7
REMARK VINA RESULT:      -8.1      3.522      6.830
REMARK  Name = 
REMARK  4 active torsions:
REMARK  status: ('A' for Active; 'I' for Inactive)
REMARK    1  A    between atoms: C_2  and  C_3
REMARK    2  A    between atoms: C_16  and  C_17
REMARK    3  A    between atoms: C_17  and  O_18
REMARK    4  A    between atoms: O_18  and  C_19
REMARK                            x       y       z     vdW  Elec       q    Type
REMARK                         _______ _______ _______ _____ _____    ______ ____
ROOT
ATOM      1  O   UNL     1       4.967   6.986  17.458  0.00  0.00    +0.000 OA
ATOM      2  C   UNL     1       4.888   5.771  17.339  0.00  0.00    +0.000 C 
ATOM      3  N   UNL     1       4.347   4.948  18.320  0.00  0.00    +0.000 N 
ATOM      4  C   UNL     1       3.931   3.613  18.100  0.00  0.00    +0.000 C 
ATOM      5  C   UNL     1       3.228   3.329  19.380  0.00  0.00    +0.000 C 
ATOM      6  C   UNL     1       2.369   2.130  19.196  0.00  0.00    +0.000 C 
ATOM      7  O   UNL     1       1.670   2.171  20.409  0.00  0.00    +0.000 OA
ATOM      8  C   UNL     1       1.520   3.568  20.716  0.00  0.00    +0.000 C 
ATOM      9  C   UNL     1       2.317   4.580  19.742  0.00  0.00    +0.000 C 
ATOM     10  C   UNL     1       3.800   5.335  19.633  0.00  0.00    +0.000 C 
ENDROOT
BRANCH   2  11
ATOM     11  C   UNL     1       5.561   5.151  16.153  0.00  0.00    +0.000 A 
ATOM     12  C   UNL     1       4.734   4.519  15.209  0.00  0.00    +0.000 A 
ATOM     13  C   UNL     1       5.260   4.098  13.984  0.00  0.00    +0.000 A 
ATOM     14  C   UNL     1       6.603   4.318  13.702  0.00  0.00    +0.000 A 
ATOM     15  F   UNL     1       7.090   3.991  12.498  0.00  0.00    +0.000 F 
ATOM     16  C   UNL     1       7.449   4.863  14.654  0.00  0.00    +0.000 A 
ATOM     17  C   UNL     1       6.938   5.227  15.900  0.00  0.00    +0.000 A 
ENDBRANCH   2  11
BRANCH   9  18
ATOM     18  C   UNL     1       1.809   5.852  20.567  0.00  0.00    +0.000 C 
BRANCH  18  19
ATOM     19  O   UNL     1       2.116   7.064  19.841  0.00  0.00    +0.000 OA
BRANCH  19  20
ATOM     20  C   UNL     1       1.554   8.233  20.269  0.00  0.00    +0.000 A 
ATOM     21  C   UNL     1       1.167   8.546  21.569  0.00  0.00    +0.000 A 
ATOM     22  C   UNL     1       0.612   9.799  21.839  0.00  0.00    +0.000 A 
ATOM     23  C   UNL     1       0.455  10.698  20.796  0.00  0.00    +0.000 A 
ATOM     24  N   UNL     1       0.806  10.426  19.523  0.00  0.00    +0.000 NA
ATOM     25  C   UNL     1       1.344   9.204  19.294  0.00  0.00    +0.000 A 
ENDBRANCH  19  20
ENDBRANCH  18  19
ENDBRANCH   9  18
TORSDOF 4
ENDMDL
MODEL 8
REMARK VINA RESULT:      -8.0      4.064      7.347
REMARK  Name = 
REMARK  4 active torsions:
REMARK  status: ('A' for Active; 'I' for Inactive)
REMARK    1  A    between atoms: C_2  and  C_3
REMARK    2  A    between atoms: C_16  and  C_17
REMARK    3  A    between atoms: C_17  and  O_18
REMARK    4  A    between atoms: O_18  and  C_19
REMARK                            x       y       z     vdW  Elec       q    Type
REMARK                         _______ _______ _______ _____ _____    ______ ____
ROOT
ATOM      1  O   UNL     1       5.393   6.958  15.795  0.00  0.00    +0.000 OA
ATOM      2  C   UNL     1       5.453   5.738  15.865  0.00  0.00    +0.000 C 
ATOM      3  N   UNL     1       5.134   5.030  17.019  0.00  0.00    +0.000 N 
ATOM      4  C   UNL     1       4.865   3.641  17.053  0.00  0.00    +0.000 C 
ATOM      5  C   UNL     1       4.354   3.493  18.442  0.00  0.00    +0.000 C 
ATOM      6  C   UNL     1       3.636   2.197  18.549  0.00  0.00    +0.000 C 
ATOM      7  O   UNL     1       3.081   2.357  19.826  0.00  0.00    +0.000 OA
ATOM      8  C   UNL     1       2.794   3.762  19.943  0.00  0.00    +0.000 C 
ATOM      9  C   UNL     1       3.342   4.683  18.735  0.00  0.00    +0.000 C 
ATOM     10  C   UNL     1       4.698   5.562  18.322  0.00  0.00    +0.000 C 
ENDROOT
BRANCH   2  11
ATOM     11  C   UNL     1       6.057   5.011  14.704  0.00  0.00    +0.000 A 
ATOM     12  C   UNL     1       5.240   4.082  14.038  0.00  0.00    +0.000 A 
ATOM     13  C   UNL     1       5.658   3.517  12.830  0.00  0.00    +0.000 A 
ATOM     14  C   UNL     1       6.883   3.886  12.287  0.00  0.00    +0.000 A 
ATOM     15  F   UNL     1       7.250   3.410  11.091  0.00  0.00    +0.000 F 
ATOM     16  C   UNL     1       7.737   4.736  12.973  0.00  0.00    +0.000 A 
ATOM     17  C   UNL     1       7.346   5.253  14.208  0.00  0.00    +0.000 A 
ENDBRANCH   2  11
BRANCH   9  18
ATOM     18  C   UNL     1       2.778   6.010  19.426  0.00  0.00    +0.000 C 
BRANCH  18  19
ATOM     19  O   UNL     1       2.545   7.025  18.424  0.00  0.00    +0.000 OA
BRANCH  19  20
ATOM     20  C   UNL     1       1.985   8.206  18.820  0.00  0.00    +0.000 A 
ATOM     21  C   UNL     1       1.816   9.352  18.048  0.00  0.00    +0.000 A 
ATOM     22  C   UNL     1       1.212  10.479  18.611  0.00  0.00    +0.000 A 
ATOM     23  C   UNL     1       0.803  10.426  19.933  0.00  0.00    +0.000 A 
ATOM     24  N   UNL     1       0.961   9.340  20.717  0.00  0.00    +0.000 NA
ATOM     25  C   UNL     1       1.548   8.262  20.141  0.00  0.00    +0.000 A 
ENDBRANCH  19  20
ENDBRANCH  18  19
ENDBRANCH   9  18
TORSDOF 4
ENDMDL
MODEL 9
REMARK VINA RESULT:      -8.0      2.135      4.703
REMARK  Name = 
REMARK  4 active torsions:
REMARK  status: ('A' for Active; 'I' for Inactive)
REMARK    1  A    between atoms: C_2  and  C_3
REMARK    2  A    between atoms: C_16  and  C_17
REMARK    3  A    between atoms: C_17  and  O_18
REMARK    4  A    between atoms: O_18  and  C_19
REMARK                            x       y       z     vdW  Elec       q    Type
REMARK                         _______ _______ _______ _____ _____    ______ ____
ROOT
ATOM      1  O   UNL     1       2.166   6.134  20.435  0.00  0.00    +0.000 OA
ATOM      2  C   UNL     1       2.507   6.857  19.509  0.00  0.00    +0.000 C 
ATOM      3  N   UNL     1       3.630   6.605  18.727  0.00  0.00    +0.000 N 
ATOM      4  C   UNL     1       3.872   7.199  17.466  0.00  0.00    +0.000 C 
ATOM      5  C   UNL     1       5.035   6.396  17.001  0.00  0.00    +0.000 C 
ATOM      6  C   UNL     1       5.187   6.585  15.535  0.00  0.00    +0.000 C 
ATOM      7  O   UNL     1       6.166   5.613  15.289  0.00  0.00    +0.000 OA
ATOM      8  C   UNL     1       5.890   4.549  16.216  0.00  0.00    +0.000 C 
ATOM      9  C   UNL     1       4.743   4.865  17.309  0.00  0.00    +0.000 C 
ATOM     10  C   UNL     1       4.591   5.494  18.846  0.00  0.00    +0.000 C 
ENDROOT
BRANCH   2  11
ATOM     11  C   UNL     1       1.770   8.149  19.335  0.00  0.00    +0.000 A 
ATOM     12  C   UNL     1       1.218   8.728  20.490  0.00  0.00    +0.000 A 
ATOM     13  C   UNL     1       0.696  10.024  20.445  0.00  0.00    +0.000 A 
ATOM     14  C   UNL     1       0.736  10.740  19.254  0.00  0.00    +0.000 A 
ATOM     15  F   UNL     1       0.313  12.009  19.228  0.00  0.00    +0.000 F 
ATOM     16  C   UNL     1       1.201  10.152  18.088  0.00  0.00    +0.000 A 
ATOM     17  C   UNL     1       1.665   8.837  18.118  0.00  0.00    +0.000 A 
ENDBRANCH   2  11
BRANCH   9  18
ATOM     18  C   UNL     1       4.929   3.430  17.990  0.00  0.00    +0.000 C 
BRANCH  18  19
ATOM     19  O   UNL     1       3.696   2.681  17.903  0.00  0.00    +0.000 OA
BRANCH  19  20
ATOM     20  C   UNL     1       2.821   2.754  18.949  0.00  0.00    +0.000 A 
ATOM     21  C   UNL     1       1.455   3.008  18.880  0.00  0.00    +0.000 A 
ATOM     22  C   UNL     1       0.699   3.040  20.055  0.00  0.00    +0.000 A 
ATOM     23  C   UNL     1       1.339   2.825  21.265  0.00  0.00    +0.000 A 
ATOM     24  N   UNL     1       2.662   2.589  21.374  0.00  0.00    +0.000 NA
ATOM     25  C   UNL     1       3.367   2.561  20.216  0.00  0.00    +0.000 A 
ENDBRANCH  19  20
ENDBRANCH  18  19
ENDBRANCH   9  18
TORSDOF 4
ENDMDL
