MODEL 1
REMARK VINA RESULT:      -8.6      0.000      0.000
REMARK  Name = 
REMARK  8 active torsions:
REMARK  status: ('A' for Active; 'I' for Inactive)
REMARK    1  A    between atoms: C_2  and  C_3
REMARK    2  A    between atoms: N_5  and  C_6
REMARK    3  A    between atoms: C_6  and  C_7
REMARK    4  A    between atoms: C_6  and  C_8
REMARK    5  A    between atoms: N_10  and  C_11
REMARK    6  A    between atoms: C_11  and  C_12
REMARK    7  A    between atoms: C_12  and  C_13
REMARK    8  A    between atoms: C_16  and  C_17
REMARK                            x       y       z     vdW  Elec       q    Type
REMARK                         _______ _______ _______ _____ _____    ______ ____
ROOT
ATOM      1  C   UNL     1       5.755   5.828  18.010  0.00  0.00    +0.000 A 
ATOM      2  C   UNL     1       4.743   6.743  18.241  0.00  0.00    +0.000 A 
ATOM      3  C   UNL     1       3.705   6.105  18.976  0.00  0.00    +0.000 A 
ATOM      4  C   UNL     1       2.439   6.456  19.498  0.00  0.00    +0.000 A 
ATOM      5  C   UNL     1       1.723   5.449  20.159  0.00  0.00    +0.000 A 
ATOM      6  C   UNL     1       2.297   4.194  20.318  0.00  0.00    +0.000 A 
ATOM      7  N   UNL     1       3.507   3.820  19.859  0.00  0.00    +0.000 NA
ATOM      8  C   UNL     1       4.145   4.801  19.198  0.00  0.00    +0.000 A 
ATOM      9  N   UNL     1       5.375   4.653  18.614  0.00  0.00    +0.000 N 
ATOM     10  H   UNL     1       5.899   3.792  18.638  0.00  0.00    +0.000 HD
ENDROOT
BRANCH   4  11
ATOM     11  C   UNL     1       1.914   7.800  19.316  0.00  0.00    +0.000 A 
ATOM     12  C   UNL     1       1.816   8.587  18.141  0.00  0.00    +0.000 A 
ATOM     13  N   UNL     1       1.278   9.789  18.350  0.00  0.00    +0.000 NA
ATOM     14  N   UNL     1       1.002   9.791  19.660  0.00  0.00    +0.000 N 
ATOM     15  N   UNL     1       0.395  10.871  20.206  0.00  0.00    +0.000 NA
ATOM     16  C   UNL     1       0.180  10.739  21.473  0.00  0.00    +0.000 A 
ATOM     17  C   UNL     1       0.541   9.570  22.307  0.00  0.00    +0.000 A 
ATOM     18  C   UNL     1       1.150   8.549  21.694  0.00  0.00    +0.000 A 
ATOM     19  C   UNL     1       1.380   8.621  20.297  0.00  0.00    +0.000 A 
ENDBRANCH   4  11
BRANCH   1  20
ATOM     20  C   UNL     1       7.049   5.956  17.268  0.00  0.00    +0.000 C 
BRANCH  20  21
ATOM     21  C   UNL     1       7.596   4.596  16.819  0.00  0.00    +0.000 C 
BRANCH  21  24
ATOM     22  C   UNL     1       6.405   4.044  14.711  0.00  0.00    +0.000 C 
ATOM     23  O   UNL     1       5.338   3.799  15.271  0.00  0.00    +0.000 OA
ATOM     24  N   UNL     1       7.542   4.415  15.388  0.00  0.00    +0.000 N 
ATOM     25  H   UNL     1       8.341   4.729  14.832  0.00  0.00    +0.000 HD
BRANCH  22  26
ATOM     26  C   UNL     1       6.570   3.931  13.177  0.00  0.00    +0.000 C 
ATOM     27  C   UNL     1       7.485   5.015  12.615  0.00  0.00    +0.000 C 
BRANCH  26  30
ATOM     28  C   UNL     1       4.915   2.811  11.675  0.00  0.00    +0.000 C 
ATOM     29  O   UNL     1       5.632   1.850  11.429  0.00  0.00    +0.000 OA
ATOM     30  N   UNL     1       5.275   3.849  12.493  0.00  0.00    +0.000 N 
ATOM     31  H   UNL     1       4.651   4.636  12.608  0.00  0.00    +0.000 HD
BRANCH  28  33
ATOM     32  C   UNL     1       3.398   3.967  10.158  0.00  0.00    +0.000 C 
ATOM     33  C   UNL     1       3.584   2.982  11.047  0.00  0.00    +0.000 C 
ENDBRANCH  28  33
ENDBRANCH  26  30
ENDBRANCH  22  26
ENDBRANCH  21  24
ENDBRANCH  20  21
ENDBRANCH   1  20
TORSDOF 7
ENDMDL
MODEL 2
REMARK VINA RESULT:      -8.6      1.375      1.620
REMARK  Name = 
REMARK  8 active torsions:
REMARK  status: ('A' for Active; 'I' for Inactive)
REMARK    1  A    between atoms: C_2  and  C_3
REMARK    2  A    between atoms: N_5  and  C_6
REMARK    3  A    between atoms: C_6  and  C_7
REMARK    4  A    between atoms: C_6  and  C_8
REMARK    5  A    between atoms: N_10  and  C_11
REMARK    6  A    between atoms: C_11  and  C_12
REMARK    7  A    between atoms: C_12  and  C_13
REMARK    8  A    between atoms: C_16  and  C_17
REMARK                            x       y       z     vdW  Elec       q    Type
REMARK                         _______ _______ _______ _____ _____    ______ ____
ROOT
ATOM      1  C   UNL     1       6.164   5.239  18.940  0.00  0.00    +0.000 A 
ATOM      2  C   UNL     1       5.147   6.176  18.894  0.00  0.00    +0.000 A 
ATOM      3  C   UNL     1       3.920   5.540  19.234  0.00  0.00    +0.000 A 
ATOM      4  C   UNL     1       2.561   5.908  19.355  0.00  0.00    +0.000 A 
ATOM      5  C   UNL     1       1.657   4.896  19.706  0.00  0.00    +0.000 A 
ATOM      6  C   UNL     1       2.131   3.617  19.967  0.00  0.00    +0.000 A 
ATOM      7  N   UNL     1       3.417   3.224  19.887  0.00  0.00    +0.000 NA
ATOM      8  C   UNL     1       4.246   4.213  19.511  0.00  0.00    +0.000 A 
ATOM      9  N   UNL     1       5.594   4.051  19.332  0.00  0.00    +0.000 N 
ATOM     10  H   UNL     1       6.069   3.172  19.471  0.00  0.00    +0.000 HD
ENDROOT
BRANCH   4  11
ATOM     11  C   UNL     1       2.142   7.276  19.091  0.00  0.00    +0.000 A 
ATOM     12  C   UNL     1       2.197   8.029  17.891  0.00  0.00    +0.000 A 
ATOM     13  N   UNL     1       1.722   9.268  18.020  0.00  0.00    +0.000 NA
ATOM     14  N   UNL     1       1.336   9.331  19.301  0.00  0.00    +0.000 N 
ATOM     15  N   UNL     1       0.758  10.464  19.762  0.00  0.00    +0.000 NA
ATOM     16  C   UNL     1       0.427  10.387  21.008  0.00  0.00    +0.000 A 
ATOM     17  C   UNL     1       0.639   9.226  21.903  0.00  0.00    +0.000 A 
ATOM     18  C   UNL     1       1.230   8.149  21.373  0.00  0.00    +0.000 A 
ATOM     19  C   UNL     1       1.582   8.161  19.999  0.00  0.00    +0.000 A 
ENDBRANCH   4  11
BRANCH   1  20
ATOM     20  C   UNL     1       7.628   5.357  18.644  0.00  0.00    +0.000 C 
BRANCH  20  21
ATOM     21  C   UNL     1       8.064   4.434  17.501  0.00  0.00    +0.000 C 
BRANCH  21  24
ATOM     22  C   UNL     1       6.969   4.705  15.288  0.00  0.00    +0.000 C 
ATOM     23  O   UNL     1       7.823   5.477  14.858  0.00  0.00    +0.000 OA
ATOM     24  N   UNL     1       7.004   4.175  16.556  0.00  0.00    +0.000 N 
ATOM     25  H   UNL     1       6.328   3.441  16.779  0.00  0.00    +0.000 HD
BRANCH  22  26
ATOM     26  C   UNL     1       5.750   4.277  14.438  0.00  0.00    +0.000 C 
ATOM     27  C   UNL     1       4.514   4.015  15.294  0.00  0.00    +0.000 C 
BRANCH  26  30
ATOM     28  C   UNL     1       5.580   3.059  12.262  0.00  0.00    +0.000 C 
ATOM     29  O   UNL     1       4.815   3.864  11.750  0.00  0.00    +0.000 OA
ATOM     30  N   UNL     1       6.077   3.170  13.533  0.00  0.00    +0.000 N 
ATOM     31  H   UNL     1       6.664   2.436  13.908  0.00  0.00    +0.000 HD
BRANCH  28  33
ATOM     32  C   UNL     1       7.156   1.813  10.881  0.00  0.00    +0.000 C 
ATOM     33  C   UNL     1       6.003   1.821  11.564  0.00  0.00    +0.000 C 
ENDBRANCH  28  33
ENDBRANCH  26  30
ENDBRANCH  22  26
ENDBRANCH  21  24
ENDBRANCH  20  21
ENDBRANCH   1  20
TORSDOF 7
ENDMDL
MODEL 3
REMARK VINA RESULT:      -8.4      1.547      2.218
REMARK  Name = 
REMARK  8 active torsions:
REMARK  status: ('A' for Active; 'I' for Inactive)
REMARK    1  A    between atoms: C_2  and  C_3
REMARK    2  A    between atoms: N_5  and  C_6
REMARK    3  A    between atoms: C_6  and  C_7
REMARK    4  A    between atoms: C_6  and  C_8
REMARK    5  A    between atoms: N_10  and  C_11
REMARK    6  A    between atoms: C_11  and  C_12
REMARK    7  A    between atoms: C_12  and  C_13
REMARK    8  A    between atoms: C_16  and  C_17
REMARK                            x       y       z     vdW  Elec       q    Type
REMARK                         _______ _______ _______ _____ _____    ______ ____
ROOT
ATOM      1  C   UNL     1       5.926   5.053  19.168  0.00  0.00    +0.000 A 
ATOM      2  C   UNL     1       4.863   5.871  19.507  0.00  0.00    +0.000 A 
ATOM      3  C   UNL     1       3.693   5.072  19.644  0.00  0.00    +0.000 A 
ATOM      4  C   UNL     1       2.328   5.278  19.947  0.00  0.00    +0.000 A 
ATOM      5  C   UNL     1       1.499   4.148  19.944  0.00  0.00    +0.000 A 
ATOM      6  C   UNL     1       2.051   2.896  19.703  0.00  0.00    +0.000 A 
ATOM      7  N   UNL     1       3.347   2.648  19.433  0.00  0.00    +0.000 NA
ATOM      8  C   UNL     1       4.101   3.760  19.407  0.00  0.00    +0.000 A 
ATOM      9  N   UNL     1       5.442   3.767  19.126  0.00  0.00    +0.000 N 
ATOM     10  H   UNL     1       5.967   2.932  18.916  0.00  0.00    +0.000 HD
ENDROOT
BRANCH   4  11
ATOM     11  C   UNL     1       1.826   6.616  20.215  0.00  0.00    +0.000 A 
ATOM     12  C   UNL     1       1.227   7.147  21.385  0.00  0.00    +0.000 A 
ATOM     13  N   UNL     1       0.882   8.429  21.270  0.00  0.00    +0.000 NA
ATOM     14  N   UNL     1       1.269   8.755  20.031  0.00  0.00    +0.000 N 
ATOM     15  N   UNL     1       1.101  10.026  19.598  0.00  0.00    +0.000 NA
ATOM     16  C   UNL     1       1.524  10.205  18.391  0.00  0.00    +0.000 A 
ATOM     17  C   UNL     1       2.126   9.177  17.510  0.00  0.00    +0.000 A 
ATOM     18  C   UNL     1       2.245   7.942  18.008  0.00  0.00    +0.000 A 
ATOM     19  C   UNL     1       1.831   7.693  19.342  0.00  0.00    +0.000 A 
ENDBRANCH   4  11
BRANCH   1  20
ATOM     20  C   UNL     1       7.360   5.370  18.875  0.00  0.00    +0.000 C 
BRANCH  20  21
ATOM     21  C   UNL     1       7.933   4.485  17.762  0.00  0.00    +0.000 C 
BRANCH  21  24
ATOM     22  C   UNL     1       6.457   4.239  15.780  0.00  0.00    +0.000 C 
ATOM     23  O   UNL     1       5.865   3.260  16.228  0.00  0.00    +0.000 OA
ATOM     24  N   UNL     1       7.476   4.873  16.449  0.00  0.00    +0.000 N 
ATOM     25  H   UNL     1       7.817   5.756  16.062  0.00  0.00    +0.000 HD
BRANCH  22  26
ATOM     26  C   UNL     1       6.119   4.837  14.394  0.00  0.00    +0.000 C 
ATOM     27  C   UNL     1       5.255   6.089  14.501  0.00  0.00    +0.000 C 
BRANCH  26  30
ATOM     28  C   UNL     1       6.206   3.409  12.344  0.00  0.00    +0.000 C 
ATOM     29  O   UNL     1       7.290   3.832  11.967  0.00  0.00    +0.000 OA
ATOM     30  N   UNL     1       5.570   3.827  13.483  0.00  0.00    +0.000 N 
ATOM     31  H   UNL     1       4.650   3.470  13.702  0.00  0.00    +0.000 HD
BRANCH  28  33
ATOM     32  C   UNL     1       6.031   1.326  11.089  0.00  0.00    +0.000 C 
ATOM     33  C   UNL     1       5.425   2.428  11.552  0.00  0.00    +0.000 C 
ENDBRANCH  28  33
ENDBRANCH  26  30
ENDBRANCH  22  26
ENDBRANCH  21  24
ENDBRANCH  20  21
ENDBRANCH   1  20
TORSDOF 7
ENDMDL
MODEL 4
REMARK VINA RESULT:      -8.4      4.977      8.436
REMARK  Name = 
REMARK  8 active torsions:
REMARK  status: ('A' for Active; 'I' for Inactive)
REMARK    1  A    between atoms: C_2  and  C_3
REMARK    2  A    between atoms: N_5  and  C_6
REMARK    3  A    between atoms: C_6  and  C_7
REMARK    4  A    between atoms: C_6  and  C_8
REMARK    5  A    between atoms: N_10  and  C_11
REMARK    6  A    between atoms: C_11  and  C_12
REMARK    7  A    between atoms: C_12  and  C_13
REMARK    8  A    between atoms: C_16  and  C_17
REMARK                            x       y       z     vdW  Elec       q    Type
REMARK                         _______ _______ _______ _____ _____    ______ ____
ROOT
ATOM      1  C   UNL     1       7.568   6.812  17.833  0.00  0.00    +0.000 A 
ATOM      2  C   UNL     1       6.588   5.940  18.273  0.00  0.00    +0.000 A 
ATOM      3  C   UNL     1       6.029   5.272  17.148  0.00  0.00    +0.000 A 
ATOM      4  C   UNL     1       5.022   4.309  16.909  0.00  0.00    +0.000 A 
ATOM      5  C   UNL     1       4.788   3.952  15.574  0.00  0.00    +0.000 A 
ATOM      6  C   UNL     1       5.573   4.504  14.571  0.00  0.00    +0.000 A 
ATOM      7  N   UNL     1       6.558   5.405  14.750  0.00  0.00    +0.000 NA
ATOM      8  C   UNL     1       6.726   5.750  16.039  0.00  0.00    +0.000 A 
ATOM      9  N   UNL     1       7.645   6.671  16.468  0.00  0.00    +0.000 N 
ATOM     10  H   UNL     1       8.270   7.160  15.846  0.00  0.00    +0.000 HD
ENDROOT
BRANCH   4  11
ATOM     11  C   UNL     1       4.256   3.755  18.014  0.00  0.00    +0.000 A 
ATOM     12  C   UNL     1       4.165   2.418  18.479  0.00  0.00    +0.000 A 
ATOM     13  N   UNL     1       3.354   2.275  19.527  0.00  0.00    +0.000 NA
ATOM     14  N   UNL     1       2.922   3.519  19.770  0.00  0.00    +0.000 N 
ATOM     15  N   UNL     1       2.096   3.739  20.819  0.00  0.00    +0.000 NA
ATOM     16  C   UNL     1       1.764   4.981  20.943  0.00  0.00    +0.000 A 
ATOM     17  C   UNL     1       2.187   6.095  20.065  0.00  0.00    +0.000 A 
ATOM     18  C   UNL     1       2.993   5.792  19.041  0.00  0.00    +0.000 A 
ATOM     19  C   UNL     1       3.422   4.451  18.876  0.00  0.00    +0.000 A 
ENDBRANCH   4  11
BRANCH   1  20
ATOM     20  C   UNL     1       8.439   7.774  18.582  0.00  0.00    +0.000 C 
BRANCH  20  21
ATOM     21  C   UNL     1       8.265   9.215  18.091  0.00  0.00    +0.000 C 
BRANCH  21  24
ATOM     22  C   UNL     1       9.820  10.977  18.895  0.00  0.00    +0.000 C 
ATOM     23  O   UNL     1      10.567  10.891  17.923  0.00  0.00    +0.000 OA
ATOM     24  N   UNL     1       8.703  10.192  19.059  0.00  0.00    +0.000 N 
ATOM     25  H   UNL     1       8.071  10.426  19.827  0.00  0.00    +0.000 HD
BRANCH  22  26
ATOM     26  C   UNL     1      10.089  11.972  20.049  0.00  0.00    +0.000 C 
ATOM     27  C   UNL     1      11.570  12.317  20.179  0.00  0.00    +0.000 C 
BRANCH  26  30
ATOM     28  C   UNL     1       8.487  12.210  21.953  0.00  0.00    +0.000 C 
ATOM     29  O   UNL     1       8.004  13.260  21.552  0.00  0.00    +0.000 OA
ATOM     30  N   UNL     1       9.482  11.526  21.308  0.00  0.00    +0.000 N 
ATOM     31  H   UNL     1       9.870  10.691  21.727  0.00  0.00    +0.000 HD
BRANCH  28  33
ATOM     32  C   UNL     1       8.551  12.102  24.387  0.00  0.00    +0.000 C 
ATOM     33  C   UNL     1       8.080  11.596  23.240  0.00  0.00    +0.000 C 
ENDBRANCH  28  33
ENDBRANCH  26  30
ENDBRANCH  22  26
ENDBRANCH  21  24
ENDBRANCH  20  21
ENDBRANCH   1  20
TORSDOF 7
ENDMDL
MODEL 5
REMARK VINA RESULT:      -8.4      5.061      8.228
REMARK  Name = 
REMARK  8 active torsions:
REMARK  status: ('A' for Active; 'I' for Inactive)
REMARK    1  A    between atoms: C_2  and  C_3
REMARK    2  A    between atoms: N_5  and  C_6
REMARK    3  A    between atoms: C_6  and  C_7
REMARK    4  A    between atoms: C_6  and  C_8
REMARK    5  A    between atoms: N_10  and  C_11
REMARK    6  A    between atoms: C_11  and  C_12
REMARK    7  A    between atoms: C_12  and  C_13
REMARK    8  A    between atoms: C_16  and  C_17
REMARK                            x       y       z     vdW  Elec       q    Type
REMARK                         _______ _______ _______ _____ _____    ______ ____
ROOT
ATOM      1  C   UNL     1       7.553   6.998  17.784  0.00  0.00    +0.000 A 
ATOM      2  C   UNL     1       6.557   6.172  18.274  0.00  0.00    +0.000 A 
ATOM      3  C   UNL     1       6.057   5.372  17.208  0.00  0.00    +0.000 A 
ATOM      4  C   UNL     1       5.067   4.378  17.035  0.00  0.00    +0.000 A 
ATOM      5  C   UNL     1       4.900   3.866  15.741  0.00  0.00    +0.000 A 
ATOM      6  C   UNL     1       5.731   4.306  14.719  0.00  0.00    +0.000 A 
ATOM      7  N   UNL     1       6.701   5.233  14.840  0.00  0.00    +0.000 NA
ATOM      8  C   UNL     1       6.804   5.727  16.086  0.00  0.00    +0.000 A 
ATOM      9  N   UNL     1       7.696   6.701  16.450  0.00  0.00    +0.000 N 
ATOM     10  H   UNL     1       8.348   7.122  15.806  0.00  0.00    +0.000 HD
ENDROOT
BRANCH   4  11
ATOM     11  C   UNL     1       4.251   3.947  18.159  0.00  0.00    +0.000 A 
ATOM     12  C   UNL     1       4.134   2.668  18.762  0.00  0.00    +0.000 A 
ATOM     13  N   UNL     1       3.277   2.640  19.782  0.00  0.00    +0.000 NA
ATOM     14  N   UNL     1       2.841   3.903  19.869  0.00  0.00    +0.000 N 
ATOM     15  N   UNL     1       1.971   4.235  20.852  0.00  0.00    +0.000 NA
ATOM     16  C   UNL     1       1.639   5.483  20.826  0.00  0.00    +0.000 A 
ATOM     17  C   UNL     1       2.106   6.496  19.851  0.00  0.00    +0.000 A 
ATOM     18  C   UNL     1       2.954   6.083  18.903  0.00  0.00    +0.000 A 
ATOM     19  C   UNL     1       3.384   4.732  18.903  0.00  0.00    +0.000 A 
ENDBRANCH   4  11
BRANCH   1  20
ATOM     20  C   UNL     1       8.381   8.049  18.456  0.00  0.00    +0.000 C 
BRANCH  20  21
ATOM     21  C   UNL     1       8.179   9.434  17.831  0.00  0.00    +0.000 C 
BRANCH  21  24
ATOM     22  C   UNL     1       9.109  11.731  17.992  0.00  0.00    +0.000 C 
ATOM     23  O   UNL     1       8.171  12.252  17.394  0.00  0.00    +0.000 OA
ATOM     24  N   UNL     1       9.196  10.379  18.225  0.00  0.00    +0.000 N 
ATOM     25  H   UNL     1       9.941  10.054  18.845  0.00  0.00    +0.000 HD
BRANCH  22  26
ATOM     26  C   UNL     1      10.304  12.559  18.520  0.00  0.00    +0.000 C 
ATOM     27  C   UNL     1      11.604  11.759  18.521  0.00  0.00    +0.000 C 
BRANCH  26  30
ATOM     28  C   UNL     1       9.660  12.483  20.934  0.00  0.00    +0.000 C 
ATOM     29  O   UNL     1       9.562  11.264  20.978  0.00  0.00    +0.000 OA
ATOM     30  N   UNL     1      10.006  13.187  19.811  0.00  0.00    +0.000 N 
ATOM     31  H   UNL     1      10.014  14.198  19.836  0.00  0.00    +0.000 HD
BRANCH  28  33
ATOM     32  C   UNL     1       9.066  14.638  21.906  0.00  0.00    +0.000 C 
ATOM     33  C   UNL     1       9.343  13.341  22.100  0.00  0.00    +0.000 C 
ENDBRANCH  28  33
ENDBRANCH  26  30
ENDBRANCH  22  26
ENDBRANCH  21  24
ENDBRANCH  20  21
ENDBRANCH   1  20
TORSDOF 7
ENDMDL
MODEL 6
REMARK VINA RESULT:      -8.3      5.595      8.511
REMARK  Name = 
REMARK  8 active torsions:
REMARK  status: ('A' for Active; 'I' for Inactive)
REMARK    1  A    between atoms: C_2  and  C_3
REMARK    2  A    between atoms: N_5  and  C_6
REMARK    3  A    between atoms: C_6  and  C_7
REMARK    4  A    between atoms: C_6  and  C_8
REMARK    5  A    between atoms: N_10  and  C_11
REMARK    6  A    between atoms: C_11  and  C_12
REMARK    7  A    between atoms: C_12  and  C_13
REMARK    8  A    between atoms: C_16  and  C_17
REMARK                            x       y       z     vdW  Elec       q    Type
REMARK                         _______ _______ _______ _____ _____    ______ ____
ROOT
ATOM      1  C   UNL     1       7.591   7.054  17.843  0.00  0.00    +0.000 A 
ATOM      2  C   UNL     1       6.603   6.220  18.337  0.00  0.00    +0.000 A 
ATOM      3  C   UNL     1       6.093   5.429  17.269  0.00  0.00    +0.000 A 
ATOM      4  C   UNL     1       5.105   4.433  17.097  0.00  0.00    +0.000 A 
ATOM      5  C   UNL     1       4.924   3.934  15.800  0.00  0.00    +0.000 A 
ATOM      6  C   UNL     1       5.741   4.388  14.773  0.00  0.00    +0.000 A 
ATOM      7  N   UNL     1       6.710   5.316  14.892  0.00  0.00    +0.000 NA
ATOM      8  C   UNL     1       6.826   5.798  16.142  0.00  0.00    +0.000 A 
ATOM      9  N   UNL     1       7.720   6.770  16.505  0.00  0.00    +0.000 N 
ATOM     10  H   UNL     1       8.363   7.200  15.857  0.00  0.00    +0.000 HD
ENDROOT
BRANCH   4  11
ATOM     11  C   UNL     1       4.304   3.989  18.227  0.00  0.00    +0.000 A 
ATOM     12  C   UNL     1       4.226   2.713  18.841  0.00  0.00    +0.000 A 
ATOM     13  N   UNL     1       3.372   2.668  19.864  0.00  0.00    +0.000 NA
ATOM     14  N   UNL     1       2.897   3.918  19.939  0.00  0.00    +0.000 N 
ATOM     15  N   UNL     1       2.019   4.233  20.920  0.00  0.00    +0.000 NA
ATOM     16  C   UNL     1       1.649   5.470  20.882  0.00  0.00    +0.000 A 
ATOM     17  C   UNL     1       2.083   6.487  19.898  0.00  0.00    +0.000 A 
ATOM     18  C   UNL     1       2.943   6.091  18.952  0.00  0.00    +0.000 A 
ATOM     19  C   UNL     1       3.414   4.754  18.964  0.00  0.00    +0.000 A 
ENDBRANCH   4  11
BRANCH   1  20
ATOM     20  C   UNL     1       8.424   8.100  18.517  0.00  0.00    +0.000 C 
BRANCH  20  21
ATOM     21  C   UNL     1       8.188   9.496  17.928  0.00  0.00    +0.000 C 
BRANCH  21  24
ATOM     22  C   UNL     1       9.213  11.758  17.950  0.00  0.00    +0.000 C 
ATOM     23  O   UNL     1       8.235  12.307  17.449  0.00  0.00    +0.000 OA
ATOM     24  N   UNL     1       9.276  10.407  18.194  0.00  0.00    +0.000 N 
ATOM     25  H   UNL     1      10.072  10.061  18.734  0.00  0.00    +0.000 HD
BRANCH  22  26
ATOM     26  C   UNL     1      10.489  12.546  18.331  0.00  0.00    +0.000 C 
ATOM     27  C   UNL     1      11.618  11.628  18.789  0.00  0.00    +0.000 C 
BRANCH  26  30
ATOM     28  C   UNL     1      10.129  14.949  18.918  0.00  0.00    +0.000 C 
ATOM     29  O   UNL     1      10.302  15.362  17.779  0.00  0.00    +0.000 OA
ATOM     30  N   UNL     1      10.199  13.629  19.276  0.00  0.00    +0.000 N 
ATOM     31  H   UNL     1      10.097  13.368  20.248  0.00  0.00    +0.000 HD
BRANCH  28  33
ATOM     32  C   UNL     1      10.921  16.270  20.807  0.00  0.00    +0.000 C 
ATOM     33  C   UNL     1       9.887  15.864  20.059  0.00  0.00    +0.000 C 
ENDBRANCH  28  33
ENDBRANCH  26  30
ENDBRANCH  22  26
ENDBRANCH  21  24
ENDBRANCH  20  21
ENDBRANCH   1  20
TORSDOF 7
ENDMDL
MODEL 7
REMARK VINA RESULT:      -8.3      0.979      1.615
REMARK  Name = 
REMARK  8 active torsions:
REMARK  status: ('A' for Active; 'I' for Inactive)
REMARK    1  A    between atoms: C_2  and  C_3
REMARK    2  A    between atoms: N_5  and  C_6
REMARK    3  A    between atoms: C_6  and  C_7
REMARK    4  A    between atoms: C_6  and  C_8
REMARK    5  A    between atoms: N_10  and  C_11
REMARK    6  A    between atoms: C_11  and  C_12
REMARK    7  A    between atoms: C_12  and  C_13
REMARK    8  A    between atoms: C_16  and  C_17
REMARK                            x       y       z     vdW  Elec       q    Type
REMARK                         _______ _______ _______ _____ _____    ______ ____
ROOT
ATOM      1  C   UNL     1       5.337   6.022  17.688  0.00  0.00    +0.000 A 
ATOM      2  C   UNL     1       4.410   6.741  18.422  0.00  0.00    +0.000 A 
ATOM      3  C   UNL     1       3.407   5.849  18.895  0.00  0.00    +0.000 A 
ATOM      4  C   UNL     1       2.220   5.934  19.657  0.00  0.00    +0.000 A 
ATOM      5  C   UNL     1       1.508   4.744  19.860  0.00  0.00    +0.000 A 
ATOM      6  C   UNL     1       2.014   3.551  19.363  0.00  0.00    +0.000 A 
ATOM      7  N   UNL     1       3.151   3.416  18.652  0.00  0.00    +0.000 NA
ATOM      8  C   UNL     1       3.784   4.583  18.446  0.00  0.00    +0.000 A 
ATOM      9  N   UNL     1       4.943   4.706  17.727  0.00  0.00    +0.000 N 
ATOM     10  H   UNL     1       5.412   3.924  17.296  0.00  0.00    +0.000 HD
ENDROOT
BRANCH   4  11
ATOM     11  C   UNL     1       1.764   7.217  20.168  0.00  0.00    +0.000 A 
ATOM     12  C   UNL     1       1.379   7.589  21.482  0.00  0.00    +0.000 A 
ATOM     13  N   UNL     1       1.009   8.866  21.584  0.00  0.00    +0.000 NA
ATOM     14  N   UNL     1       1.167   9.345  20.344  0.00  0.00    +0.000 N 
ATOM     15  N   UNL     1       0.913  10.653  20.104  0.00  0.00    +0.000 NA
ATOM     16  C   UNL     1       1.113  10.984  18.872  0.00  0.00    +0.000 A 
ATOM     17  C   UNL     1       1.555  10.085  17.781  0.00  0.00    +0.000 A 
ATOM     18  C   UNL     1       1.771   8.803  18.099  0.00  0.00    +0.000 A 
ATOM     19  C   UNL     1       1.604   8.389  19.444  0.00  0.00    +0.000 A 
ENDBRANCH   4  11
BRANCH   1  20
ATOM     20  C   UNL     1       6.562   6.462  16.946  0.00  0.00    +0.000 C 
BRANCH  20  21
ATOM     21  C   UNL     1       7.444   5.279  16.532  0.00  0.00    +0.000 C 
BRANCH  21  24
ATOM     22  C   UNL     1       6.552   4.070  14.555  0.00  0.00    +0.000 C 
ATOM     23  O   UNL     1       5.804   3.353  15.216  0.00  0.00    +0.000 OA
ATOM     24  N   UNL     1       7.386   5.007  15.116  0.00  0.00    +0.000 N 
ATOM     25  H   UNL     1       7.870   5.648  14.482  0.00  0.00    +0.000 HD
BRANCH  22  26
ATOM     26  C   UNL     1       6.640   3.961  13.014  0.00  0.00    +0.000 C 
ATOM     27  C   UNL     1       7.554   5.025  12.413  0.00  0.00    +0.000 C 
BRANCH  26  30
ATOM     28  C   UNL     1       4.867   2.866  11.633  0.00  0.00    +0.000 C 
ATOM     29  O   UNL     1       5.527   1.865  11.391  0.00  0.00    +0.000 OA
ATOM     30  N   UNL     1       5.312   3.915  12.393  0.00  0.00    +0.000 N 
ATOM     31  H   UNL     1       4.730   4.735  12.506  0.00  0.00    +0.000 HD
BRANCH  28  33
ATOM     32  C   UNL     1       3.365   3.917  10.026  0.00  0.00    +0.000 C 
ATOM     33  C   UNL     1       3.517   3.078  11.060  0.00  0.00    +0.000 C 
ENDBRANCH  28  33
ENDBRANCH  26  30
ENDBRANCH  22  26
ENDBRANCH  21  24
ENDBRANCH  20  21
ENDBRANCH   1  20
TORSDOF 7
ENDMDL
MODEL 8
REMARK VINA RESULT:      -8.3      3.343      8.402
REMARK  Name = 
REMARK  8 active torsions:
REMARK  status: ('A' for Active; 'I' for Inactive)
REMARK    1  A    between atoms: C_2  and  C_3
REMARK    2  A    between atoms: N_5  and  C_6
REMARK    3  A    between atoms: C_6  and  C_7
REMARK    4  A    between atoms: C_6  and  C_8
REMARK    5  A    between atoms: N_10  and  C_11
REMARK    6  A    between atoms: C_11  and  C_12
REMARK    7  A    between atoms: C_12  and  C_13
REMARK    8  A    between atoms: C_16  and  C_17
REMARK                            x       y       z     vdW  Elec       q    Type
REMARK                         _______ _______ _______ _____ _____    ______ ____
ROOT
ATOM      1  C   UNL     1       1.690   5.941  20.452  0.00  0.00    +0.000 A 
ATOM      2  C   UNL     1       2.874   5.842  19.741  0.00  0.00    +0.000 A 
ATOM      3  C   UNL     1       3.060   4.487  19.348  0.00  0.00    +0.000 A 
ATOM      4  C   UNL     1       4.029   3.737  18.642  0.00  0.00    +0.000 A 
ATOM      5  C   UNL     1       3.797   2.361  18.513  0.00  0.00    +0.000 A 
ATOM      6  C   UNL     1       2.627   1.814  19.023  0.00  0.00    +0.000 A 
ATOM      7  N   UNL     1       1.665   2.490  19.681  0.00  0.00    +0.000 NA
ATOM      8  C   UNL     1       1.943   3.798  19.818  0.00  0.00    +0.000 A 
ATOM      9  N   UNL     1       1.132   4.686  20.475  0.00  0.00    +0.000 N 
ATOM     10  H   UNL     1       0.260   4.422  20.907  0.00  0.00    +0.000 HD
ENDROOT
BRANCH   4  11
ATOM     11  C   UNL     1       5.219   4.384  18.113  0.00  0.00    +0.000 A 
ATOM     12  C   UNL     1       6.257   5.075  18.789  0.00  0.00    +0.000 A 
ATOM     13  N   UNL     1       7.198   5.548  17.972  0.00  0.00    +0.000 NA
ATOM     14  N   UNL     1       6.795   5.155  16.757  0.00  0.00    +0.000 N 
ATOM     15  N   UNL     1       7.565   5.440  15.681  0.00  0.00    +0.000 NA
ATOM     16  C   UNL     1       7.065   4.998  14.576  0.00  0.00    +0.000 A 
ATOM     17  C   UNL     1       5.788   4.263  14.421  0.00  0.00    +0.000 A 
ATOM     18  C   UNL     1       5.080   4.032  15.533  0.00  0.00    +0.000 A 
ATOM     19  C   UNL     1       5.597   4.462  16.781  0.00  0.00    +0.000 A 
ENDBRANCH   4  11
BRANCH   1  20
ATOM     20  C   UNL     1       1.036   7.113  21.117  0.00  0.00    +0.000 C 
BRANCH  20  21
ATOM     21  C   UNL     1       1.757   8.430  20.810  0.00  0.00    +0.000 C 
BRANCH  21  24
ATOM     22  C   UNL     1       0.887   9.683  18.850  0.00  0.00    +0.000 C 
ATOM     23  O   UNL     1       1.645   9.139  18.050  0.00  0.00    +0.000 OA
ATOM     24  N   UNL     1       0.893   9.410  20.197  0.00  0.00    +0.000 N 
ATOM     25  H   UNL     1       0.139   9.809  20.762  0.00  0.00    +0.000 HD
BRANCH  22  26
ATOM     26  C   UNL     1      -0.137  10.755  18.408  0.00  0.00    +0.000 C 
ATOM     27  C   UNL     1       0.021  12.058  19.187  0.00  0.00    +0.000 C 
BRANCH  26  30
ATOM     28  C   UNL     1      -2.448  10.569  17.473  0.00  0.00    +0.000 C 
ATOM     29  O   UNL     1      -2.244  11.332  16.539  0.00  0.00    +0.000 OA
ATOM     30  N   UNL     1      -1.508  10.236  18.413  0.00  0.00    +0.000 N 
ATOM     31  H   UNL     1      -1.765   9.641  19.189  0.00  0.00    +0.000 HD
BRANCH  28  33
ATOM     32  C   UNL     1      -4.830  10.770  17.947  0.00  0.00    +0.000 C 
ATOM     33  C   UNL     1      -3.780   9.969  17.725  0.00  0.00    +0.000 C 
ENDBRANCH  28  33
ENDBRANCH  26  30
ENDBRANCH  22  26
ENDBRANCH  21  24
ENDBRANCH  20  21
ENDBRANCH   1  20
TORSDOF 7
ENDMDL
MODEL 9
REMARK VINA RESULT:      -8.3      3.796      8.657
REMARK  Name = 
REMARK  8 active torsions:
REMARK  status: ('A' for Active; 'I' for Inactive)
REMARK    1  A    between atoms: C_2  and  C_3
REMARK    2  A    between atoms: N_5  and  C_6
REMARK    3  A    between atoms: C_6  and  C_7
REMARK    4  A    between atoms: C_6  and  C_8
REMARK    5  A    between atoms: N_10  and  C_11
REMARK    6  A    between atoms: C_11  and  C_12
REMARK    7  A    between atoms: C_12  and  C_13
REMARK    8  A    between atoms: C_16  and  C_17
REMARK                            x       y       z     vdW  Elec       q    Type
REMARK                         _______ _______ _______ _____ _____    ______ ____
ROOT
ATOM      1  C   UNL     1       1.941   6.234  20.519  0.00  0.00    +0.000 A 
ATOM      2  C   UNL     1       3.101   6.128  19.773  0.00  0.00    +0.000 A 
ATOM      3  C   UNL     1       3.435   4.751  19.637  0.00  0.00    +0.000 A 
ATOM      4  C   UNL     1       4.462   3.988  19.035  0.00  0.00    +0.000 A 
ATOM      5  C   UNL     1       4.392   2.597  19.187  0.00  0.00    +0.000 A 
ATOM      6  C   UNL     1       3.315   2.035  19.860  0.00  0.00    +0.000 A 
ATOM      7  N   UNL     1       2.303   2.718  20.430  0.00  0.00    +0.000 NA
ATOM      8  C   UNL     1       2.426   4.050  20.296  0.00  0.00    +0.000 A 
ATOM      9  N   UNL     1       1.538   4.954  20.816  0.00  0.00    +0.000 N 
ATOM     10  H   UNL     1       0.720   4.687  21.340  0.00  0.00    +0.000 HD
ENDROOT
BRANCH   4  11
ATOM     11  C   UNL     1       5.546   4.646  18.322  0.00  0.00    +0.000 A 
ATOM     12  C   UNL     1       6.590   5.470  18.813  0.00  0.00    +0.000 A 
ATOM     13  N   UNL     1       7.413   5.907  17.861  0.00  0.00    +0.000 NA
ATOM     14  N   UNL     1       6.927   5.358  16.741  0.00  0.00    +0.000 N 
ATOM     15  N   UNL     1       7.568   5.570  15.568  0.00  0.00    +0.000 NA
ATOM     16  C   UNL     1       6.999   4.977  14.571  0.00  0.00    +0.000 A 
ATOM     17  C   UNL     1       5.771   4.152  14.625  0.00  0.00    +0.000 A 
ATOM     18  C   UNL     1       5.190   4.002  15.820  0.00  0.00    +0.000 A 
ATOM     19  C   UNL     1       5.790   4.599  16.958  0.00  0.00    +0.000 A 
ENDBRANCH   4  11
BRANCH   1  20
ATOM     20  C   UNL     1       1.174   7.435  20.983  0.00  0.00    +0.000 C 
BRANCH  20  21
ATOM     21  C   UNL     1       1.653   8.724  20.307  0.00  0.00    +0.000 C 
BRANCH  21  24
ATOM     22  C   UNL     1       0.185  10.715  20.526  0.00  0.00    +0.000 C 
ATOM     23  O   UNL     1       0.720  11.110  21.560  0.00  0.00    +0.000 OA
ATOM     24  N   UNL     1       0.564   9.567  19.874  0.00  0.00    +0.000 N 
ATOM     25  H   UNL     1       0.155   9.390  18.954  0.00  0.00    +0.000 HD
BRANCH  22  26
ATOM     26  C   UNL     1      -0.995  11.474  19.873  0.00  0.00    +0.000 C 
ATOM     27  C   UNL     1      -1.846  12.211  20.903  0.00  0.00    +0.000 C 
BRANCH  26  30
ATOM     28  C   UNL     1      -2.123  10.952  17.705  0.00  0.00    +0.000 C 
ATOM     29  O   UNL     1      -1.824  12.013  17.173  0.00  0.00    +0.000 OA
ATOM     30  N   UNL     1      -1.776  10.608  18.984  0.00  0.00    +0.000 N 
ATOM     31  H   UNL     1      -2.105   9.735  19.375  0.00  0.00    +0.000 HD
BRANCH  28  33
ATOM     32  C   UNL     1      -3.013   9.916  15.686  0.00  0.00    +0.000 C 
ATOM     33  C   UNL     1      -2.968   9.941  17.025  0.00  0.00    +0.000 C 
ENDBRANCH  28  33
ENDBRANCH  26  30
ENDBRANCH  22  26
ENDBRANCH  21  24
ENDBRANCH  20  21
ENDBRANCH   1  20
TORSDOF 7
ENDMDL
