MODEL 1
REMARK VINA RESULT:      -7.9      0.000      0.000
REMARK  Name = 
REMARK  7 active torsions:
REMARK  status: ('A' for Active; 'I' for Inactive)
REMARK    1  A    between atoms: C_1  and  C_2
REMARK    2  A    between atoms: C_2  and  N_3
REMARK    3  A    between atoms: C_2  and  C_16
REMARK    4  A    between atoms: C_4  and  C_6
REMARK    5  A    between atoms: C_6  and  C_7
REMARK    6  A    between atoms: C_7  and  N_8
REMARK    7  A    between atoms: C_9  and  C_11
REMARK                            x       y       z     vdW  Elec       q    Type
REMARK                         _______ _______ _______ _____ _____    ______ ____
ROOT
ATOM      1  N   UNL     1       4.457   5.964  18.695  0.00  0.00    +0.000 N 
ATOM      2  C   UNL     1       5.321   4.892  18.712  0.00  0.00    +0.000 C 
ATOM      3  O   UNL     1       5.065   3.815  18.185  0.00  0.00    +0.000 OA
ATOM      4  H   UNL     1       4.683   6.793  19.230  0.00  0.00    +0.000 HD
ENDROOT
BRANCH   1   6
ATOM      5  C   UNL     1       2.454   7.245  18.037  0.00  0.00    +0.000 C 
ATOM      6  C   UNL     1       3.150   5.883  18.060  0.00  0.00    +0.000 C 
BRANCH   6   7
ATOM      7  C   UNL     1       2.298   4.831  18.744  0.00  0.00    +0.000 A 
ATOM      8  C   UNL     1       2.083   4.899  20.128  0.00  0.00    +0.000 A 
ATOM      9  C   UNL     1       1.287   3.950  20.773  0.00  0.00    +0.000 A 
ATOM     10  C   UNL     1       0.692   2.929  20.041  0.00  0.00    +0.000 A 
ATOM     11  C   UNL     1       0.896   2.843  18.667  0.00  0.00    +0.000 A 
ATOM     12  C   UNL     1       1.696   3.787  18.021  0.00  0.00    +0.000 A 
ENDBRANCH   6   7
ENDBRANCH   1   6
BRANCH   2  13
ATOM     13  C   UNL     1       6.626   5.180  19.423  0.00  0.00    +0.000 C 
BRANCH  13  14
ATOM     14  C   UNL     1       7.714   5.556  18.420  0.00  0.00    +0.000 C 
BRANCH  14  15
ATOM     15  N   UNL     1       7.483   5.006  17.096  0.00  0.00    +0.000 N 
ATOM     16  C   UNL     1       6.904   5.741  16.081  0.00  0.00    +0.000 C 
ATOM     17  O   UNL     1       6.465   6.873  16.258  0.00  0.00    +0.000 OA
ATOM     18  H   UNL     1       7.945   4.143  16.826  0.00  0.00    +0.000 HD
BRANCH  16  19
ATOM     19  C   UNL     1       6.848   5.063  14.804  0.00  0.00    +0.000 A 
ATOM     20  C   UNL     1       6.049   4.019  14.378  0.00  0.00    +0.000 A 
ATOM     21  C   UNL     1       6.413   3.746  13.041  0.00  0.00    +0.000 A 
ATOM     22  C   UNL     1       7.413   4.636  12.727  0.00  0.00    +0.000 A 
ATOM     23  O   UNL     1       7.689   5.439  13.789  0.00  0.00    +0.000 OA
ENDBRANCH  16  19
ENDBRANCH  14  15
ENDBRANCH  13  14
ENDBRANCH   2  13
TORSDOF 6
ENDMDL
MODEL 2
REMARK VINA RESULT:      -7.6      1.609      2.008
REMARK  Name = 
REMARK  7 active torsions:
REMARK  status: ('A' for Active; 'I' for Inactive)
REMARK    1  A    between atoms: C_1  and  C_2
REMARK    2  A    between atoms: C_2  and  N_3
REMARK    3  A    between atoms: C_2  and  C_16
REMARK    4  A    between atoms: C_4  and  C_6
REMARK    5  A    between atoms: C_6  and  C_7
REMARK    6  A    between atoms: C_7  and  N_8
REMARK    7  A    between atoms: C_9  and  C_11
REMARK                            x       y       z     vdW  Elec       q    Type
REMARK                         _______ _______ _______ _____ _____    ______ ____
ROOT
ATOM      1  N   UNL     1       5.311   3.706  18.660  0.00  0.00    +0.000 N 
ATOM      2  C   UNL     1       5.361   5.075  18.791  0.00  0.00    +0.000 C 
ATOM      3  O   UNL     1       4.399   5.806  18.579  0.00  0.00    +0.000 OA
ATOM      4  H   UNL     1       6.163   3.167  18.754  0.00  0.00    +0.000 HD
ENDROOT
BRANCH   1   6
ATOM      5  C   UNL     1       3.519   3.653  16.966  0.00  0.00    +0.000 C 
ATOM      6  C   UNL     1       4.100   3.022  18.233  0.00  0.00    +0.000 C 
BRANCH   6   7
ATOM      7  C   UNL     1       3.086   2.995  19.360  0.00  0.00    +0.000 A 
ATOM      8  C   UNL     1       1.750   3.333  19.104  0.00  0.00    +0.000 A 
ATOM      9  C   UNL     1       0.798   3.298  20.125  0.00  0.00    +0.000 A 
ATOM     10  C   UNL     1       1.170   2.918  21.410  0.00  0.00    +0.000 A 
ATOM     11  C   UNL     1       2.493   2.582  21.684  0.00  0.00    +0.000 A 
ATOM     12  C   UNL     1       3.447   2.622  20.666  0.00  0.00    +0.000 A 
ENDBRANCH   6   7
ENDBRANCH   1   6
BRANCH   2  13
ATOM     13  C   UNL     1       6.711   5.590  19.245  0.00  0.00    +0.000 C 
BRANCH  13  14
ATOM     14  C   UNL     1       7.291   6.560  18.218  0.00  0.00    +0.000 C 
BRANCH  14  15
ATOM     15  N   UNL     1       7.059   6.144  16.847  0.00  0.00    +0.000 N 
ATOM     16  C   UNL     1       7.490   4.926  16.361  0.00  0.00    +0.000 C 
ATOM     17  O   UNL     1       8.176   4.158  17.030  0.00  0.00    +0.000 OA
ATOM     18  H   UNL     1       6.380   6.644  16.280  0.00  0.00    +0.000 HD
BRANCH  16  19
ATOM     19  C   UNL     1       7.079   4.639  15.004  0.00  0.00    +0.000 A 
ATOM     20  C   UNL     1       6.115   3.773  14.525  0.00  0.00    +0.000 A 
ATOM     21  C   UNL     1       6.130   3.885  13.116  0.00  0.00    +0.000 A 
ATOM     22  C   UNL     1       7.102   4.811  12.816  0.00  0.00    +0.000 A 
ATOM     23  O   UNL     1       7.687   5.275  13.953  0.00  0.00    +0.000 OA
ENDBRANCH  16  19
ENDBRANCH  14  15
ENDBRANCH  13  14
ENDBRANCH   2  13
TORSDOF 6
ENDMDL
MODEL 3
REMARK VINA RESULT:      -7.6      2.768      4.284
REMARK  Name = 
REMARK  7 active torsions:
REMARK  status: ('A' for Active; 'I' for Inactive)
REMARK    1  A    between atoms: C_1  and  C_2
REMARK    2  A    between atoms: C_2  and  N_3
REMARK    3  A    between atoms: C_2  and  C_16
REMARK    4  A    between atoms: C_4  and  C_6
REMARK    5  A    between atoms: C_6  and  C_7
REMARK    6  A    between atoms: C_7  and  N_8
REMARK    7  A    between atoms: C_9  and  C_11
REMARK                            x       y       z     vdW  Elec       q    Type
REMARK                         _______ _______ _______ _____ _____    ______ ____
ROOT
ATOM      1  N   UNL     1       4.372   6.049  18.866  0.00  0.00    +0.000 N 
ATOM      2  C   UNL     1       5.436   5.226  18.573  0.00  0.00    +0.000 C 
ATOM      3  O   UNL     1       5.407   4.384  17.682  0.00  0.00    +0.000 OA
ATOM      4  H   UNL     1       4.422   6.656  19.675  0.00  0.00    +0.000 HD
ENDROOT
BRANCH   1   6
ATOM      5  C   UNL     1       2.387   7.306  18.111  0.00  0.00    +0.000 C 
ATOM      6  C   UNL     1       3.112   5.959  18.143  0.00  0.00    +0.000 C 
BRANCH   6   7
ATOM      7  C   UNL     1       2.241   4.870  18.739  0.00  0.00    +0.000 A 
ATOM      8  C   UNL     1       1.812   3.803  17.936  0.00  0.00    +0.000 A 
ATOM      9  C   UNL     1       1.024   2.781  18.471  0.00  0.00    +0.000 A 
ATOM     10  C   UNL     1       0.664   2.812  19.814  0.00  0.00    +0.000 A 
ATOM     11  C   UNL     1       1.077   3.865  20.625  0.00  0.00    +0.000 A 
ATOM     12  C   UNL     1       1.861   4.889  20.091  0.00  0.00    +0.000 A 
ENDBRANCH   6   7
ENDBRANCH   1   6
BRANCH   2  13
ATOM     13  C   UNL     1       6.651   5.478  19.440  0.00  0.00    +0.000 C 
BRANCH  13  14
ATOM     14  C   UNL     1       7.872   5.790  18.578  0.00  0.00    +0.000 C 
BRANCH  14  15
ATOM     15  N   UNL     1       8.373   7.138  18.767  0.00  0.00    +0.000 N 
ATOM     16  C   UNL     1       8.040   8.177  17.922  0.00  0.00    +0.000 C 
ATOM     17  O   UNL     1       7.373   8.007  16.905  0.00  0.00    +0.000 OA
ATOM     18  H   UNL     1       8.800   7.394  19.654  0.00  0.00    +0.000 HD
BRANCH  16  19
ATOM     19  C   UNL     1       8.548   9.470  18.326  0.00  0.00    +0.000 A 
ATOM     20  C   UNL     1       8.453  10.702  17.710  0.00  0.00    +0.000 A 
ATOM     21  C   UNL     1       9.131  11.626  18.537  0.00  0.00    +0.000 A 
ATOM     22  C   UNL     1       9.602  10.905  19.609  0.00  0.00    +0.000 A 
ATOM     23  O   UNL     1       9.257   9.595  19.493  0.00  0.00    +0.000 OA
ENDBRANCH  16  19
ENDBRANCH  14  15
ENDBRANCH  13  14
ENDBRANCH   2  13
TORSDOF 6
ENDMDL
MODEL 4
REMARK VINA RESULT:      -7.5      1.467      2.111
REMARK  Name = 
REMARK  7 active torsions:
REMARK  status: ('A' for Active; 'I' for Inactive)
REMARK    1  A    between atoms: C_1  and  C_2
REMARK    2  A    between atoms: C_2  and  N_3
REMARK    3  A    between atoms: C_2  and  C_16
REMARK    4  A    between atoms: C_4  and  C_6
REMARK    5  A    between atoms: C_6  and  C_7
REMARK    6  A    between atoms: C_7  and  N_8
REMARK    7  A    between atoms: C_9  and  C_11
REMARK                            x       y       z     vdW  Elec       q    Type
REMARK                         _______ _______ _______ _____ _____    ______ ____
ROOT
ATOM      1  N   UNL     1       4.555   5.852  18.464  0.00  0.00    +0.000 N 
ATOM      2  C   UNL     1       5.287   6.204  17.352  0.00  0.00    +0.000 C 
ATOM      3  O   UNL     1       4.774   6.550  16.293  0.00  0.00    +0.000 OA
ATOM      4  H   UNL     1       5.033   5.482  19.276  0.00  0.00    +0.000 HD
ENDROOT
BRANCH   1   6
ATOM      5  C   UNL     1       2.527   6.812  19.490  0.00  0.00    +0.000 C 
ATOM      6  C   UNL     1       3.100   5.845  18.452  0.00  0.00    +0.000 C 
BRANCH   6   7
ATOM      7  C   UNL     1       2.580   4.434  18.655  0.00  0.00    +0.000 A 
ATOM      8  C   UNL     1       3.346   3.340  18.229  0.00  0.00    +0.000 A 
ATOM      9  C   UNL     1       2.892   2.034  18.423  0.00  0.00    +0.000 A 
ATOM     10  C   UNL     1       1.672   1.809  19.051  0.00  0.00    +0.000 A 
ATOM     11  C   UNL     1       0.896   2.882  19.477  0.00  0.00    +0.000 A 
ATOM     12  C   UNL     1       1.345   4.189  19.279  0.00  0.00    +0.000 A 
ENDBRANCH   6   7
ENDBRANCH   1   6
BRANCH   2  13
ATOM     13  C   UNL     1       6.783   6.145  17.570  0.00  0.00    +0.000 C 
BRANCH  13  14
ATOM     14  C   UNL     1       7.354   4.832  17.039  0.00  0.00    +0.000 C 
BRANCH  14  15
ATOM     15  N   UNL     1       6.679   4.361  15.844  0.00  0.00    +0.000 N 
ATOM     16  C   UNL     1       7.107   4.691  14.574  0.00  0.00    +0.000 C 
ATOM     17  O   UNL     1       8.029   5.477  14.375  0.00  0.00    +0.000 OA
ATOM     18  H   UNL     1       6.012   3.597  15.914  0.00  0.00    +0.000 HD
BRANCH  16  19
ATOM     19  C   UNL     1       6.375   4.046  13.505  0.00  0.00    +0.000 A 
ATOM     20  C   UNL     1       6.828   3.421  12.359  0.00  0.00    +0.000 A 
ATOM     21  C   UNL     1       5.686   2.968  11.662  0.00  0.00    +0.000 A 
ATOM     22  C   UNL     1       4.602   3.343  12.420  0.00  0.00    +0.000 A 
ATOM     23  O   UNL     1       5.006   4.000  13.540  0.00  0.00    +0.000 OA
ENDBRANCH  16  19
ENDBRANCH  14  15
ENDBRANCH  13  14
ENDBRANCH   2  13
TORSDOF 6
ENDMDL
MODEL 5
REMARK VINA RESULT:      -7.4      1.448      1.855
REMARK  Name = 
REMARK  7 active torsions:
REMARK  status: ('A' for Active; 'I' for Inactive)
REMARK    1  A    between atoms: C_1  and  C_2
REMARK    2  A    between atoms: C_2  and  N_3
REMARK    3  A    between atoms: C_2  and  C_16
REMARK    4  A    between atoms: C_4  and  C_6
REMARK    5  A    between atoms: C_6  and  C_7
REMARK    6  A    between atoms: C_7  and  N_8
REMARK    7  A    between atoms: C_9  and  C_11
REMARK                            x       y       z     vdW  Elec       q    Type
REMARK                         _______ _______ _______ _____ _____    ______ ____
ROOT
ATOM      1  N   UNL     1       4.302   5.964  18.351  0.00  0.00    +0.000 N 
ATOM      2  C   UNL     1       5.058   6.567  17.370  0.00  0.00    +0.000 C 
ATOM      3  O   UNL     1       4.572   7.222  16.455  0.00  0.00    +0.000 OA
ATOM      4  H   UNL     1       4.754   5.357  19.023  0.00  0.00    +0.000 HD
ENDROOT
BRANCH   1   6
ATOM      5  C   UNL     1       2.358   7.197  19.237  0.00  0.00    +0.000 C 
ATOM      6  C   UNL     1       2.850   6.047  18.355  0.00  0.00    +0.000 C 
BRANCH   6   7
ATOM      7  C   UNL     1       2.250   4.721  18.782  0.00  0.00    +0.000 A 
ATOM      8  C   UNL     1       1.475   4.649  19.948  0.00  0.00    +0.000 A 
ATOM      9  C   UNL     1       0.899   3.440  20.347  0.00  0.00    +0.000 A 
ATOM     10  C   UNL     1       1.087   2.295  19.582  0.00  0.00    +0.000 A 
ATOM     11  C   UNL     1       1.856   2.346  18.423  0.00  0.00    +0.000 A 
ATOM     12  C   UNL     1       2.436   3.552  18.025  0.00  0.00    +0.000 A 
ENDBRANCH   6   7
ENDBRANCH   1   6
BRANCH   2  13
ATOM     13  C   UNL     1       6.548   6.361  17.544  0.00  0.00    +0.000 C 
BRANCH  13  14
ATOM     14  C   UNL     1       6.932   4.915  17.238  0.00  0.00    +0.000 C 
BRANCH  14  15
ATOM     15  N   UNL     1       6.400   4.441  15.974  0.00  0.00    +0.000 N 
ATOM     16  C   UNL     1       6.984   4.751  14.762  0.00  0.00    +0.000 C 
ATOM     17  O   UNL     1       7.936   5.520  14.670  0.00  0.00    +0.000 OA
ATOM     18  H   UNL     1       5.717   3.689  15.969  0.00  0.00    +0.000 HD
BRANCH  16  19
ATOM     19  C   UNL     1       6.377   4.105  13.619  0.00  0.00    +0.000 A 
ATOM     20  C   UNL     1       6.954   3.541  12.498  0.00  0.00    +0.000 A 
ATOM     21  C   UNL     1       5.898   3.053  11.695  0.00  0.00    +0.000 A 
ATOM     22  C   UNL     1       4.738   3.350  12.370  0.00  0.00    +0.000 A 
ATOM     23  O   UNL     1       5.013   3.989  13.538  0.00  0.00    +0.000 OA
ENDBRANCH  16  19
ENDBRANCH  14  15
ENDBRANCH  13  14
ENDBRANCH   2  13
TORSDOF 6
ENDMDL
MODEL 6
REMARK VINA RESULT:      -7.4      1.691      2.761
REMARK  Name = 
REMARK  7 active torsions:
REMARK  status: ('A' for Active; 'I' for Inactive)
REMARK    1  A    between atoms: C_1  and  C_2
REMARK    2  A    between atoms: C_2  and  N_3
REMARK    3  A    between atoms: C_2  and  C_16
REMARK    4  A    between atoms: C_4  and  C_6
REMARK    5  A    between atoms: C_6  and  C_7
REMARK    6  A    between atoms: C_7  and  N_8
REMARK    7  A    between atoms: C_9  and  C_11
REMARK                            x       y       z     vdW  Elec       q    Type
REMARK                         _______ _______ _______ _____ _____    ______ ____
ROOT
ATOM      1  N   UNL     1       4.649   5.765  18.283  0.00  0.00    +0.000 N 
ATOM      2  C   UNL     1       5.727   5.416  19.066  0.00  0.00    +0.000 C 
ATOM      3  O   UNL     1       5.614   4.863  20.155  0.00  0.00    +0.000 OA
ATOM      4  H   UNL     1       4.802   6.306  17.441  0.00  0.00    +0.000 HD
ENDROOT
BRANCH   1   6
ATOM      5  C   UNL     1       2.538   4.622  17.715  0.00  0.00    +0.000 C 
ATOM      6  C   UNL     1       3.281   5.516  18.710  0.00  0.00    +0.000 C 
BRANCH   6   7
ATOM      7  C   UNL     1       2.553   6.828  18.933  0.00  0.00    +0.000 A 
ATOM      8  C   UNL     1       2.029   7.129  20.198  0.00  0.00    +0.000 A 
ATOM      9  C   UNL     1       1.371   8.339  20.427  0.00  0.00    +0.000 A 
ATOM     10  C   UNL     1       1.238   9.264  19.397  0.00  0.00    +0.000 A 
ATOM     11  C   UNL     1       1.750   8.982  18.134  0.00  0.00    +0.000 A 
ATOM     12  C   UNL     1       2.403   7.770  17.901  0.00  0.00    +0.000 A 
ENDBRANCH   6   7
ENDBRANCH   1   6
BRANCH   2  13
ATOM     13  C   UNL     1       7.062   5.761  18.443  0.00  0.00    +0.000 C 
BRANCH  13  14
ATOM     14  C   UNL     1       7.710   4.519  17.834  0.00  0.00    +0.000 C 
BRANCH  14  15
ATOM     15  N   UNL     1       7.787   4.571  16.386  0.00  0.00    +0.000 N 
ATOM     16  C   UNL     1       6.720   4.238  15.576  0.00  0.00    +0.000 C 
ATOM     17  O   UNL     1       5.669   3.791  16.026  0.00  0.00    +0.000 OA
ATOM     18  H   UNL     1       8.556   5.066  15.943  0.00  0.00    +0.000 HD
BRANCH  16  19
ATOM     19  C   UNL     1       6.948   4.449  14.163  0.00  0.00    +0.000 A 
ATOM     20  C   UNL     1       6.420   3.800  13.064  0.00  0.00    +0.000 A 
ATOM     21  C   UNL     1       6.986   4.407  11.920  0.00  0.00    +0.000 A 
ATOM     22  C   UNL     1       7.828   5.389  12.386  0.00  0.00    +0.000 A 
ATOM     23  O   UNL     1       7.816   5.424  13.745  0.00  0.00    +0.000 OA
ENDBRANCH  16  19
ENDBRANCH  14  15
ENDBRANCH  13  14
ENDBRANCH   2  13
TORSDOF 6
ENDMDL
MODEL 7
REMARK VINA RESULT:      -7.4      2.091      4.281
REMARK  Name = 
REMARK  7 active torsions:
REMARK  status: ('A' for Active; 'I' for Inactive)
REMARK    1  A    between atoms: C_1  and  C_2
REMARK    2  A    between atoms: C_2  and  N_3
REMARK    3  A    between atoms: C_2  and  C_16
REMARK    4  A    between atoms: C_4  and  C_6
REMARK    5  A    between atoms: C_6  and  C_7
REMARK    6  A    between atoms: C_7  and  N_8
REMARK    7  A    between atoms: C_9  and  C_11
REMARK                            x       y       z     vdW  Elec       q    Type
REMARK                         _______ _______ _______ _____ _____    ______ ____
ROOT
ATOM      1  N   UNL     1       2.777   5.318  18.540  0.00  0.00    +0.000 N 
ATOM      2  C   UNL     1       3.628   4.242  18.431  0.00  0.00    +0.000 C 
ATOM      3  O   UNL     1       4.311   3.830  19.362  0.00  0.00    +0.000 OA
ATOM      4  H   UNL     1       2.314   5.671  17.712  0.00  0.00    +0.000 HD
ENDROOT
BRANCH   1   6
ATOM      5  C   UNL     1       1.758   5.327  20.787  0.00  0.00    +0.000 C 
ATOM      6  C   UNL     1       2.644   6.066  19.781  0.00  0.00    +0.000 C 
BRANCH   6   7
ATOM      7  C   UNL     1       2.124   7.463  19.500  0.00  0.00    +0.000 A 
ATOM      8  C   UNL     1       2.324   8.041  18.238  0.00  0.00    +0.000 A 
ATOM      9  C   UNL     1       1.838   9.319  17.955  0.00  0.00    +0.000 A 
ATOM     10  C   UNL     1       1.140  10.028  18.926  0.00  0.00    +0.000 A 
ATOM     11  C   UNL     1       0.933   9.472  20.185  0.00  0.00    +0.000 A 
ATOM     12  C   UNL     1       1.424   8.197  20.472  0.00  0.00    +0.000 A 
ENDBRANCH   6   7
ENDBRANCH   1   6
BRANCH   2  13
ATOM     13  C   UNL     1       3.622   3.604  17.059  0.00  0.00    +0.000 C 
BRANCH  13  14
ATOM     14  C   UNL     1       5.021   3.628  16.447  0.00  0.00    +0.000 C 
BRANCH  14  15
ATOM     15  N   UNL     1       5.895   4.608  17.065  0.00  0.00    +0.000 N 
ATOM     16  C   UNL     1       6.309   5.749  16.407  0.00  0.00    +0.000 C 
ATOM     17  O   UNL     1       6.040   5.962  15.229  0.00  0.00    +0.000 OA
ATOM     18  H   UNL     1       6.040   4.585  18.070  0.00  0.00    +0.000 HD
BRANCH  16  19
ATOM     19  C   UNL     1       7.092   6.658  17.216  0.00  0.00    +0.000 A 
ATOM     20  C   UNL     1       7.760   6.450  18.407  0.00  0.00    +0.000 A 
ATOM     21  C   UNL     1       8.359   7.679  18.760  0.00  0.00    +0.000 A 
ATOM     22  C   UNL     1       8.021   8.569  17.767  0.00  0.00    +0.000 A 
ATOM     23  O   UNL     1       7.251   7.963  16.825  0.00  0.00    +0.000 OA
ENDBRANCH  16  19
ENDBRANCH  14  15
ENDBRANCH  13  14
ENDBRANCH   2  13
TORSDOF 6
ENDMDL
MODEL 8
REMARK VINA RESULT:      -7.3      2.116      4.115
REMARK  Name = 
REMARK  7 active torsions:
REMARK  status: ('A' for Active; 'I' for Inactive)
REMARK    1  A    between atoms: C_1  and  C_2
REMARK    2  A    between atoms: C_2  and  N_3
REMARK    3  A    between atoms: C_2  and  C_16
REMARK    4  A    between atoms: C_4  and  C_6
REMARK    5  A    between atoms: C_6  and  C_7
REMARK    6  A    between atoms: C_7  and  N_8
REMARK    7  A    between atoms: C_9  and  C_11
REMARK                            x       y       z     vdW  Elec       q    Type
REMARK                         _______ _______ _______ _____ _____    ______ ____
ROOT
ATOM      1  N   UNL     1       2.890   5.163  18.563  0.00  0.00    +0.000 N 
ATOM      2  C   UNL     1       3.850   4.189  18.399  0.00  0.00    +0.000 C 
ATOM      3  O   UNL     1       4.650   3.881  19.276  0.00  0.00    +0.000 OA
ATOM      4  H   UNL     1       2.323   5.440  17.771  0.00  0.00    +0.000 HD
ENDROOT
BRANCH   1   6
ATOM      5  C   UNL     1       1.953   5.160  20.845  0.00  0.00    +0.000 C 
ATOM      6  C   UNL     1       2.772   5.921  19.800  0.00  0.00    +0.000 C 
BRANCH   6   7
ATOM      7  C   UNL     1       2.188   7.293  19.522  0.00  0.00    +0.000 A 
ATOM      8  C   UNL     1       1.526   7.989  20.543  0.00  0.00    +0.000 A 
ATOM      9  C   UNL     1       0.997   9.260  20.311  0.00  0.00    +0.000 A 
ATOM     10  C   UNL     1       1.130   9.851  19.060  0.00  0.00    +0.000 A 
ATOM     11  C   UNL     1       1.781   9.174  18.032  0.00  0.00    +0.000 A 
ATOM     12  C   UNL     1       2.306   7.901  18.260  0.00  0.00    +0.000 A 
ENDBRANCH   6   7
ENDBRANCH   1   6
BRANCH   2  13
ATOM     13  C   UNL     1       3.806   3.521  17.042  0.00  0.00    +0.000 C 
BRANCH  13  14
ATOM     14  C   UNL     1       5.171   3.596  16.360  0.00  0.00    +0.000 C 
BRANCH  14  15
ATOM     15  N   UNL     1       6.052   4.581  16.959  0.00  0.00    +0.000 N 
ATOM     16  C   UNL     1       6.179   5.861  16.458  0.00  0.00    +0.000 C 
ATOM     17  O   UNL     1       5.625   6.219  15.423  0.00  0.00    +0.000 OA
ATOM     18  H   UNL     1       6.425   4.418  17.890  0.00  0.00    +0.000 HD
BRANCH  16  19
ATOM     19  C   UNL     1       7.023   6.734  17.245  0.00  0.00    +0.000 A 
ATOM     20  C   UNL     1       7.734   6.486  18.404  0.00  0.00    +0.000 A 
ATOM     21  C   UNL     1       8.386   7.691  18.749  0.00  0.00    +0.000 A 
ATOM     22  C   UNL     1       8.035   8.605  17.783  0.00  0.00    +0.000 A 
ATOM     23  O   UNL     1       7.207   8.038  16.866  0.00  0.00    +0.000 OA
ENDBRANCH  16  19
ENDBRANCH  14  15
ENDBRANCH  13  14
ENDBRANCH   2  13
TORSDOF 6
ENDMDL
MODEL 9
REMARK VINA RESULT:      -7.3      2.302      3.571
REMARK  Name = 
REMARK  7 active torsions:
REMARK  status: ('A' for Active; 'I' for Inactive)
REMARK    1  A    between atoms: C_1  and  C_2
REMARK    2  A    between atoms: C_2  and  N_3
REMARK    3  A    between atoms: C_2  and  C_16
REMARK    4  A    between atoms: C_4  and  C_6
REMARK    5  A    between atoms: C_6  and  C_7
REMARK    6  A    between atoms: C_7  and  N_8
REMARK    7  A    between atoms: C_9  and  C_11
REMARK                            x       y       z     vdW  Elec       q    Type
REMARK                         _______ _______ _______ _____ _____    ______ ____
ROOT
ATOM      1  N   UNL     1       4.353   7.398  17.745  0.00  0.00    +0.000 N 
ATOM      2  C   UNL     1       5.282   6.953  16.831  0.00  0.00    +0.000 C 
ATOM      3  O   UNL     1       4.978   6.388  15.786  0.00  0.00    +0.000 OA
ATOM      4  H   UNL     1       4.668   7.768  18.633  0.00  0.00    +0.000 HD
ENDROOT
BRANCH   1   6
ATOM      5  C   UNL     1       2.150   8.510  17.748  0.00  0.00    +0.000 C 
ATOM      6  C   UNL     1       2.925   7.207  17.539  0.00  0.00    +0.000 C 
BRANCH   6   7
ATOM      7  C   UNL     1       2.409   6.100  18.438  0.00  0.00    +0.000 A 
ATOM      8  C   UNL     1       2.694   6.125  19.810  0.00  0.00    +0.000 A 
ATOM      9  C   UNL     1       2.213   5.123  20.657  0.00  0.00    +0.000 A 
ATOM     10  C   UNL     1       1.436   4.092  20.141  0.00  0.00    +0.000 A 
ATOM     11  C   UNL     1       1.144   4.049  18.781  0.00  0.00    +0.000 A 
ATOM     12  C   UNL     1       1.629   5.046  17.933  0.00  0.00    +0.000 A 
ENDBRANCH   6   7
ENDBRANCH   1   6
BRANCH   2  13
ATOM     13  C   UNL     1       6.711   7.247  17.231  0.00  0.00    +0.000 C 
BRANCH  13  14
ATOM     14  C   UNL     1       7.448   5.958  17.588  0.00  0.00    +0.000 C 
BRANCH  14  15
ATOM     15  N   UNL     1       6.570   4.805  17.666  0.00  0.00    +0.000 N 
ATOM     16  C   UNL     1       5.918   4.449  18.830  0.00  0.00    +0.000 C 
ATOM     17  O   UNL     1       6.109   5.030  19.894  0.00  0.00    +0.000 OA
ATOM     18  H   UNL     1       6.243   4.366  16.810  0.00  0.00    +0.000 HD
BRANCH  16  19
ATOM     19  C   UNL     1       5.006   3.334  18.691  0.00  0.00    +0.000 A 
ATOM     20  C   UNL     1       4.293   2.892  17.594  0.00  0.00    +0.000 A 
ATOM     21  C   UNL     1       3.554   1.763  18.014  0.00  0.00    +0.000 A 
ATOM     22  C   UNL     1       3.856   1.583  19.343  0.00  0.00    +0.000 A 
ATOM     23  O   UNL     1       4.734   2.530  19.767  0.00  0.00    +0.000 OA
ENDBRANCH  16  19
ENDBRANCH  14  15
ENDBRANCH  13  14
ENDBRANCH   2  13
TORSDOF 6
ENDMDL
