MODEL 1
REMARK VINA RESULT:      -8.2      0.000      0.000
REMARK  Name = 
REMARK  5 active torsions:
REMARK  status: ('A' for Active; 'I' for Inactive)
REMARK    1  A    between atoms: C_1  and  C_2
REMARK    2  A    between atoms: C_2  and  C_3
REMARK    3  A    between atoms: C_2  and  N_4
REMARK    4  A    between atoms: N_11  and  C_12
REMARK    5  A    between atoms: C_20  and  C_21
REMARK                            x       y       z     vdW  Elec       q    Type
REMARK                         _______ _______ _______ _____ _____    ______ ____
ROOT
ATOM      1  N   UNL     1       7.081   4.519  13.815  0.00  0.00    +0.000 N 
ATOM      2  C   UNL     1       6.430   4.656  15.008  0.00  0.00    +0.000 A 
ATOM      3  N   UNL     1       6.581   5.905  15.566  0.00  0.00    +0.000 NA
ATOM      4  C   UNL     1       5.954   6.168  16.664  0.00  0.00    +0.000 A 
ATOM      5  N   UNL     1       6.037   7.326  17.403  0.00  0.00    +0.000 N 
ATOM      6  C   UNL     1       7.238   8.000  17.448  0.00  0.00    +0.000 C 
ATOM      7  O   UNL     1       8.258   7.539  16.949  0.00  0.00    +0.000 OA
ATOM      8  N   UNL     1       7.188   9.193  18.145  0.00  0.00    +0.000 N 
ATOM      9  N   UNL     1       5.137   5.222  17.237  0.00  0.00    +0.000 N 
ATOM     10  N   UNL     1       4.406   5.364  18.358  0.00  0.00    +0.000 NA
ATOM     11  C   UNL     1       3.933   4.110  18.485  0.00  0.00    +0.000 A 
ATOM     12  N   UNL     1       4.332   3.232  17.495  0.00  0.00    +0.000 NA
ATOM     13  C   UNL     1       5.070   3.974  16.699  0.00  0.00    +0.000 A 
ATOM     14  N   UNL     1       5.716   3.699  15.537  0.00  0.00    +0.000 NA
ATOM     15  H   UNL     1       7.481   5.405  13.525  0.00  0.00    +0.000 HD
ATOM     16  H   UNL     1       5.425   7.399  18.208  0.00  0.00    +0.000 HD
ATOM     17  H   UNL     1       6.407   9.348  18.770  0.00  0.00    +0.000 HD
ENDROOT
BRANCH   8  18
ATOM     18  C   UNL     1       8.263  10.112  18.212  0.00  0.00    +0.000 A 
ATOM     19  C   UNL     1       9.401   9.886  18.998  0.00  0.00    +0.000 A 
ATOM     20  C   UNL     1      10.428  10.827  19.067  0.00  0.00    +0.000 A 
ATOM     21  C   UNL     1      10.341  12.006  18.335  0.00  0.00    +0.000 A 
ATOM     22  C   UNL     1       9.230  12.231  17.527  0.00  0.00    +0.000 A 
ATOM     23  C   UNL     1       8.195  11.287  17.456  0.00  0.00    +0.000 A 
ENDBRANCH   8  18
BRANCH  11  24
ATOM     24  C   UNL     1       3.026   3.696  19.595  0.00  0.00    +0.000 A 
ATOM     25  C   UNL     1       1.692   4.041  19.719  0.00  0.00    +0.000 A 
ATOM     26  C   UNL     1       1.230   3.467  20.928  0.00  0.00    +0.000 A 
ATOM     27  C   UNL     1       2.306   2.808  21.471  0.00  0.00    +0.000 A 
ATOM     28  O   UNL     1       3.393   2.922  20.664  0.00  0.00    +0.000 OA
ENDBRANCH  11  24
BRANCH   1  30
ATOM     29  C   UNL     1       5.064   3.862  12.597  0.00  0.00    +0.000 C 
ATOM     30  C   UNL     1       6.576   3.687  12.736  0.00  0.00    +0.000 C 
ATOM     31  C   UNL     1       7.262   4.088  11.430  0.00  0.00    +0.000 C 
ENDBRANCH   1  30
TORSDOF 3
ENDMDL
MODEL 2
REMARK VINA RESULT:      -7.9      0.503      1.149
REMARK  Name = 
REMARK  5 active torsions:
REMARK  status: ('A' for Active; 'I' for Inactive)
REMARK    1  A    between atoms: C_1  and  C_2
REMARK    2  A    between atoms: C_2  and  C_3
REMARK    3  A    between atoms: C_2  and  N_4
REMARK    4  A    between atoms: N_11  and  C_12
REMARK    5  A    between atoms: C_20  and  C_21
REMARK                            x       y       z     vdW  Elec       q    Type
REMARK                         _______ _______ _______ _____ _____    ______ ____
ROOT
ATOM      1  N   UNL     1       7.063   4.504  13.833  0.00  0.00    +0.000 N 
ATOM      2  C   UNL     1       6.411   4.650  15.025  0.00  0.00    +0.000 A 
ATOM      3  N   UNL     1       6.562   5.904  15.573  0.00  0.00    +0.000 NA
ATOM      4  C   UNL     1       5.934   6.175  16.669  0.00  0.00    +0.000 A 
ATOM      5  N   UNL     1       6.016   7.339  17.399  0.00  0.00    +0.000 N 
ATOM      6  C   UNL     1       7.218   8.012  17.440  0.00  0.00    +0.000 C 
ATOM      7  O   UNL     1       8.239   7.547  16.946  0.00  0.00    +0.000 OA
ATOM      8  N   UNL     1       7.168   9.210  18.127  0.00  0.00    +0.000 N 
ATOM      9  N   UNL     1       5.115   5.234  17.247  0.00  0.00    +0.000 N 
ATOM     10  N   UNL     1       4.384   5.385  18.367  0.00  0.00    +0.000 NA
ATOM     11  C   UNL     1       3.910   4.132  18.502  0.00  0.00    +0.000 A 
ATOM     12  N   UNL     1       4.310   3.246  17.520  0.00  0.00    +0.000 NA
ATOM     13  C   UNL     1       5.049   3.982  16.719  0.00  0.00    +0.000 A 
ATOM     14  N   UNL     1       5.695   3.697  15.560  0.00  0.00    +0.000 NA
ATOM     15  H   UNL     1       7.464   5.387  13.537  0.00  0.00    +0.000 HD
ATOM     16  H   UNL     1       5.404   7.418  18.203  0.00  0.00    +0.000 HD
ATOM     17  H   UNL     1       6.387   9.371  18.751  0.00  0.00    +0.000 HD
ENDROOT
BRANCH   8  18
ATOM     18  C   UNL     1       8.244  10.129  18.189  0.00  0.00    +0.000 A 
ATOM     19  C   UNL     1       8.262  11.320  17.450  0.00  0.00    +0.000 A 
ATOM     20  C   UNL     1       9.353  12.188  17.509  0.00  0.00    +0.000 A 
ATOM     21  C   UNL     1      10.438  11.887  18.325  0.00  0.00    +0.000 A 
ATOM     22  C   UNL     1      10.420  10.722  19.088  0.00  0.00    +0.000 A 
ATOM     23  C   UNL     1       9.326   9.846  19.030  0.00  0.00    +0.000 A 
ENDBRANCH   8  18
BRANCH  11  24
ATOM     24  C   UNL     1       3.001   3.727  19.615  0.00  0.00    +0.000 A 
ATOM     25  C   UNL     1       3.300   2.812  20.609  0.00  0.00    +0.000 A 
ATOM     26  C   UNL     1       2.150   2.703  21.427  0.00  0.00    +0.000 A 
ATOM     27  C   UNL     1       1.217   3.556  20.887  0.00  0.00    +0.000 A 
ATOM     28  O   UNL     1       1.727   4.196  19.802  0.00  0.00    +0.000 OA
ENDBRANCH  11  24
BRANCH   1  30
ATOM     29  C   UNL     1       5.051   3.862  12.598  0.00  0.00    +0.000 C 
ATOM     30  C   UNL     1       6.558   3.664  12.760  0.00  0.00    +0.000 C 
ATOM     31  C   UNL     1       7.269   4.034  11.458  0.00  0.00    +0.000 C 
ENDBRANCH   1  30
TORSDOF 3
ENDMDL
MODEL 3
REMARK VINA RESULT:      -7.5      3.951      7.055
REMARK  Name = 
REMARK  5 active torsions:
REMARK  status: ('A' for Active; 'I' for Inactive)
REMARK    1  A    between atoms: C_1  and  C_2
REMARK    2  A    between atoms: C_2  and  C_3
REMARK    3  A    between atoms: C_2  and  N_4
REMARK    4  A    between atoms: N_11  and  C_12
REMARK    5  A    between atoms: C_20  and  C_21
REMARK                            x       y       z     vdW  Elec       q    Type
REMARK                         _______ _______ _______ _____ _____    ______ ____
ROOT
ATOM      1  N   UNL     1       1.908   3.828  19.911  0.00  0.00    +0.000 N 
ATOM      2  C   UNL     1       2.660   4.337  18.891  0.00  0.00    +0.000 A 
ATOM      3  N   UNL     1       2.714   5.712  18.891  0.00  0.00    +0.000 NA
ATOM      4  C   UNL     1       3.452   6.299  18.008  0.00  0.00    +0.000 A 
ATOM      5  N   UNL     1       3.576   7.655  17.808  0.00  0.00    +0.000 N 
ATOM      6  C   UNL     1       2.478   8.460  18.022  0.00  0.00    +0.000 C 
ATOM      7  O   UNL     1       1.371   7.994  18.270  0.00  0.00    +0.000 OA
ATOM      8  N   UNL     1       2.734   9.810  17.877  0.00  0.00    +0.000 N 
ATOM      9  N   UNL     1       4.183   5.554  17.113  0.00  0.00    +0.000 N 
ATOM     10  N   UNL     1       5.009   6.025  16.162  0.00  0.00    +0.000 NA
ATOM     11  C   UNL     1       5.326   4.874  15.540  0.00  0.00    +0.000 A 
ATOM     12  N   UNL     1       4.742   3.741  16.076  0.00  0.00    +0.000 NA
ATOM     13  C   UNL     1       4.047   4.200  17.093  0.00  0.00    +0.000 A 
ATOM     14  N   UNL     1       3.284   3.579  18.029  0.00  0.00    +0.000 NA
ATOM     15  H   UNL     1       1.603   4.571  20.532  0.00  0.00    +0.000 HD
ATOM     16  H   UNL     1       4.252   7.954  17.114  0.00  0.00    +0.000 HD
ATOM     17  H   UNL     1       3.573  10.086  17.384  0.00  0.00    +0.000 HD
ENDROOT
BRANCH   8  18
ATOM     18  C   UNL     1       1.793  10.827  18.173  0.00  0.00    +0.000 A 
ATOM     19  C   UNL     1       0.443  10.555  18.430  0.00  0.00    +0.000 A 
ATOM     20  C   UNL     1      -0.464  11.584  18.688  0.00  0.00    +0.000 A 
ATOM     21  C   UNL     1      -0.029  12.904  18.708  0.00  0.00    +0.000 A 
ATOM     22  C   UNL     1       1.316  13.187  18.484  0.00  0.00    +0.000 A 
ATOM     23  C   UNL     1       2.230  12.156  18.224  0.00  0.00    +0.000 A 
ENDBRANCH   8  18
BRANCH  11  24
ATOM     24  C   UNL     1       6.255   4.813  14.374  0.00  0.00    +0.000 A 
ATOM     25  C   UNL     1       6.112   3.989  13.271  0.00  0.00    +0.000 A 
ATOM     26  C   UNL     1       7.228   4.229  12.433  0.00  0.00    +0.000 A 
ATOM     27  C   UNL     1       7.985   5.182  13.071  0.00  0.00    +0.000 A 
ATOM     28  O   UNL     1       7.397   5.557  14.236  0.00  0.00    +0.000 OA
ENDBRANCH  11  24
BRANCH   1  30
ATOM     29  C   UNL     1       3.718   2.469  20.837  0.00  0.00    +0.000 C 
ATOM     30  C   UNL     1       2.217   2.567  20.563  0.00  0.00    +0.000 C 
ATOM     31  C   UNL     1       1.447   2.481  21.881  0.00  0.00    +0.000 C 
ENDBRANCH   1  30
TORSDOF 3
ENDMDL
MODEL 4
REMARK VINA RESULT:      -7.5      6.866      9.568
REMARK  Name = 
REMARK  5 active torsions:
REMARK  status: ('A' for Active; 'I' for Inactive)
REMARK    1  A    between atoms: C_1  and  C_2
REMARK    2  A    between atoms: C_2  and  C_3
REMARK    3  A    between atoms: C_2  and  N_4
REMARK    4  A    between atoms: N_11  and  C_12
REMARK    5  A    between atoms: C_20  and  C_21
REMARK                            x       y       z     vdW  Elec       q    Type
REMARK                         _______ _______ _______ _____ _____    ______ ____
ROOT
ATOM      1  N   UNL     1       3.280  13.457  18.086  0.00  0.00    +0.000 N 
ATOM      2  C   UNL     1       2.089  12.803  18.230  0.00  0.00    +0.000 A 
ATOM      3  N   UNL     1       2.237  11.455  18.468  0.00  0.00    +0.000 NA
ATOM      4  C   UNL     1       1.177  10.749  18.685  0.00  0.00    +0.000 A 
ATOM      5  N   UNL     1       1.119   9.387  18.870  0.00  0.00    +0.000 N 
ATOM      6  C   UNL     1       2.010   8.586  18.189  0.00  0.00    +0.000 C 
ATOM      7  O   UNL     1       2.770   9.039  17.340  0.00  0.00    +0.000 OA
ATOM      8  N   UNL     1       1.923   7.245  18.513  0.00  0.00    +0.000 N 
ATOM      9  N   UNL     1      -0.060  11.348  18.702  0.00  0.00    +0.000 N 
ATOM     10  N   UNL     1      -1.240  10.746  18.939  0.00  0.00    +0.000 NA
ATOM     11  C   UNL     1      -2.075  11.775  18.704  0.00  0.00    +0.000 A 
ATOM     12  N   UNL     1      -1.457  12.960  18.350  0.00  0.00    +0.000 NA
ATOM     13  C   UNL     1      -0.176  12.666  18.388  0.00  0.00    +0.000 A 
ATOM     14  N   UNL     1       0.936  13.415  18.174  0.00  0.00    +0.000 NA
ATOM     15  H   UNL     1       4.055  12.829  18.274  0.00  0.00    +0.000 HD
ATOM     16  H   UNL     1       0.212   8.995  19.098  0.00  0.00    +0.000 HD
ATOM     17  H   UNL     1       1.086   6.921  18.981  0.00  0.00    +0.000 HD
ENDROOT
BRANCH   8  18
ATOM     18  C   UNL     1       2.821   6.259  18.036  0.00  0.00    +0.000 A 
ATOM     19  C   UNL     1       4.164   6.537  17.750  0.00  0.00    +0.000 A 
ATOM     20  C   UNL     1       5.015   5.549  17.252  0.00  0.00    +0.000 A 
ATOM     21  C   UNL     1       4.537   4.259  17.047  0.00  0.00    +0.000 A 
ATOM     22  C   UNL     1       3.212   3.962  17.356  0.00  0.00    +0.000 A 
ATOM     23  C   UNL     1       2.355   4.952  17.856  0.00  0.00    +0.000 A 
ENDBRANCH   8  18
BRANCH  11  24
ATOM     24  C   UNL     1      -3.558  11.662  18.835  0.00  0.00    +0.000 A 
ATOM     25  C   UNL     1      -4.380  10.883  18.041  0.00  0.00    +0.000 A 
ATOM     26  C   UNL     1      -5.707  11.101  18.486  0.00  0.00    +0.000 A 
ATOM     27  C   UNL     1      -5.617  11.998  19.523  0.00  0.00    +0.000 A 
ATOM     28  O   UNL     1      -4.320  12.329  19.757  0.00  0.00    +0.000 OA
ENDBRANCH  11  24
BRANCH   1  30
ATOM     29  C   UNL     1       4.743  14.937  19.370  0.00  0.00    +0.000 C 
ATOM     30  C   UNL     1       3.479  14.829  18.518  0.00  0.00    +0.000 C 
ATOM     31  C   UNL     1       3.610  15.728  17.287  0.00  0.00    +0.000 C 
ENDBRANCH   1  30
TORSDOF 3
ENDMDL
MODEL 5
REMARK VINA RESULT:      -7.4      6.851      9.609
REMARK  Name = 
REMARK  5 active torsions:
REMARK  status: ('A' for Active; 'I' for Inactive)
REMARK    1  A    between atoms: C_1  and  C_2
REMARK    2  A    between atoms: C_2  and  C_3
REMARK    3  A    between atoms: C_2  and  N_4
REMARK    4  A    between atoms: N_11  and  C_12
REMARK    5  A    between atoms: C_20  and  C_21
REMARK                            x       y       z     vdW  Elec       q    Type
REMARK                         _______ _______ _______ _____ _____    ______ ____
ROOT
ATOM      1  N   UNL     1       3.513  13.306  17.967  0.00  0.00    +0.000 N 
ATOM      2  C   UNL     1       2.292  12.743  18.210  0.00  0.00    +0.000 A 
ATOM      3  N   UNL     1       2.362  11.396  18.482  0.00  0.00    +0.000 NA
ATOM      4  C   UNL     1       1.273  10.774  18.791  0.00  0.00    +0.000 A 
ATOM      5  N   UNL     1       1.133   9.424  19.023  0.00  0.00    +0.000 N 
ATOM      6  C   UNL     1       1.918   8.543  18.312  0.00  0.00    +0.000 C 
ATOM      7  O   UNL     1       2.648   8.917  17.400  0.00  0.00    +0.000 OA
ATOM      8  N   UNL     1       1.760   7.222  18.684  0.00  0.00    +0.000 N 
ATOM      9  N   UNL     1       0.084  11.459  18.870  0.00  0.00    +0.000 N 
ATOM     10  N   UNL     1      -1.115  10.950  19.204  0.00  0.00    +0.000 NA
ATOM     11  C   UNL     1      -1.891  12.030  18.990  0.00  0.00    +0.000 A 
ATOM     12  N   UNL     1      -1.217  13.157  18.559  0.00  0.00    +0.000 NA
ATOM     13  C   UNL     1       0.040  12.774  18.521  0.00  0.00    +0.000 A 
ATOM     14  N   UNL     1       1.184  13.434  18.210  0.00  0.00    +0.000 NA
ATOM     15  H   UNL     1       4.254  12.630  18.123  0.00  0.00    +0.000 HD
ATOM     16  H   UNL     1       0.219   9.105  19.323  0.00  0.00    +0.000 HD
ATOM     17  H   UNL     1       0.937   6.971  19.217  0.00  0.00    +0.000 HD
ENDROOT
BRANCH   8  18
ATOM     18  C   UNL     1       2.553   6.161  18.182  0.00  0.00    +0.000 A 
ATOM     19  C   UNL     1       2.012   4.920  17.820  0.00  0.00    +0.000 A 
ATOM     20  C   UNL     1       2.827   3.885  17.359  0.00  0.00    +0.000 A 
ATOM     21  C   UNL     1       4.198   4.082  17.236  0.00  0.00    +0.000 A 
ATOM     22  C   UNL     1       4.745   5.320  17.563  0.00  0.00    +0.000 A 
ATOM     23  C   UNL     1       3.930   6.362  18.028  0.00  0.00    +0.000 A 
ENDBRANCH   8  18
BRANCH  11  24
ATOM     24  C   UNL     1      -3.366  12.026  19.222  0.00  0.00    +0.000 A 
ATOM     25  C   UNL     1      -4.024  12.688  20.244  0.00  0.00    +0.000 A 
ATOM     26  C   UNL     1      -5.400  12.385  20.109  0.00  0.00    +0.000 A 
ATOM     27  C   UNL     1      -5.502  11.558  19.016  0.00  0.00    +0.000 A 
ATOM     28  O   UNL     1      -4.281  11.350  18.459  0.00  0.00    +0.000 OA
ENDBRANCH  11  24
BRANCH   1  30
ATOM     29  C   UNL     1       3.937  14.796  19.860  0.00  0.00    +0.000 C 
ATOM     30  C   UNL     1       3.836  14.673  18.339  0.00  0.00    +0.000 C 
ATOM     31  C   UNL     1       5.170  15.064  17.702  0.00  0.00    +0.000 C 
ENDBRANCH   1  30
TORSDOF 3
ENDMDL
MODEL 6
REMARK VINA RESULT:      -7.4      7.092      9.783
REMARK  Name = 
REMARK  5 active torsions:
REMARK  status: ('A' for Active; 'I' for Inactive)
REMARK    1  A    between atoms: C_1  and  C_2
REMARK    2  A    between atoms: C_2  and  C_3
REMARK    3  A    between atoms: C_2  and  N_4
REMARK    4  A    between atoms: N_11  and  C_12
REMARK    5  A    between atoms: C_20  and  C_21
REMARK                            x       y       z     vdW  Elec       q    Type
REMARK                         _______ _______ _______ _____ _____    ______ ____
ROOT
ATOM      1  N   UNL     1       3.362  13.758  17.809  0.00  0.00    +0.000 N 
ATOM      2  C   UNL     1       2.201  13.189  18.248  0.00  0.00    +0.000 A 
ATOM      3  N   UNL     1       2.325  11.845  18.519  0.00  0.00    +0.000 NA
ATOM      4  C   UNL     1       1.306  11.218  19.003  0.00  0.00    +0.000 A 
ATOM      5  N   UNL     1       1.217   9.870  19.268  0.00  0.00    +0.000 N 
ATOM      6  C   UNL     1       1.886   8.987  18.448  0.00  0.00    +0.000 C 
ATOM      7  O   UNL     1       2.458   9.357  17.428  0.00  0.00    +0.000 OA
ATOM      8  N   UNL     1       1.802   7.669  18.853  0.00  0.00    +0.000 N 
ATOM      9  N   UNL     1       0.138  11.895  19.264  0.00  0.00    +0.000 N 
ATOM     10  N   UNL     1      -0.989  11.380  19.790  0.00  0.00    +0.000 NA
ATOM     11  C   UNL     1      -1.798  12.452  19.693  0.00  0.00    +0.000 A 
ATOM     12  N   UNL     1      -1.212  13.579  19.149  0.00  0.00    +0.000 NA
ATOM     13  C   UNL     1       0.026  13.205  18.915  0.00  0.00    +0.000 A 
ATOM     14  N   UNL     1       1.100  13.871  18.419  0.00  0.00    +0.000 NA
ATOM     15  H   UNL     1       4.124  13.089  17.852  0.00  0.00    +0.000 HD
ATOM     16  H   UNL     1       0.365   9.547  19.712  0.00  0.00    +0.000 HD
ATOM     17  H   UNL     1       1.077   7.418  19.513  0.00  0.00    +0.000 HD
ENDROOT
BRANCH   8  18
ATOM     18  C   UNL     1       2.515   6.609  18.241  0.00  0.00    +0.000 A 
ATOM     19  C   UNL     1       1.988   5.316  18.120  0.00  0.00    +0.000 A 
ATOM     20  C   UNL     1       2.729   4.286  17.540  0.00  0.00    +0.000 A 
ATOM     21  C   UNL     1       4.008   4.539  17.055  0.00  0.00    +0.000 A 
ATOM     22  C   UNL     1       4.532   5.826  17.141  0.00  0.00    +0.000 A 
ATOM     23  C   UNL     1       3.790   6.863  17.724  0.00  0.00    +0.000 A 
ENDBRANCH   8  18
BRANCH  11  24
ATOM     24  C   UNL     1      -3.217  12.439  20.157  0.00  0.00    +0.000 A 
ATOM     25  C   UNL     1      -4.324  12.209  19.360  0.00  0.00    +0.000 A 
ATOM     26  C   UNL     1      -5.462  12.325  20.196  0.00  0.00    +0.000 A 
ATOM     27  C   UNL     1      -4.984  12.618  21.450  0.00  0.00    +0.000 A 
ATOM     28  O   UNL     1      -3.626  12.671  21.444  0.00  0.00    +0.000 OA
ENDBRANCH  11  24
BRANCH   1  30
ATOM     29  C   UNL     1       5.232  15.234  18.362  0.00  0.00    +0.000 C 
ATOM     30  C   UNL     1       3.727  15.131  18.112  0.00  0.00    +0.000 C 
ATOM     31  C   UNL     1       3.339  16.025  16.934  0.00  0.00    +0.000 C 
ENDBRANCH   1  30
TORSDOF 3
ENDMDL
MODEL 7
REMARK VINA RESULT:      -7.1      6.217     10.291
REMARK  Name = 
REMARK  5 active torsions:
REMARK  status: ('A' for Active; 'I' for Inactive)
REMARK    1  A    between atoms: C_1  and  C_2
REMARK    2  A    between atoms: C_2  and  C_3
REMARK    3  A    between atoms: C_2  and  N_4
REMARK    4  A    between atoms: N_11  and  C_12
REMARK    5  A    between atoms: C_20  and  C_21
REMARK                            x       y       z     vdW  Elec       q    Type
REMARK                         _______ _______ _______ _____ _____    ______ ____
ROOT
ATOM      1  N   UNL     1      -2.199  11.012  18.957  0.00  0.00    +0.000 N 
ATOM      2  C   UNL     1      -0.895  11.396  18.823  0.00  0.00    +0.000 A 
ATOM      3  N   UNL     1      -0.064  10.365  18.446  0.00  0.00    +0.000 NA
ATOM      4  C   UNL     1       1.181  10.628  18.225  0.00  0.00    +0.000 A 
ATOM      5  N   UNL     1       2.172   9.725  17.913  0.00  0.00    +0.000 N 
ATOM      6  C   UNL     1       2.112   8.461  18.458  0.00  0.00    +0.000 C 
ATOM      7  O   UNL     1       1.274   8.157  19.300  0.00  0.00    +0.000 OA
ATOM      8  N   UNL     1       3.104   7.609  18.012  0.00  0.00    +0.000 N 
ATOM      9  N   UNL     1       1.646  11.917  18.341  0.00  0.00    +0.000 N 
ATOM     10  N   UNL     1       2.904  12.340  18.118  0.00  0.00    +0.000 NA
ATOM     11  C   UNL     1       2.786  13.625  18.502  0.00  0.00    +0.000 A 
ATOM     12  N   UNL     1       1.525  13.993  18.931  0.00  0.00    +0.000 NA
ATOM     13  C   UNL     1       0.814  12.896  18.788  0.00  0.00    +0.000 A 
ATOM     14  N   UNL     1      -0.498  12.627  19.007  0.00  0.00    +0.000 NA
ATOM     15  H   UNL     1      -2.318  10.048  18.663  0.00  0.00    +0.000 HD
ATOM     16  H   UNL     1       3.087  10.106  17.703  0.00  0.00    +0.000 HD
ATOM     17  H   UNL     1       3.917   8.014  17.565  0.00  0.00    +0.000 HD
ENDROOT
BRANCH   8  18
ATOM     18  C   UNL     1       3.165   6.231  18.335  0.00  0.00    +0.000 A 
ATOM     19  C   UNL     1       4.173   5.689  19.142  0.00  0.00    +0.000 A 
ATOM     20  C   UNL     1       4.222   4.321  19.415  0.00  0.00    +0.000 A 
ATOM     21  C   UNL     1       3.248   3.474  18.897  0.00  0.00    +0.000 A 
ATOM     22  C   UNL     1       2.223   4.004  18.118  0.00  0.00    +0.000 A 
ATOM     23  C   UNL     1       2.172   5.377  17.841  0.00  0.00    +0.000 A 
ENDBRANCH   8  18
BRANCH  11  24
ATOM     24  C   UNL     1       3.921  14.593  18.450  0.00  0.00    +0.000 A 
ATOM     25  C   UNL     1       3.882  15.907  18.882  0.00  0.00    +0.000 A 
ATOM     26  C   UNL     1       5.155  16.465  18.615  0.00  0.00    +0.000 A 
ATOM     27  C   UNL     1       5.896  15.462  18.037  0.00  0.00    +0.000 A 
ATOM     28  O   UNL     1       5.167  14.320  17.950  0.00  0.00    +0.000 OA
ENDBRANCH  11  24
BRANCH   1  30
ATOM     29  C   UNL     1      -4.394  11.131  17.885  0.00  0.00    +0.000 C 
ATOM     30  C   UNL     1      -3.312  11.894  18.650  0.00  0.00    +0.000 C 
ATOM     31  C   UNL     1      -3.893  12.441  19.954  0.00  0.00    +0.000 C 
ENDBRANCH   1  30
TORSDOF 3
ENDMDL
MODEL 8
REMARK VINA RESULT:      -7.1      7.662     10.466
REMARK  Name = 
REMARK  5 active torsions:
REMARK  status: ('A' for Active; 'I' for Inactive)
REMARK    1  A    between atoms: C_1  and  C_2
REMARK    2  A    between atoms: C_2  and  C_3
REMARK    3  A    between atoms: C_2  and  N_4
REMARK    4  A    between atoms: N_11  and  C_12
REMARK    5  A    between atoms: C_20  and  C_21
REMARK                            x       y       z     vdW  Elec       q    Type
REMARK                         _______ _______ _______ _____ _____    ______ ____
ROOT
ATOM      1  N   UNL     1       2.247  13.532  18.776  0.00  0.00    +0.000 N 
ATOM      2  C   UNL     1       1.271  13.019  19.582  0.00  0.00    +0.000 A 
ATOM      3  N   UNL     1       1.524  11.728  19.985  0.00  0.00    +0.000 NA
ATOM      4  C   UNL     1       0.698  11.165  20.803  0.00  0.00    +0.000 A 
ATOM      5  N   UNL     1       0.745   9.867  21.259  0.00  0.00    +0.000 N 
ATOM      6  C   UNL     1       1.215   8.885  20.415  0.00  0.00    +0.000 C 
ATOM      7  O   UNL     1       1.480   9.112  19.240  0.00  0.00    +0.000 OA
ATOM      8  N   UNL     1       1.301   7.636  20.999  0.00  0.00    +0.000 N 
ATOM      9  N   UNL     1      -0.390  11.862  21.274  0.00  0.00    +0.000 N 
ATOM     10  N   UNL     1      -1.313  11.416  22.145  0.00  0.00    +0.000 NA
ATOM     11  C   UNL     1      -2.168  12.455  22.126  0.00  0.00    +0.000 A 
ATOM     12  N   UNL     1      -1.800  13.500  21.301  0.00  0.00    +0.000 NA
ATOM     13  C   UNL     1      -0.650  13.109  20.797  0.00  0.00    +0.000 A 
ATOM     14  N   UNL     1       0.223  13.708  19.948  0.00  0.00    +0.000 NA
ATOM     15  H   UNL     1       3.024  12.883  18.703  0.00  0.00    +0.000 HD
ATOM     16  H   UNL     1       0.055   9.602  21.953  0.00  0.00    +0.000 HD
ATOM     17  H   UNL     1       0.787   7.473  21.856  0.00  0.00    +0.000 HD
ENDROOT
BRANCH   8  18
ATOM     18  C   UNL     1       1.876   6.506  20.365  0.00  0.00    +0.000 A 
ATOM     19  C   UNL     1       1.519   5.192  20.696  0.00  0.00    +0.000 A 
ATOM     20  C   UNL     1       2.128   4.102  20.075  0.00  0.00    +0.000 A 
ATOM     21  C   UNL     1       3.095   4.310  19.097  0.00  0.00    +0.000 A 
ATOM     22  C   UNL     1       3.438   5.610  18.738  0.00  0.00    +0.000 A 
ATOM     23  C   UNL     1       2.829   6.709  19.360  0.00  0.00    +0.000 A 
ENDBRANCH   8  18
BRANCH  11  24
ATOM     24  C   UNL     1      -3.413  12.495  22.950  0.00  0.00    +0.000 A 
ATOM     25  C   UNL     1      -4.574  13.172  22.624  0.00  0.00    +0.000 A 
ATOM     26  C   UNL     1      -5.480  12.971  23.694  0.00  0.00    +0.000 A 
ATOM     27  C   UNL     1      -4.821  12.185  24.608  0.00  0.00    +0.000 A 
ATOM     28  O   UNL     1      -3.576  11.874  24.160  0.00  0.00    +0.000 OA
ENDBRANCH  11  24
BRANCH   1  30
ATOM     29  C   UNL     1       3.376  15.275  20.069  0.00  0.00    +0.000 C 
ATOM     30  C   UNL     1       2.616  14.937  18.786  0.00  0.00    +0.000 C 
ATOM     31  C   UNL     1       3.498  15.232  17.572  0.00  0.00    +0.000 C 
ENDBRANCH   1  30
TORSDOF 3
ENDMDL
MODEL 9
REMARK VINA RESULT:      -7.0      6.319     10.332
REMARK  Name = 
REMARK  5 active torsions:
REMARK  status: ('A' for Active; 'I' for Inactive)
REMARK    1  A    between atoms: C_1  and  C_2
REMARK    2  A    between atoms: C_2  and  C_3
REMARK    3  A    between atoms: C_2  and  N_4
REMARK    4  A    between atoms: N_11  and  C_12
REMARK    5  A    between atoms: C_20  and  C_21
REMARK                            x       y       z     vdW  Elec       q    Type
REMARK                         _______ _______ _______ _____ _____    ______ ____
ROOT
ATOM      1  N   UNL     1      -2.237  10.998  18.891  0.00  0.00    +0.000 N 
ATOM      2  C   UNL     1      -0.939  11.408  18.772  0.00  0.00    +0.000 A 
ATOM      3  N   UNL     1      -0.086  10.399  18.390  0.00  0.00    +0.000 NA
ATOM      4  C   UNL     1       1.156  10.689  18.183  0.00  0.00    +0.000 A 
ATOM      5  N   UNL     1       2.166   9.808  17.869  0.00  0.00    +0.000 N 
ATOM      6  C   UNL     1       2.128   8.537  18.399  0.00  0.00    +0.000 C 
ATOM      7  O   UNL     1       1.289   8.208  19.231  0.00  0.00    +0.000 OA
ATOM      8  N   UNL     1       3.139   7.710  17.952  0.00  0.00    +0.000 N 
ATOM      9  N   UNL     1       1.594  11.985  18.317  0.00  0.00    +0.000 N 
ATOM     10  N   UNL     1       2.845  12.435  18.108  0.00  0.00    +0.000 NA
ATOM     11  C   UNL     1       2.699  13.713  18.505  0.00  0.00    +0.000 A 
ATOM     12  N   UNL     1       1.427  14.051  18.928  0.00  0.00    +0.000 NA
ATOM     13  C   UNL     1       0.740  12.942  18.767  0.00  0.00    +0.000 A 
ATOM     14  N   UNL     1      -0.569  12.645  18.972  0.00  0.00    +0.000 NA
ATOM     15  H   UNL     1      -2.335  10.035  18.586  0.00  0.00    +0.000 HD
ATOM     16  H   UNL     1       3.076  10.209  17.671  0.00  0.00    +0.000 HD
ATOM     17  H   UNL     1       3.947   8.136  17.516  0.00  0.00    +0.000 HD
ENDROOT
BRANCH   8  18
ATOM     18  C   UNL     1       3.224   6.330  18.261  0.00  0.00    +0.000 A 
ATOM     19  C   UNL     1       2.228   5.413  17.899  0.00  0.00    +0.000 A 
ATOM     20  C   UNL     1       2.328   4.065  18.247  0.00  0.00    +0.000 A 
ATOM     21  C   UNL     1       3.438   3.609  18.949  0.00  0.00    +0.000 A 
ATOM     22  C   UNL     1       4.450   4.504  19.289  0.00  0.00    +0.000 A 
ATOM     23  C   UNL     1       4.352   5.859  18.942  0.00  0.00    +0.000 A 
ENDBRANCH   8  18
BRANCH  11  24
ATOM     24  C   UNL     1       3.815  14.703  18.473  0.00  0.00    +0.000 A 
ATOM     25  C   UNL     1       5.117  14.439  18.089  0.00  0.00    +0.000 A 
ATOM     26  C   UNL     1       5.844  15.645  18.244  0.00  0.00    +0.000 A 
ATOM     27  C   UNL     1       4.945  16.572  18.714  0.00  0.00    +0.000 A 
ATOM     28  O   UNL     1       3.710  16.020  18.838  0.00  0.00    +0.000 OA
ENDBRANCH  11  24
BRANCH   1  30
ATOM     29  C   UNL     1      -4.435  11.080  17.821  0.00  0.00    +0.000 C 
ATOM     30  C   UNL     1      -3.365  11.861  18.585  0.00  0.00    +0.000 C 
ATOM     31  C   UNL     1      -3.954  12.399  19.889  0.00  0.00    +0.000 C 
ENDBRANCH   1  30
TORSDOF 3
ENDMDL
