MODEL 1
REMARK VINA RESULT:      -5.8      0.000      0.000
REMARK  Name = 
REMARK  9 active torsions:
REMARK  status: ('A' for Active; 'I' for Inactive)
REMARK    1  A    between atoms: C_4  and  C_5
REMARK    2  A    between atoms: C_6  and  C_7
REMARK    3  A    between atoms: C_7  and  C_8
REMARK    4  A    between atoms: C_12  and  C_13
REMARK    5  A    between atoms: C_16  and  O_17
REMARK    6  A    between atoms: C_16  and  C_18
REMARK    7  A    between atoms: C_18  and  O_19
REMARK    8  A    between atoms: C_21  and  C_22
REMARK    9  A    between atoms: C_24  and  C_25
REMARK                            x       y       z     vdW  Elec       q    Type
REMARK                         _______ _______ _______ _____ _____    ______ ____
ROOT
ATOM      1  C   UNL     1      -2.793  15.976  25.052  0.00  0.00    +0.000 C 
ATOM      2  C   UNL     1      -2.828  15.435  23.819  0.00  0.00    +0.000 C 
ATOM      3  C   UNL     1      -4.201  14.847  23.554  0.00  0.00    +0.000 C 
ATOM      4  C   UNL     1      -4.781  13.644  23.843  0.00  0.00    +0.000 C 
ATOM      5  C   UNL     1      -4.305  12.563  24.849  0.00  0.00    +0.000 C 
ATOM      6  C   UNL     1      -5.491  13.118  22.578  0.00  0.00    +0.000 C 
ATOM      7  O   UNL     1      -4.552  12.180  22.050  0.00  0.00    +0.000 OA
ATOM      8  C   UNL     1      -3.540  12.876  21.476  0.00  0.00    +0.000 C 
ATOM      9  O   UNL     1      -3.650  13.996  20.975  0.00  0.00    +0.000 OA
ATOM     10  C   UNL     1      -2.251  12.125  21.473  0.00  0.00    +0.000 C 
ATOM     11  C   UNL     1      -1.328  12.546  22.635  0.00  0.00    +0.000 C 
ATOM     12  C   UNL     1      -1.900  12.273  20.017  0.00  0.00    +0.000 C 
ATOM     13  O   UNL     1      -2.808  12.277  19.151  0.00  0.00    +0.000 OA
ATOM     14  C   UNL     1      -0.499  12.246  19.530  0.00  0.00    +0.000 C 
ATOM     15  C   UNL     1      -0.438  13.298  18.370  0.00  0.00    +0.000 C 
ATOM     16  C   UNL     1       0.265  14.504  19.005  0.00  0.00    +0.000 C 
ATOM     17  C   UNL     1       1.760  14.212  18.896  0.00  0.00    +0.000 C 
ATOM     18  C   UNL     1      -0.604  15.243  19.833  0.00  0.00    +0.000 C 
ATOM     19  C   UNL     1      -0.428  15.762  21.321  0.00  0.00    +0.000 C 
ATOM     20  C   UNL     1       0.588  16.880  21.204  0.00  0.00    +0.000 C 
ATOM     21  C   UNL     1      -1.856  16.042  22.439  0.00  0.00    +0.000 C 
ENDROOT
BRANCH   6  22
ATOM     22  C   UNL     1      -6.918  12.813  22.119  0.00  0.00    +0.000 C 
ATOM     23  C   UNL     1      -7.916  12.140  23.023  0.00  0.00    +0.000 C 
ENDBRANCH   6  22
BRANCH  14  24
ATOM     24  O   UNL     1       0.495  12.464  20.597  0.00  0.00    +0.000 OA
ATOM     25  H   UNL     1       0.592  13.419  20.720  0.00  0.00    +0.000 HD
ENDBRANCH  14  24
BRANCH  14  26
ATOM     26  C   UNL     1      -0.274  10.820  19.156  0.00  0.00    +0.000 C 
BRANCH  26  27
ATOM     27  O   UNL     1      -0.650  10.664  17.765  0.00  0.00    +0.000 OA
ATOM     28  H   UNL     1      -0.138  11.362  17.307  0.00  0.00    +0.000 HD
ENDBRANCH  26  27
ENDBRANCH  14  26
TORSDOF 4
ENDMDL
MODEL 2
REMARK VINA RESULT:      -5.8      1.858      5.939
REMARK  Name = 
REMARK  9 active torsions:
REMARK  status: ('A' for Active; 'I' for Inactive)
REMARK    1  A    between atoms: C_4  and  C_5
REMARK    2  A    between atoms: C_6  and  C_7
REMARK    3  A    between atoms: C_7  and  C_8
REMARK    4  A    between atoms: C_12  and  C_13
REMARK    5  A    between atoms: C_16  and  O_17
REMARK    6  A    between atoms: C_16  and  C_18
REMARK    7  A    between atoms: C_18  and  O_19
REMARK    8  A    between atoms: C_21  and  C_22
REMARK    9  A    between atoms: C_24  and  C_25
REMARK                            x       y       z     vdW  Elec       q    Type
REMARK                         _______ _______ _______ _____ _____    ______ ____
ROOT
ATOM      1  C   UNL     1       2.183  14.300  19.644  0.00  0.00    +0.000 C 
ATOM      2  C   UNL     1       1.337  13.820  20.576  0.00  0.00    +0.000 C 
ATOM      3  C   UNL     1       1.477  12.313  20.671  0.00  0.00    +0.000 C 
ATOM      4  C   UNL     1       0.929  11.272  19.976  0.00  0.00    +0.000 C 
ATOM      5  C   UNL     1       0.197  11.307  18.608  0.00  0.00    +0.000 C 
ATOM      6  C   UNL     1       0.426  10.213  20.979  0.00  0.00    +0.000 C 
ATOM      7  O   UNL     1      -0.973  10.484  21.057  0.00  0.00    +0.000 OA
ATOM      8  C   UNL     1      -1.144  11.607  21.798  0.00  0.00    +0.000 C 
ATOM      9  O   UNL     1      -0.386  11.982  22.694  0.00  0.00    +0.000 OA
ATOM     10  C   UNL     1      -2.387  12.350  21.444  0.00  0.00    +0.000 C 
ATOM     11  C   UNL     1      -2.112  13.525  20.483  0.00  0.00    +0.000 C 
ATOM     12  C   UNL     1      -2.967  12.504  22.825  0.00  0.00    +0.000 C 
ATOM     13  O   UNL     1      -2.811  11.594  23.674  0.00  0.00    +0.000 OA
ATOM     14  C   UNL     1      -3.871  13.623  23.187  0.00  0.00    +0.000 C 
ATOM     15  C   UNL     1      -3.488  14.012  24.656  0.00  0.00    +0.000 C 
ATOM     16  C   UNL     1      -2.672  15.300  24.494  0.00  0.00    +0.000 C 
ATOM     17  C   UNL     1      -3.697  16.428  24.402  0.00  0.00    +0.000 C 
ATOM     18  C   UNL     1      -1.357  15.037  24.060  0.00  0.00    +0.000 C 
ATOM     19  C   UNL     1      -0.509  15.666  22.876  0.00  0.00    +0.000 C 
ATOM     20  C   UNL     1      -0.188  17.067  23.356  0.00  0.00    +0.000 C 
ATOM     21  C   UNL     1       0.831  14.743  22.029  0.00  0.00    +0.000 C 
ENDROOT
BRANCH   6  22
ATOM     22  C   UNL     1       0.747   8.767  21.363  0.00  0.00    +0.000 C 
ATOM     23  C   UNL     1       1.641   7.900  20.517  0.00  0.00    +0.000 C 
ENDBRANCH   6  22
BRANCH  14  24
ATOM     24  O   UNL     1      -3.825  14.745  22.232  0.00  0.00    +0.000 OA
ATOM     25  H   UNL     1      -4.730  15.063  22.106  0.00  0.00    +0.000 HD
ENDBRANCH  14  24
BRANCH  14  26
ATOM     26  C   UNL     1      -5.238  13.066  22.975  0.00  0.00    +0.000 C 
BRANCH  26  27
ATOM     27  O   UNL     1      -5.565  12.249  24.127  0.00  0.00    +0.000 OA
ATOM     28  H   UNL     1      -5.721  12.904  24.838  0.00  0.00    +0.000 HD
ENDBRANCH  26  27
ENDBRANCH  14  26
TORSDOF 4
ENDMDL
MODEL 3
REMARK VINA RESULT:      -5.8      0.981      1.107
REMARK  Name = 
REMARK  9 active torsions:
REMARK  status: ('A' for Active; 'I' for Inactive)
REMARK    1  A    between atoms: C_4  and  C_5
REMARK    2  A    between atoms: C_6  and  C_7
REMARK    3  A    between atoms: C_7  and  C_8
REMARK    4  A    between atoms: C_12  and  C_13
REMARK    5  A    between atoms: C_16  and  O_17
REMARK    6  A    between atoms: C_16  and  C_18
REMARK    7  A    between atoms: C_18  and  O_19
REMARK    8  A    between atoms: C_21  and  C_22
REMARK    9  A    between atoms: C_24  and  C_25
REMARK                            x       y       z     vdW  Elec       q    Type
REMARK                         _______ _______ _______ _____ _____    ______ ____
ROOT
ATOM      1  C   UNL     1      -2.355  15.326  25.669  0.00  0.00    +0.000 C 
ATOM      2  C   UNL     1      -2.308  14.957  24.375  0.00  0.00    +0.000 C 
ATOM      3  C   UNL     1      -3.709  14.675  23.868  0.00  0.00    +0.000 C 
ATOM      4  C   UNL     1      -4.520  13.575  23.907  0.00  0.00    +0.000 C 
ATOM      5  C   UNL     1      -4.381  12.308  24.792  0.00  0.00    +0.000 C 
ATOM      6  C   UNL     1      -5.124  13.352  22.505  0.00  0.00    +0.000 C 
ATOM      7  O   UNL     1      -4.294  12.328  21.958  0.00  0.00    +0.000 OA
ATOM      8  C   UNL     1      -3.107  12.887  21.613  0.00  0.00    +0.000 C 
ATOM      9  O   UNL     1      -2.954  14.061  21.274  0.00  0.00    +0.000 OA
ATOM     10  C   UNL     1      -1.977  11.914  21.650  0.00  0.00    +0.000 C 
ATOM     11  C   UNL     1      -1.168  12.007  22.961  0.00  0.00    +0.000 C 
ATOM     12  C   UNL     1      -1.404  12.173  20.282  0.00  0.00    +0.000 C 
ATOM     13  O   UNL     1      -2.168  12.454  19.327  0.00  0.00    +0.000 OA
ATOM     14  C   UNL     1       0.026  11.944  19.963  0.00  0.00    +0.000 C 
ATOM     15  C   UNL     1       0.428  13.101  18.985  0.00  0.00    +0.000 C 
ATOM     16  C   UNL     1       1.229  14.066  19.868  0.00  0.00    +0.000 C 
ATOM     17  C   UNL     1       2.653  13.515  19.891  0.00  0.00    +0.000 C 
ATOM     18  C   UNL     1       0.390  14.846  20.689  0.00  0.00    +0.000 C 
ATOM     19  C   UNL     1       0.440  15.135  22.247  0.00  0.00    +0.000 C 
ATOM     20  C   UNL     1       1.638  16.048  22.415  0.00  0.00    +0.000 C 
ATOM     21  C   UNL     1      -1.062  15.537  23.221  0.00  0.00    +0.000 C 
ENDROOT
BRANCH   6  22
ATOM     22  C   UNL     1      -6.504  13.380  21.844  0.00  0.00    +0.000 C 
ATOM     23  C   UNL     1      -6.669  13.560  20.359  0.00  0.00    +0.000 C 
ENDBRANCH   6  22
BRANCH  14  24
ATOM     24  O   UNL     1       0.882  11.838  21.159  0.00  0.00    +0.000 OA
ATOM     25  H   UNL     1       1.791  12.028  20.888  0.00  0.00    +0.000 HD
ENDBRANCH  14  24
BRANCH  14  26
ATOM     26  C   UNL     1       0.056  10.558  19.412  0.00  0.00    +0.000 C 
BRANCH  26  27
ATOM     27  O   UNL     1      -0.168  10.647  17.982  0.00  0.00    +0.000 OA
ATOM     28  H   UNL     1      -1.144  10.667  17.902  0.00  0.00    +0.000 HD
ENDBRANCH  26  27
ENDBRANCH  14  26
TORSDOF 4
ENDMDL
MODEL 4
REMARK VINA RESULT:      -5.8     10.302     12.873
REMARK  Name = 
REMARK  9 active torsions:
REMARK  status: ('A' for Active; 'I' for Inactive)
REMARK    1  A    between atoms: C_4  and  C_5
REMARK    2  A    between atoms: C_6  and  C_7
REMARK    3  A    between atoms: C_7  and  C_8
REMARK    4  A    between atoms: C_12  and  C_13
REMARK    5  A    between atoms: C_16  and  O_17
REMARK    6  A    between atoms: C_16  and  C_18
REMARK    7  A    between atoms: C_18  and  O_19
REMARK    8  A    between atoms: C_21  and  C_22
REMARK    9  A    between atoms: C_24  and  C_25
REMARK                            x       y       z     vdW  Elec       q    Type
REMARK                         _______ _______ _______ _____ _____    ______ ____
ROOT
ATOM      1  C   UNL     1       6.715  12.293  23.204  0.00  0.00    +0.000 C 
ATOM      2  C   UNL     1       7.795  12.881  22.654  0.00  0.00    +0.000 C 
ATOM      3  C   UNL     1       8.303  13.981  23.566  0.00  0.00    +0.000 C 
ATOM      4  C   UNL     1       7.965  15.295  23.732  0.00  0.00    +0.000 C 
ATOM      5  C   UNL     1       6.692  16.032  23.239  0.00  0.00    +0.000 C 
ATOM      6  C   UNL     1       9.256  16.139  23.771  0.00  0.00    +0.000 C 
ATOM      7  O   UNL     1       9.340  16.657  22.443  0.00  0.00    +0.000 OA
ATOM      8  C   UNL     1       9.744  15.654  21.625  0.00  0.00    +0.000 C 
ATOM      9  O   UNL     1      10.448  14.704  21.969  0.00  0.00    +0.000 OA
ATOM     10  C   UNL     1       9.272  15.828  20.221  0.00  0.00    +0.000 C 
ATOM     11  C   UNL     1       8.003  15.002  19.924  0.00  0.00    +0.000 C 
ATOM     12  C   UNL     1      10.586  15.644  19.510  0.00  0.00    +0.000 C 
ATOM     13  O   UNL     1      11.647  16.057  20.040  0.00  0.00    +0.000 OA
ATOM     14  C   UNL     1      10.674  15.142  18.117  0.00  0.00    +0.000 C 
ATOM     15  C   UNL     1      11.946  14.229  18.080  0.00  0.00    +0.000 C 
ATOM     16  C   UNL     1      11.376  12.805  18.096  0.00  0.00    +0.000 C 
ATOM     17  C   UNL     1      11.034  12.484  16.643  0.00  0.00    +0.000 C 
ATOM     18  C   UNL     1      10.954  12.422  19.385  0.00  0.00    +0.000 C 
ATOM     19  C   UNL     1       9.590  11.783  19.883  0.00  0.00    +0.000 C 
ATOM     20  C   UNL     1       9.634  10.363  19.356  0.00  0.00    +0.000 C 
ATOM     21  C   UNL     1       8.957  12.025  21.587  0.00  0.00    +0.000 C 
ENDROOT
BRANCH   6  22
ATOM     22  C   UNL     1      10.012  17.016  24.772  0.00  0.00    +0.000 C 
ATOM     23  C   UNL     1      11.513  16.980  24.884  0.00  0.00    +0.000 C 
ENDBRANCH   6  22
BRANCH  14  24
ATOM     24  O   UNL     1       9.440  14.480  17.656  0.00  0.00    +0.000 OA
ATOM     25  H   UNL     1       8.694  14.896  18.110  0.00  0.00    +0.000 HD
ENDBRANCH  14  24
BRANCH  14  26
ATOM     26  C   UNL     1      10.712  16.381  17.288  0.00  0.00    +0.000 C 
BRANCH  26  27
ATOM     27  O   UNL     1      10.724  15.980  15.895  0.00  0.00    +0.000 OA
ATOM     28  H   UNL     1      11.426  16.536  15.500  0.00  0.00    +0.000 HD
ENDBRANCH  26  27
ENDBRANCH  14  26
TORSDOF 4
ENDMDL
MODEL 5
REMARK VINA RESULT:      -5.7      1.934      6.074
REMARK  Name = 
REMARK  9 active torsions:
REMARK  status: ('A' for Active; 'I' for Inactive)
REMARK    1  A    between atoms: C_4  and  C_5
REMARK    2  A    between atoms: C_6  and  C_7
REMARK    3  A    between atoms: C_7  and  C_8
REMARK    4  A    between atoms: C_12  and  C_13
REMARK    5  A    between atoms: C_16  and  O_17
REMARK    6  A    between atoms: C_16  and  C_18
REMARK    7  A    between atoms: C_18  and  O_19
REMARK    8  A    between atoms: C_21  and  C_22
REMARK    9  A    between atoms: C_24  and  C_25
REMARK                            x       y       z     vdW  Elec       q    Type
REMARK                         _______ _______ _______ _____ _____    ______ ____
ROOT
ATOM      1  C   UNL     1       2.167  13.130  17.980  0.00  0.00    +0.000 C 
ATOM      2  C   UNL     1       1.546  12.884  19.150  0.00  0.00    +0.000 C 
ATOM      3  C   UNL     1       1.720  11.425  19.528  0.00  0.00    +0.000 C 
ATOM      4  C   UNL     1       1.046  10.282  19.199  0.00  0.00    +0.000 C 
ATOM      5  C   UNL     1       0.037  10.058  18.042  0.00  0.00    +0.000 C 
ATOM      6  C   UNL     1       0.782   9.473  20.486  0.00  0.00    +0.000 C 
ATOM      7  O   UNL     1      -0.571   9.803  20.800  0.00  0.00    +0.000 OA
ATOM      8  C   UNL     1      -0.591  11.060  21.308  0.00  0.00    +0.000 C 
ATOM      9  O   UNL     1       0.338  11.586  21.923  0.00  0.00    +0.000 OA
ATOM     10  C   UNL     1      -1.889  11.756  21.077  0.00  0.00    +0.000 C 
ATOM     11  C   UNL     1      -1.839  12.696  19.854  0.00  0.00    +0.000 C 
ATOM     12  C   UNL     1      -2.160  12.214  22.486  0.00  0.00    +0.000 C 
ATOM     13  O   UNL     1      -1.816  11.494  23.454  0.00  0.00    +0.000 OA
ATOM     14  C   UNL     1      -2.977  13.414  22.788  0.00  0.00    +0.000 C 
ATOM     15  C   UNL     1      -2.293  14.086  24.027  0.00  0.00    +0.000 C 
ATOM     16  C   UNL     1      -1.544  15.283  23.428  0.00  0.00    +0.000 C 
ATOM     17  C   UNL     1      -2.578  16.402  23.321  0.00  0.00    +0.000 C 
ATOM     18  C   UNL     1      -0.350  14.890  22.790  0.00  0.00    +0.000 C 
ATOM     19  C   UNL     1       0.217  15.230  21.349  0.00  0.00    +0.000 C 
ATOM     20  C   UNL     1       0.618  16.688  21.444  0.00  0.00    +0.000 C 
ATOM     21  C   UNL     1       1.354  14.105  20.450  0.00  0.00    +0.000 C 
ENDROOT
BRANCH   6  22
ATOM     22  C   UNL     1       1.194   8.128  21.088  0.00  0.00    +0.000 C 
ATOM     23  C   UNL     1       1.902   7.077  20.276  0.00  0.00    +0.000 C 
ENDBRANCH   6  22
BRANCH  14  24
ATOM     24  O   UNL     1      -3.149  14.311  21.631  0.00  0.00    +0.000 OA
ATOM     25  H   UNL     1      -2.308  14.345  21.156  0.00  0.00    +0.000 HD
ENDBRANCH  14  24
BRANCH  14  26
ATOM     26  C   UNL     1      -4.352  12.872  22.992  0.00  0.00    +0.000 C 
BRANCH  26  27
ATOM     27  O   UNL     1      -4.359  12.148  24.248  0.00  0.00    +0.000 OA
ATOM     28  H   UNL     1      -3.580  11.559  24.180  0.00  0.00    +0.000 HD
ENDBRANCH  26  27
ENDBRANCH  14  26
TORSDOF 4
ENDMDL
MODEL 6
REMARK VINA RESULT:      -5.6      2.755      5.218
REMARK  Name = 
REMARK  9 active torsions:
REMARK  status: ('A' for Active; 'I' for Inactive)
REMARK    1  A    between atoms: C_4  and  C_5
REMARK    2  A    between atoms: C_6  and  C_7
REMARK    3  A    between atoms: C_7  and  C_8
REMARK    4  A    between atoms: C_12  and  C_13
REMARK    5  A    between atoms: C_16  and  O_17
REMARK    6  A    between atoms: C_16  and  C_18
REMARK    7  A    between atoms: C_18  and  O_19
REMARK    8  A    between atoms: C_21  and  C_22
REMARK    9  A    between atoms: C_24  and  C_25
REMARK                            x       y       z     vdW  Elec       q    Type
REMARK                         _______ _______ _______ _____ _____    ______ ____
ROOT
ATOM      1  C   UNL     1      -0.552  10.014  23.182  0.00  0.00    +0.000 C 
ATOM      2  C   UNL     1      -0.715  11.044  22.330  0.00  0.00    +0.000 C 
ATOM      3  C   UNL     1      -1.123  10.523  20.965  0.00  0.00    +0.000 C 
ATOM      4  C   UNL     1      -0.422  10.052  19.891  0.00  0.00    +0.000 C 
ATOM      5  C   UNL     1       1.058   9.589  19.835  0.00  0.00    +0.000 C 
ATOM      6  C   UNL     1      -0.965  10.721  18.610  0.00  0.00    +0.000 C 
ATOM      7  O   UNL     1      -0.020  11.763  18.368  0.00  0.00    +0.000 OA
ATOM      8  C   UNL     1      -0.249  12.756  19.264  0.00  0.00    +0.000 C 
ATOM      9  O   UNL     1      -1.344  13.011  19.767  0.00  0.00    +0.000 OA
ATOM     10  C   UNL     1       0.973  13.554  19.567  0.00  0.00    +0.000 C 
ATOM     11  C   UNL     1       1.660  13.100  20.872  0.00  0.00    +0.000 C 
ATOM     12  C   UNL     1       0.411  14.933  19.342  0.00  0.00    +0.000 C 
ATOM     13  O   UNL     1      -0.448  15.120  18.447  0.00  0.00    +0.000 OA
ATOM     14  C   UNL     1       0.952  16.133  20.025  0.00  0.00    +0.000 C 
ATOM     15  C   UNL     1      -0.293  17.031  20.342  0.00  0.00    +0.000 C 
ATOM     16  C   UNL     1      -0.526  16.818  21.843  0.00  0.00    +0.000 C 
ATOM     17  C   UNL     1       0.423  17.785  22.548  0.00  0.00    +0.000 C 
ATOM     18  C   UNL     1      -1.158  15.586  22.107  0.00  0.00    +0.000 C 
ATOM     19  C   UNL     1      -0.793  14.430  23.129  0.00  0.00    +0.000 C 
ATOM     20  C   UNL     1      -1.127  15.017  24.485  0.00  0.00    +0.000 C 
ATOM     21  C   UNL     1      -1.255  12.679  22.837  0.00  0.00    +0.000 C 
ENDROOT
BRANCH   6  22
ATOM     22  C   UNL     1      -1.692  10.304  17.330  0.00  0.00    +0.000 C 
ATOM     23  C   UNL     1      -3.089   9.745  17.357  0.00  0.00    +0.000 C 
ENDBRANCH   6  22
BRANCH  14  24
ATOM     24  O   UNL     1       1.782  15.812  21.201  0.00  0.00    +0.000 OA
ATOM     25  H   UNL     1       1.410  15.023  21.619  0.00  0.00    +0.000 HD
ENDBRANCH  14  24
BRANCH  14  26
ATOM     26  C   UNL     1       1.947  16.681  19.059  0.00  0.00    +0.000 C 
BRANCH  26  27
ATOM     27  O   UNL     1       1.228  17.503  18.105  0.00  0.00    +0.000 OA
ATOM     28  H   UNL     1       1.602  17.234  17.241  0.00  0.00    +0.000 HD
ENDBRANCH  26  27
ENDBRANCH  14  26
TORSDOF 4
ENDMDL
MODEL 7
REMARK VINA RESULT:      -5.5      3.021      6.825
REMARK  Name = 
REMARK  9 active torsions:
REMARK  status: ('A' for Active; 'I' for Inactive)
REMARK    1  A    between atoms: C_4  and  C_5
REMARK    2  A    between atoms: C_6  and  C_7
REMARK    3  A    between atoms: C_7  and  C_8
REMARK    4  A    between atoms: C_12  and  C_13
REMARK    5  A    between atoms: C_16  and  O_17
REMARK    6  A    between atoms: C_16  and  C_18
REMARK    7  A    between atoms: C_18  and  O_19
REMARK    8  A    between atoms: C_21  and  C_22
REMARK    9  A    between atoms: C_24  and  C_25
REMARK                            x       y       z     vdW  Elec       q    Type
REMARK                         _______ _______ _______ _____ _____    ______ ____
ROOT
ATOM      1  C   UNL     1       5.013  14.541  17.850  0.00  0.00    +0.000 C 
ATOM      2  C   UNL     1       3.698  14.460  18.127  0.00  0.00    +0.000 C 
ATOM      3  C   UNL     1       3.050  15.820  17.953  0.00  0.00    +0.000 C 
ATOM      4  C   UNL     1       2.915  16.909  18.768  0.00  0.00    +0.000 C 
ATOM      5  C   UNL     1       3.681  17.231  20.078  0.00  0.00    +0.000 C 
ATOM      6  C   UNL     1       1.452  17.396  18.709  0.00  0.00    +0.000 C 
ATOM      7  O   UNL     1       0.880  16.835  19.891  0.00  0.00    +0.000 OA
ATOM      8  C   UNL     1       0.692  15.509  19.680  0.00  0.00    +0.000 C 
ATOM      9  O   UNL     1       0.482  14.993  18.582  0.00  0.00    +0.000 OA
ATOM     10  C   UNL     1       0.729  14.712  20.940  0.00  0.00    +0.000 C 
ATOM     11  C   UNL     1       2.106  14.057  21.177  0.00  0.00    +0.000 C 
ATOM     12  C   UNL     1      -0.554  13.944  20.767  0.00  0.00    +0.000 C 
ATOM     13  O   UNL     1      -1.538  14.489  20.211  0.00  0.00    +0.000 OA
ATOM     14  C   UNL     1      -0.773  12.612  21.381  0.00  0.00    +0.000 C 
ATOM     15  C   UNL     1      -1.597  11.795  20.327  0.00  0.00    +0.000 C 
ATOM     16  C   UNL     1      -0.561  10.854  19.701  0.00  0.00    +0.000 C 
ATOM     17  C   UNL     1      -0.471   9.656  20.643  0.00  0.00    +0.000 C 
ATOM     18  C   UNL     1       0.258  11.521  18.767  0.00  0.00    +0.000 C 
ATOM     19  C   UNL     1       1.836  11.560  18.613  0.00  0.00    +0.000 C 
ATOM     20  C   UNL     1       2.191  10.179  18.102  0.00  0.00    +0.000 C 
ATOM     21  C   UNL     1       2.714  12.983  17.858  0.00  0.00    +0.000 C 
ENDROOT
BRANCH   6  22
ATOM     22  C   UNL     1       0.683  18.631  18.236  0.00  0.00    +0.000 C 
ATOM     23  C   UNL     1      -0.535  18.519  17.358  0.00  0.00    +0.000 C 
ENDBRANCH   6  22
BRANCH  14  24
ATOM     24  O   UNL     1       0.475  11.956  21.813  0.00  0.00    +0.000 OA
ATOM     25  H   UNL     1       1.214  12.515  21.537  0.00  0.00    +0.000 HD
ENDBRANCH  14  24
BRANCH  14  26
ATOM     26  C   UNL     1      -1.450  12.917  22.674  0.00  0.00    +0.000 C 
BRANCH  26  27
ATOM     27  O   UNL     1      -1.267  11.774  23.547  0.00  0.00    +0.000 OA
ATOM     28  H   UNL     1      -0.298  11.638  23.550  0.00  0.00    +0.000 HD
ENDBRANCH  26  27
ENDBRANCH  14  26
TORSDOF 4
ENDMDL
MODEL 8
REMARK VINA RESULT:      -5.5      1.624      5.818
REMARK  Name = 
REMARK  9 active torsions:
REMARK  status: ('A' for Active; 'I' for Inactive)
REMARK    1  A    between atoms: C_4  and  C_5
REMARK    2  A    between atoms: C_6  and  C_7
REMARK    3  A    between atoms: C_7  and  C_8
REMARK    4  A    between atoms: C_12  and  C_13
REMARK    5  A    between atoms: C_16  and  O_17
REMARK    6  A    between atoms: C_16  and  C_18
REMARK    7  A    between atoms: C_18  and  O_19
REMARK    8  A    between atoms: C_21  and  C_22
REMARK    9  A    between atoms: C_24  and  C_25
REMARK                            x       y       z     vdW  Elec       q    Type
REMARK                         _______ _______ _______ _____ _____    ______ ____
ROOT
ATOM      1  C   UNL     1       0.010  15.587  18.417  0.00  0.00    +0.000 C 
ATOM      2  C   UNL     1      -0.331  14.973  19.567  0.00  0.00    +0.000 C 
ATOM      3  C   UNL     1       0.189  13.549  19.564  0.00  0.00    +0.000 C 
ATOM      4  C   UNL     1      -0.295  12.371  19.067  0.00  0.00    +0.000 C 
ATOM      5  C   UNL     1      -1.432  12.159  18.032  0.00  0.00    +0.000 C 
ATOM      6  C   UNL     1      -0.161  11.281  20.150  0.00  0.00    +0.000 C 
ATOM      7  O   UNL     1      -1.474  11.220  20.707  0.00  0.00    +0.000 OA
ATOM      8  C   UNL     1      -1.648  12.310  21.495  0.00  0.00    +0.000 C 
ATOM      9  O   UNL     1      -0.746  12.901  22.090  0.00  0.00    +0.000 OA
ATOM     10  C   UNL     1      -3.077  12.720  21.608  0.00  0.00    +0.000 C 
ATOM     11  C   UNL     1      -3.432  13.872  20.645  0.00  0.00    +0.000 C 
ATOM     12  C   UNL     1      -3.176  12.809  23.107  0.00  0.00    +0.000 C 
ATOM     13  O   UNL     1      -2.529  12.008  23.825  0.00  0.00    +0.000 OA
ATOM     14  C   UNL     1      -4.144  13.702  23.789  0.00  0.00    +0.000 C 
ATOM     15  C   UNL     1      -3.393  14.250  25.051  0.00  0.00    +0.000 C 
ATOM     16  C   UNL     1      -3.013  15.682  24.657  0.00  0.00    +0.000 C 
ATOM     17  C   UNL     1      -4.248  16.531  24.953  0.00  0.00    +0.000 C 
ATOM     18  C   UNL     1      -1.899  15.712  23.794  0.00  0.00    +0.000 C 
ATOM     19  C   UNL     1      -1.678  16.457  22.411  0.00  0.00    +0.000 C 
ATOM     20  C   UNL     1      -1.558  17.918  22.794  0.00  0.00    +0.000 C 
ATOM     21  C   UNL     1      -0.523  15.830  21.132  0.00  0.00    +0.000 C 
ENDROOT
BRANCH   6  22
ATOM     22  C   UNL     1       0.607   9.974  20.359  0.00  0.00    +0.000 C 
ATOM     23  C   UNL     1       0.451   9.153  21.611  0.00  0.00    +0.000 C 
ENDBRANCH   6  22
BRANCH  14  24
ATOM     24  O   UNL     1      -4.693  14.750  22.909  0.00  0.00    +0.000 OA
ATOM     25  H   UNL     1      -4.089  14.853  22.160  0.00  0.00    +0.000 HD
ENDBRANCH  14  24
BRANCH  14  26
ATOM     26  C   UNL     1      -5.327  12.828  24.038  0.00  0.00    +0.000 C 
BRANCH  26  27
ATOM     27  O   UNL     1      -5.018  11.980  25.172  0.00  0.00    +0.000 OA
ATOM     28  H   UNL     1      -4.866  11.101  24.769  0.00  0.00    +0.000 HD
ENDBRANCH  26  27
ENDBRANCH  14  26
TORSDOF 4
ENDMDL
MODEL 9
REMARK VINA RESULT:      -5.4      1.803      6.748
REMARK  Name = 
REMARK  9 active torsions:
REMARK  status: ('A' for Active; 'I' for Inactive)
REMARK    1  A    between atoms: C_4  and  C_5
REMARK    2  A    between atoms: C_6  and  C_7
REMARK    3  A    between atoms: C_7  and  C_8
REMARK    4  A    between atoms: C_12  and  C_13
REMARK    5  A    between atoms: C_16  and  O_17
REMARK    6  A    between atoms: C_16  and  C_18
REMARK    7  A    between atoms: C_18  and  O_19
REMARK    8  A    between atoms: C_21  and  C_22
REMARK    9  A    between atoms: C_24  and  C_25
REMARK                            x       y       z     vdW  Elec       q    Type
REMARK                         _______ _______ _______ _____ _____    ______ ____
ROOT
ATOM      1  C   UNL     1      -1.776  10.413  17.782  0.00  0.00    +0.000 C 
ATOM      2  C   UNL     1      -2.061  11.478  18.557  0.00  0.00    +0.000 C 
ATOM      3  C   UNL     1      -0.979  12.530  18.405  0.00  0.00    +0.000 C 
ATOM      4  C   UNL     1       0.237  12.721  18.997  0.00  0.00    +0.000 C 
ATOM      5  C   UNL     1       1.074  11.711  19.826  0.00  0.00    +0.000 C 
ATOM      6  C   UNL     1       0.357  14.200  19.422  0.00  0.00    +0.000 C 
ATOM      7  O   UNL     1       0.040  14.159  20.814  0.00  0.00    +0.000 OA
ATOM      8  C   UNL     1      -1.300  13.990  20.936  0.00  0.00    +0.000 C 
ATOM      9  O   UNL     1      -2.136  14.375  20.117  0.00  0.00    +0.000 OA
ATOM     10  C   UNL     1      -1.683  13.307  22.204  0.00  0.00    +0.000 C 
ATOM     11  C   UNL     1      -1.929  11.797  22.004  0.00  0.00    +0.000 C 
ATOM     12  C   UNL     1      -2.730  14.278  22.684  0.00  0.00    +0.000 C 
ATOM     13  O   UNL     1      -2.591  15.505  22.464  0.00  0.00    +0.000 OA
ATOM     14  C   UNL     1      -3.850  13.868  23.564  0.00  0.00    +0.000 C 
ATOM     15  C   UNL     1      -5.089  14.696  23.079  0.00  0.00    +0.000 C 
ATOM     16  C   UNL     1      -5.919  13.683  22.281  0.00  0.00    +0.000 C 
ATOM     17  C   UNL     1      -6.755  12.932  23.315  0.00  0.00    +0.000 C 
ATOM     18  C   UNL     1      -5.378  13.454  21.000  0.00  0.00    +0.000 C 
ATOM     19  C   UNL     1      -5.041  12.102  20.242  0.00  0.00    +0.000 C 
ATOM     20  C   UNL     1      -6.398  11.526  19.893  0.00  0.00    +0.000 C 
ATOM     21  C   UNL     1      -3.731  11.994  18.962  0.00  0.00    +0.000 C 
ENDROOT
BRANCH   6  22
ATOM     22  C   UNL     1       1.211  15.419  19.069  0.00  0.00    +0.000 C 
ATOM     23  C   UNL     1       2.553  15.282  18.402  0.00  0.00    +0.000 C 
ENDBRANCH   6  22
BRANCH  14  24
ATOM     24  O   UNL     1      -4.070  12.410  23.591  0.00  0.00    +0.000 OA
ATOM     25  H   UNL     1      -3.326  11.991  23.137  0.00  0.00    +0.000 HD
ENDBRANCH  14  24
BRANCH  14  26
ATOM     26  C   UNL     1      -3.351  14.151  24.941  0.00  0.00    +0.000 C 
BRANCH  26  27
ATOM     27  O   UNL     1      -3.766  15.495  25.293  0.00  0.00    +0.000 OA
ATOM     28  H   UNL     1      -2.922  15.961  25.462  0.00  0.00    +0.000 HD
ENDBRANCH  26  27
ENDBRANCH  14  26
TORSDOF 4
ENDMDL
