MODEL 1
REMARK VINA RESULT:      -7.1      0.000      0.000
REMARK  Name = 
REMARK  2 active torsions:
REMARK  status: ('A' for Active; 'I' for Inactive)
REMARK    1  A    between atoms: C_4  and  C_5
REMARK    2  A    between atoms: C_19  and  N_20
REMARK                            x       y       z     vdW  Elec       q    Type
REMARK                         _______ _______ _______ _____ _____    ______ ____
ROOT
ATOM      1  C   UNL     1      -4.885  11.873  18.872  0.00  0.00    +0.000 A 
ATOM      2  C   UNL     1      -6.233  11.719  18.545  0.00  0.00    +0.000 A 
ATOM      3  S   UNL     1      -7.303  12.381  19.657  0.00  0.00    +0.000 S 
ATOM      4  C   UNL     1      -6.026  12.774  20.696  0.00  0.00    +0.000 A 
ATOM      5  N   UNL     1      -6.381  13.403  21.823  0.00  0.00    +0.000 NA
ATOM      6  C   UNL     1      -5.365  13.614  22.625  0.00  0.00    +0.000 A 
ATOM      7  N   UNL     1      -4.107  13.248  22.398  0.00  0.00    +0.000 NA
ATOM      8  C   UNL     1      -3.697  12.710  21.197  0.00  0.00    +0.000 A 
ATOM      9  N   UNL     1      -2.310  12.799  20.958  0.00  0.00    +0.000 N 
ATOM     10  C   UNL     1      -1.718  13.874  21.801  0.00  0.00    +0.000 C 
ATOM     11  C   UNL     1      -1.239  13.158  23.093  0.00  0.00    +0.000 C 
ATOM     12  C   UNL     1      -1.011  11.712  22.689  0.00  0.00    +0.000 C 
ATOM     13  C   UNL     1      -1.341  11.697  21.201  0.00  0.00    +0.000 C 
ATOM     14  C   UNL     1      -0.030  12.043  20.417  0.00  0.00    +0.000 C 
ATOM     15  C   UNL     1       0.501  13.516  20.565  0.00  0.00    +0.000 C 
ATOM     16  C   UNL     1      -0.652  14.480  20.900  0.00  0.00    +0.000 C 
ATOM     17  C   UNL     1      -4.742  12.405  20.251  0.00  0.00    +0.000 A 
ENDROOT
BRANCH   1  21
ATOM     18  C   UNL     1      -2.492   9.985  15.854  0.00  0.00    +0.000 A 
ATOM     19  C   UNL     1      -3.610  10.715  15.494  0.00  0.00    +0.000 A 
ATOM     20  C   UNL     1      -4.318  11.425  16.475  0.00  0.00    +0.000 A 
ATOM     21  C   UNL     1      -3.957  11.363  17.843  0.00  0.00    +0.000 A 
ATOM     22  C   UNL     1      -2.828  10.625  18.174  0.00  0.00    +0.000 A 
ATOM     23  C   UNL     1      -2.078   9.965  17.187  0.00  0.00    +0.000 A 
ENDBRANCH   1  21
BRANCH  15  24
ATOM     24  N   UNL     1       1.586  13.748  21.549  0.00  0.00    +0.000 NA
ATOM     25  C   UNL     1       2.932  13.782  20.921  0.00  0.00    +0.000 C 
ATOM     26  C   UNL     1       3.167  15.182  21.456  0.00  0.00    +0.000 C 
ATOM     27  C   UNL     1       1.690  15.216  21.818  0.00  0.00    +0.000 C 
ENDBRANCH  15  24
TORSDOF 2
ENDMDL
MODEL 2
REMARK VINA RESULT:      -7.0      1.360      1.749
REMARK  Name = 
REMARK  2 active torsions:
REMARK  status: ('A' for Active; 'I' for Inactive)
REMARK    1  A    between atoms: C_4  and  C_5
REMARK    2  A    between atoms: C_19  and  N_20
REMARK                            x       y       z     vdW  Elec       q    Type
REMARK                         _______ _______ _______ _____ _____    ______ ____
ROOT
ATOM      1  C   UNL     1      -4.801  11.742  18.799  0.00  0.00    +0.000 A 
ATOM      2  C   UNL     1      -6.177  11.529  18.881  0.00  0.00    +0.000 A 
ATOM      3  S   UNL     1      -6.950  12.400  20.090  0.00  0.00    +0.000 S 
ATOM      4  C   UNL     1      -5.466  12.988  20.655  0.00  0.00    +0.000 A 
ATOM      5  N   UNL     1      -5.544  13.828  21.694  0.00  0.00    +0.000 NA
ATOM      6  C   UNL     1      -4.365  14.191  22.140  0.00  0.00    +0.000 A 
ATOM      7  N   UNL     1      -3.194  13.785  21.659  0.00  0.00    +0.000 NA
ATOM      8  C   UNL     1      -3.088  13.019  20.518  0.00  0.00    +0.000 A 
ATOM      9  N   UNL     1      -1.818  13.055  19.905  0.00  0.00    +0.000 N 
ATOM     10  C   UNL     1      -1.081  14.274  20.337  0.00  0.00    +0.000 C 
ATOM     11  C   UNL     1      -0.244  13.827  21.565  0.00  0.00    +0.000 C 
ATOM     12  C   UNL     1      -0.057  12.328  21.400  0.00  0.00    +0.000 C 
ATOM     13  C   UNL     1      -0.765  12.021  20.086  0.00  0.00    +0.000 C 
ATOM     14  C   UNL     1       0.275  12.202  18.929  0.00  0.00    +0.000 C 
ATOM     15  C   UNL     1       0.751  13.673  18.645  0.00  0.00    +0.000 C 
ATOM     16  C   UNL     1      -0.320  14.687  19.085  0.00  0.00    +0.000 C 
ATOM     17  C   UNL     1      -4.327  12.536  19.962  0.00  0.00    +0.000 A 
ENDROOT
BRANCH   1  21
ATOM     18  C   UNL     1      -2.543  10.038  15.574  0.00  0.00    +0.000 A 
ATOM     19  C   UNL     1      -2.221   9.729  16.883  0.00  0.00    +0.000 A 
ATOM     20  C   UNL     1      -3.037  10.196  17.925  0.00  0.00    +0.000 A 
ATOM     21  C   UNL     1      -4.150  11.036  17.678  0.00  0.00    +0.000 A 
ATOM     22  C   UNL     1      -4.452  11.326  16.354  0.00  0.00    +0.000 A 
ATOM     23  C   UNL     1      -3.676  10.807  15.303  0.00  0.00    +0.000 A 
ENDBRANCH   1  21
BRANCH  15  24
ATOM     24  N   UNL     1       2.043  14.092  19.239  0.00  0.00    +0.000 NA
ATOM     25  C   UNL     1       3.205  13.782  18.366  0.00  0.00    +0.000 C 
ATOM     26  C   UNL     1       3.598  15.247  18.338  0.00  0.00    +0.000 C 
ATOM     27  C   UNL     1       2.249  15.550  18.972  0.00  0.00    +0.000 C 
ENDBRANCH  15  24
TORSDOF 2
ENDMDL
MODEL 3
REMARK VINA RESULT:      -6.9      1.482      1.683
REMARK  Name = 
REMARK  2 active torsions:
REMARK  status: ('A' for Active; 'I' for Inactive)
REMARK    1  A    between atoms: C_4  and  C_5
REMARK    2  A    between atoms: C_19  and  N_20
REMARK                            x       y       z     vdW  Elec       q    Type
REMARK                         _______ _______ _______ _____ _____    ______ ____
ROOT
ATOM      1  C   UNL     1      -4.393  11.881  18.958  0.00  0.00    +0.000 A 
ATOM      2  C   UNL     1      -5.725  11.486  19.078  0.00  0.00    +0.000 A 
ATOM      3  S   UNL     1      -6.551  12.185  20.362  0.00  0.00    +0.000 S 
ATOM      4  C   UNL     1      -5.132  12.933  20.903  0.00  0.00    +0.000 A 
ATOM      5  N   UNL     1      -5.272  13.702  21.991  0.00  0.00    +0.000 NA
ATOM      6  C   UNL     1      -4.131  14.194  22.412  0.00  0.00    +0.000 A 
ATOM      7  N   UNL     1      -2.940  13.970  21.866  0.00  0.00    +0.000 NA
ATOM      8  C   UNL     1      -2.786  13.284  20.680  0.00  0.00    +0.000 A 
ATOM      9  N   UNL     1      -1.560  13.519  20.024  0.00  0.00    +0.000 N 
ATOM     10  C   UNL     1      -0.968  14.800  20.496  0.00  0.00    +0.000 C 
ATOM     11  C   UNL     1      -0.027  14.405  21.666  0.00  0.00    +0.000 C 
ATOM     12  C   UNL     1       0.345  12.955  21.409  0.00  0.00    +0.000 C 
ATOM     13  C   UNL     1      -0.374  12.624  20.107  0.00  0.00    +0.000 C 
ATOM     14  C   UNL     1       0.581  12.999  18.924  0.00  0.00    +0.000 C 
ATOM     15  C   UNL     1       0.849  14.532  18.706  0.00  0.00    +0.000 C 
ATOM     16  C   UNL     1      -0.324  15.373  19.242  0.00  0.00    +0.000 C 
ATOM     17  C   UNL     1      -3.976  12.671  20.145  0.00  0.00    +0.000 A 
ENDROOT
BRANCH   1  21
ATOM     18  C   UNL     1      -2.715   9.870  15.561  0.00  0.00    +0.000 A 
ATOM     19  C   UNL     1      -3.861  10.629  15.418  0.00  0.00    +0.000 A 
ATOM     20  C   UNL     1      -4.336  11.377  16.506  0.00  0.00    +0.000 A 
ATOM     21  C   UNL     1      -3.707  11.325  17.775  0.00  0.00    +0.000 A 
ATOM     22  C   UNL     1      -2.555  10.558  17.887  0.00  0.00    +0.000 A 
ATOM     23  C   UNL     1      -2.039   9.859  16.783  0.00  0.00    +0.000 A 
ENDBRANCH   1  21
BRANCH  15  24
ATOM     24  N   UNL     1       2.101  15.087  19.275  0.00  0.00    +0.000 NA
ATOM     25  C   UNL     1       3.275  14.203  19.052  0.00  0.00    +0.000 C 
ATOM     26  C   UNL     1       3.998  15.317  18.319  0.00  0.00    +0.000 C 
ATOM     27  C   UNL     1       2.678  16.072  18.308  0.00  0.00    +0.000 C 
ENDBRANCH  15  24
TORSDOF 2
ENDMDL
MODEL 4
REMARK VINA RESULT:      -6.5      2.287      3.951
REMARK  Name = 
REMARK  2 active torsions:
REMARK  status: ('A' for Active; 'I' for Inactive)
REMARK    1  A    between atoms: C_4  and  C_5
REMARK    2  A    between atoms: C_19  and  N_20
REMARK                            x       y       z     vdW  Elec       q    Type
REMARK                         _______ _______ _______ _____ _____    ______ ____
ROOT
ATOM      1  C   UNL     1      -2.912  11.928  18.759  0.00  0.00    +0.000 A 
ATOM      2  C   UNL     1      -3.317  11.403  17.532  0.00  0.00    +0.000 A 
ATOM      3  S   UNL     1      -4.968  11.501  17.239  0.00  0.00    +0.000 S 
ATOM      4  C   UNL     1      -5.236  12.113  18.794  0.00  0.00    +0.000 A 
ATOM      5  N   UNL     1      -6.511  12.408  19.079  0.00  0.00    +0.000 NA
ATOM      6  C   UNL     1      -6.673  12.803  20.319  0.00  0.00    +0.000 A 
ATOM      7  N   UNL     1      -5.714  12.902  21.235  0.00  0.00    +0.000 NA
ATOM      8  C   UNL     1      -4.381  12.721  20.933  0.00  0.00    +0.000 A 
ATOM      9  N   UNL     1      -3.489  13.287  21.867  0.00  0.00    +0.000 N 
ATOM     10  C   UNL     1      -4.180  14.347  22.652  0.00  0.00    +0.000 C 
ATOM     11  C   UNL     1      -4.719  13.628  23.917  0.00  0.00    +0.000 C 
ATOM     12  C   UNL     1      -3.824  12.415  24.101  0.00  0.00    +0.000 C 
ATOM     13  C   UNL     1      -2.821  12.531  22.960  0.00  0.00    +0.000 C 
ATOM     14  C   UNL     1      -1.619  13.399  23.466  0.00  0.00    +0.000 C 
ATOM     15  C   UNL     1      -1.920  14.921  23.722  0.00  0.00    +0.000 C 
ATOM     16  C   UNL     1      -3.097  15.398  22.852  0.00  0.00    +0.000 C 
ATOM     17  C   UNL     1      -4.091  12.252  19.602  0.00  0.00    +0.000 A 
ENDROOT
BRANCH   1  21
ATOM     18  C   UNL     1       1.252  12.175  19.761  0.00  0.00    +0.000 A 
ATOM     19  C   UNL     1       0.442  11.251  20.394  0.00  0.00    +0.000 A 
ATOM     20  C   UNL     1      -0.889  11.097  19.977  0.00  0.00    +0.000 A 
ATOM     21  C   UNL     1      -1.449  11.912  18.964  0.00  0.00    +0.000 A 
ATOM     22  C   UNL     1      -0.611  12.828  18.343  0.00  0.00    +0.000 A 
ATOM     23  C   UNL     1       0.739  12.941  18.712  0.00  0.00    +0.000 A 
ENDBRANCH   1  21
BRANCH  15  24
ATOM     24  N   UNL     1      -2.196  15.330  25.120  0.00  0.00    +0.000 NA
ATOM     25  C   UNL     1      -0.967  15.729  25.855  0.00  0.00    +0.000 C 
ATOM     26  C   UNL     1      -1.555  17.101  26.129  0.00  0.00    +0.000 C 
ATOM     27  C   UNL     1      -2.647  16.756  25.128  0.00  0.00    +0.000 C 
ENDBRANCH  15  24
TORSDOF 2
ENDMDL
MODEL 5
REMARK VINA RESULT:      -6.5      2.361      4.745
REMARK  Name = 
REMARK  2 active torsions:
REMARK  status: ('A' for Active; 'I' for Inactive)
REMARK    1  A    between atoms: C_4  and  C_5
REMARK    2  A    between atoms: C_19  and  N_20
REMARK                            x       y       z     vdW  Elec       q    Type
REMARK                         _______ _______ _______ _____ _____    ______ ____
ROOT
ATOM      1  C   UNL     1      -4.021  11.510  17.717  0.00  0.00    +0.000 A 
ATOM      2  C   UNL     1      -4.148  10.775  16.538  0.00  0.00    +0.000 A 
ATOM      3  S   UNL     1      -2.821   9.815  16.165  0.00  0.00    +0.000 S 
ATOM      4  C   UNL     1      -1.960  10.446  17.479  0.00  0.00    +0.000 A 
ATOM      5  N   UNL     1      -0.733   9.938  17.652  0.00  0.00    +0.000 NA
ATOM      6  C   UNL     1      -0.082  10.515  18.634  0.00  0.00    +0.000 A 
ATOM      7  N   UNL     1      -0.538  11.509  19.390  0.00  0.00    +0.000 NA
ATOM      8  C   UNL     1      -1.837  11.964  19.311  0.00  0.00    +0.000 A 
ATOM      9  N   UNL     1      -2.278  12.674  20.447  0.00  0.00    +0.000 N 
ATOM     10  C   UNL     1      -1.433  12.328  21.622  0.00  0.00    +0.000 C 
ATOM     11  C   UNL     1      -0.312  13.401  21.645  0.00  0.00    +0.000 C 
ATOM     12  C   UNL     1      -0.891  14.603  20.918  0.00  0.00    +0.000 C 
ATOM     13  C   UNL     1      -2.302  14.158  20.556  0.00  0.00    +0.000 C 
ATOM     14  C   UNL     1      -3.242  14.525  21.753  0.00  0.00    +0.000 C 
ATOM     15  C   UNL     1      -3.030  13.708  23.080  0.00  0.00    +0.000 C 
ATOM     16  C   UNL     1      -2.423  12.326  22.778  0.00  0.00    +0.000 C 
ATOM     17  C   UNL     1      -2.634  11.418  18.241  0.00  0.00    +0.000 A 
ENDROOT
BRANCH   1  21
ATOM     18  C   UNL     1      -7.763  13.304  18.805  0.00  0.00    +0.000 A 
ATOM     19  C   UNL     1      -6.910  12.834  19.786  0.00  0.00    +0.000 A 
ATOM     20  C   UNL     1      -5.640  12.357  19.428  0.00  0.00    +0.000 A 
ATOM     21  C   UNL     1      -5.228  12.281  18.075  0.00  0.00    +0.000 A 
ATOM     22  C   UNL     1      -6.103  12.764  17.112  0.00  0.00    +0.000 A 
ATOM     23  C   UNL     1      -7.350  13.303  17.471  0.00  0.00    +0.000 A 
ENDBRANCH   1  21
BRANCH  15  24
ATOM     24  N   UNL     1      -2.209  14.341  24.140  0.00  0.00    +0.000 NA
ATOM     25  C   UNL     1      -2.065  15.809  23.955  0.00  0.00    +0.000 C 
ATOM     26  C   UNL     1      -2.675  16.059  25.321  0.00  0.00    +0.000 C 
ATOM     27  C   UNL     1      -3.071  14.591  25.337  0.00  0.00    +0.000 C 
ENDBRANCH  15  24
TORSDOF 2
ENDMDL
MODEL 6
REMARK VINA RESULT:      -6.4      2.576      4.231
REMARK  Name = 
REMARK  2 active torsions:
REMARK  status: ('A' for Active; 'I' for Inactive)
REMARK    1  A    between atoms: C_4  and  C_5
REMARK    2  A    between atoms: C_19  and  N_20
REMARK                            x       y       z     vdW  Elec       q    Type
REMARK                         _______ _______ _______ _____ _____    ______ ____
ROOT
ATOM      1  C   UNL     1      -2.251  10.794  18.177  0.00  0.00    +0.000 A 
ATOM      2  C   UNL     1      -2.376  10.079  16.985  0.00  0.00    +0.000 A 
ATOM      3  S   UNL     1      -3.734  10.464  16.076  0.00  0.00    +0.000 S 
ATOM      4  C   UNL     1      -4.294  11.494  17.298  0.00  0.00    +0.000 A 
ATOM      5  N   UNL     1      -5.443  12.127  17.027  0.00  0.00    +0.000 NA
ATOM      6  C   UNL     1      -5.871  12.850  18.034  0.00  0.00    +0.000 A 
ATOM      7  N   UNL     1      -5.276  12.961  19.219  0.00  0.00    +0.000 NA
ATOM      8  C   UNL     1      -4.036  12.419  19.478  0.00  0.00    +0.000 A 
ATOM      9  N   UNL     1      -3.367  12.990  20.580  0.00  0.00    +0.000 N 
ATOM     10  C   UNL     1      -3.924  14.340  20.868  0.00  0.00    +0.000 C 
ATOM     11  C   UNL     1      -5.032  14.103  21.929  0.00  0.00    +0.000 C 
ATOM     12  C   UNL     1      -4.650  12.808  22.626  0.00  0.00    +0.000 C 
ATOM     13  C   UNL     1      -3.346  12.406  21.949  0.00  0.00    +0.000 C 
ATOM     14  C   UNL     1      -2.171  13.084  22.731  0.00  0.00    +0.000 C 
ATOM     15  C   UNL     1      -2.069  14.649  22.613  0.00  0.00    +0.000 C 
ATOM     16  C   UNL     1      -2.702  15.139  21.299  0.00  0.00    +0.000 C 
ATOM     17  C   UNL     1      -3.486  11.575  18.447  0.00  0.00    +0.000 A 
ENDROOT
BRANCH   1  21
ATOM     18  C   UNL     1       1.238   9.467  20.289  0.00  0.00    +0.000 A 
ATOM     19  C   UNL     1       1.237   9.500  18.907  0.00  0.00    +0.000 A 
ATOM     20  C   UNL     1       0.137  10.045  18.229  0.00  0.00    +0.000 A 
ATOM     21  C   UNL     1      -1.009  10.506  18.922  0.00  0.00    +0.000 A 
ATOM     22  C   UNL     1      -0.978  10.464  20.309  0.00  0.00    +0.000 A 
ATOM     23  C   UNL     1       0.148   9.979  20.994  0.00  0.00    +0.000 A 
ENDBRANCH   1  21
BRANCH  15  24
ATOM     24  N   UNL     1      -2.646  15.449  23.720  0.00  0.00    +0.000 NA
ATOM     25  C   UNL     1      -2.750  14.682  24.989  0.00  0.00    +0.000 C 
ATOM     26  C   UNL     1      -1.885  15.706  25.699  0.00  0.00    +0.000 C 
ATOM     27  C   UNL     1      -1.564  16.283  24.330  0.00  0.00    +0.000 C 
ENDBRANCH  15  24
TORSDOF 2
ENDMDL
MODEL 7
REMARK VINA RESULT:      -6.3     10.649     12.869
REMARK  Name = 
REMARK  2 active torsions:
REMARK  status: ('A' for Active; 'I' for Inactive)
REMARK    1  A    between atoms: C_4  and  C_5
REMARK    2  A    between atoms: C_19  and  N_20
REMARK                            x       y       z     vdW  Elec       q    Type
REMARK                         _______ _______ _______ _____ _____    ______ ____
ROOT
ATOM      1  C   UNL     1      10.869  14.181  20.308  0.00  0.00    +0.000 A 
ATOM      2  C   UNL     1      11.826  14.782  19.490  0.00  0.00    +0.000 A 
ATOM      3  S   UNL     1      12.333  16.299  20.002  0.00  0.00    +0.000 S 
ATOM      4  C   UNL     1      11.194  16.287  21.255  0.00  0.00    +0.000 A 
ATOM      5  N   UNL     1      11.208  17.367  22.048  0.00  0.00    +0.000 NA
ATOM      6  C   UNL     1      10.257  17.342  22.951  0.00  0.00    +0.000 A 
ATOM      7  N   UNL     1       9.346  16.384  23.095  0.00  0.00    +0.000 NA
ATOM      8  C   UNL     1       9.386  15.211  22.373  0.00  0.00    +0.000 A 
ATOM      9  N   UNL     1       8.653  14.148  22.942  0.00  0.00    +0.000 N 
ATOM     10  C   UNL     1       8.445  14.397  24.395  0.00  0.00    +0.000 C 
ATOM     11  C   UNL     1       7.074  15.118  24.490  0.00  0.00    +0.000 C 
ATOM     12  C   UNL     1       6.315  14.705  23.241  0.00  0.00    +0.000 C 
ATOM     13  C   UNL     1       7.277  13.760  22.532  0.00  0.00    +0.000 C 
ATOM     14  C   UNL     1       7.016  12.315  23.076  0.00  0.00    +0.000 C 
ATOM     15  C   UNL     1       7.425  12.050  24.571  0.00  0.00    +0.000 C 
ATOM     16  C   UNL     1       8.549  13.007  25.006  0.00  0.00    +0.000 C 
ATOM     17  C   UNL     1      10.375  15.145  21.326  0.00  0.00    +0.000 A 
ENDROOT
BRANCH   1  21
ATOM     18  C   UNL     1       9.342  10.404  18.966  0.00  0.00    +0.000 A 
ATOM     19  C   UNL     1       9.880  11.296  18.056  0.00  0.00    +0.000 A 
ATOM     20  C   UNL     1      10.482  12.476  18.518  0.00  0.00    +0.000 A 
ATOM     21  C   UNL     1      10.498  12.814  19.893  0.00  0.00    +0.000 A 
ATOM     22  C   UNL     1       9.955  11.898  20.783  0.00  0.00    +0.000 A 
ATOM     23  C   UNL     1       9.408  10.685  20.332  0.00  0.00    +0.000 A 
ENDBRANCH   1  21
BRANCH  15  24
ATOM     24  N   UNL     1       6.349  12.122  25.589  0.00  0.00    +0.000 NA
ATOM     25  C   UNL     1       5.588  10.851  25.711  0.00  0.00    +0.000 C 
ATOM     26  C   UNL     1       5.946  10.757  27.182  0.00  0.00    +0.000 C 
ATOM     27  C   UNL     1       6.943  11.879  26.940  0.00  0.00    +0.000 C 
ENDBRANCH  15  24
TORSDOF 2
ENDMDL
MODEL 8
REMARK VINA RESULT:      -6.3      2.578      4.910
REMARK  Name = 
REMARK  2 active torsions:
REMARK  status: ('A' for Active; 'I' for Inactive)
REMARK    1  A    between atoms: C_4  and  C_5
REMARK    2  A    between atoms: C_19  and  N_20
REMARK                            x       y       z     vdW  Elec       q    Type
REMARK                         _______ _______ _______ _____ _____    ______ ____
ROOT
ATOM      1  C   UNL     1      -2.302  11.156  18.482  0.00  0.00    +0.000 A 
ATOM      2  C   UNL     1      -2.130  10.413  17.314  0.00  0.00    +0.000 A 
ATOM      3  S   UNL     1      -3.370  10.575  16.193  0.00  0.00    +0.000 S 
ATOM      4  C   UNL     1      -4.262  11.525  17.274  0.00  0.00    +0.000 A 
ATOM      5  N   UNL     1      -5.434  11.972  16.806  0.00  0.00    +0.000 NA
ATOM      6  C   UNL     1      -6.117  12.636  17.708  0.00  0.00    +0.000 A 
ATOM      7  N   UNL     1      -5.740  12.853  18.965  0.00  0.00    +0.000 NA
ATOM      8  C   UNL     1      -4.490  12.509  19.432  0.00  0.00    +0.000 A 
ATOM      9  N   UNL     1      -4.094  13.191  20.602  0.00  0.00    +0.000 N 
ATOM     10  C   UNL     1      -4.883  14.444  20.749  0.00  0.00    +0.000 C 
ATOM     11  C   UNL     1      -6.097  14.057  21.636  0.00  0.00    +0.000 C 
ATOM     12  C   UNL     1      -5.643  12.845  22.431  0.00  0.00    +0.000 C 
ATOM     13  C   UNL     1      -4.203  12.636  21.978  0.00  0.00    +0.000 C 
ATOM     14  C   UNL     1      -3.280  13.496  22.905  0.00  0.00    +0.000 C 
ATOM     15  C   UNL     1      -3.392  15.056  22.745  0.00  0.00    +0.000 C 
ATOM     16  C   UNL     1      -3.876  15.426  21.332  0.00  0.00    +0.000 C 
ATOM     17  C   UNL     1      -3.665  11.744  18.530  0.00  0.00    +0.000 A 
ENDROOT
BRANCH   1  21
ATOM     18  C   UNL     1       0.691  10.654  21.514  0.00  0.00    +0.000 A 
ATOM     19  C   UNL     1       0.445   9.638  20.610  0.00  0.00    +0.000 A 
ATOM     20  C   UNL     1      -0.450   9.854  19.552  0.00  0.00    +0.000 A 
ATOM     21  C   UNL     1      -1.164  11.070  19.420  0.00  0.00    +0.000 A 
ATOM     22  C   UNL     1      -0.893  12.074  20.339  0.00  0.00    +0.000 A 
ATOM     23  C   UNL     1       0.050  11.885  21.362  0.00  0.00    +0.000 A 
ENDBRANCH   1  21
BRANCH  15  24
ATOM     24  N   UNL     1      -4.249  15.775  23.719  0.00  0.00    +0.000 NA
ATOM     25  C   UNL     1      -3.564  16.017  25.017  0.00  0.00    +0.000 C 
ATOM     26  C   UNL     1      -3.770  17.512  24.867  0.00  0.00    +0.000 C 
ATOM     27  C   UNL     1      -4.186  17.242  23.430  0.00  0.00    +0.000 C 
ENDBRANCH  15  24
TORSDOF 2
ENDMDL
MODEL 9
REMARK VINA RESULT:      -6.2      2.400      4.146
REMARK  Name = 
REMARK  2 active torsions:
REMARK  status: ('A' for Active; 'I' for Inactive)
REMARK    1  A    between atoms: C_4  and  C_5
REMARK    2  A    between atoms: C_19  and  N_20
REMARK                            x       y       z     vdW  Elec       q    Type
REMARK                         _______ _______ _______ _____ _____    ______ ____
ROOT
ATOM      1  C   UNL     1      -2.352  11.592  17.975  0.00  0.00    +0.000 A 
ATOM      2  C   UNL     1      -2.504  10.901  16.773  0.00  0.00    +0.000 A 
ATOM      3  S   UNL     1      -4.078  10.840  16.193  0.00  0.00    +0.000 S 
ATOM      4  C   UNL     1      -4.652  11.606  17.590  0.00  0.00    +0.000 A 
ATOM      5  N   UNL     1      -5.971  11.835  17.613  0.00  0.00    +0.000 NA
ATOM      6  C   UNL     1      -6.373  12.358  18.747  0.00  0.00    +0.000 A 
ATOM      7  N   UNL     1      -5.600  12.633  19.793  0.00  0.00    +0.000 NA
ATOM      8  C   UNL     1      -4.227  12.520  19.748  0.00  0.00    +0.000 A 
ATOM      9  N   UNL     1      -3.546  13.255  20.741  0.00  0.00    +0.000 N 
ATOM     10  C   UNL     1      -4.422  14.343  21.256  0.00  0.00    +0.000 C 
ATOM     11  C   UNL     1      -5.139  13.736  22.492  0.00  0.00    +0.000 C 
ATOM     12  C   UNL     1      -4.227  12.623  22.978  0.00  0.00    +0.000 C 
ATOM     13  C   UNL     1      -3.044  12.682  22.019  0.00  0.00    +0.000 C 
ATOM     14  C   UNL     1      -2.001  13.690  22.608  0.00  0.00    +0.000 C 
ATOM     15  C   UNL     1      -2.424  15.205  22.614  0.00  0.00    +0.000 C 
ATOM     16  C   UNL     1      -3.451  15.488  21.503  0.00  0.00    +0.000 C 
ATOM     17  C   UNL     1      -3.679  11.922  18.556  0.00  0.00    +0.000 A 
ENDROOT
BRANCH   1  21
ATOM     18  C   UNL     1       1.830  12.054  18.807  0.00  0.00    +0.000 A 
ATOM     19  C   UNL     1       1.005  13.163  18.773  0.00  0.00    +0.000 A 
ATOM     20  C   UNL     1      -0.378  12.991  18.617  0.00  0.00    +0.000 A 
ATOM     21  C   UNL     1      -0.951  11.710  18.426  0.00  0.00    +0.000 A 
ATOM     22  C   UNL     1      -0.099  10.615  18.469  0.00  0.00    +0.000 A 
ATOM     23  C   UNL     1       1.278  10.777  18.690  0.00  0.00    +0.000 A 
ENDBRANCH   1  21
BRANCH  15  24
ATOM     24  N   UNL     1      -2.966  15.750  23.882  0.00  0.00    +0.000 NA
ATOM     25  C   UNL     1      -2.463  15.027  25.079  0.00  0.00    +0.000 C 
ATOM     26  C   UNL     1      -1.894  16.316  25.641  0.00  0.00    +0.000 C 
ATOM     27  C   UNL     1      -2.157  16.944  24.281  0.00  0.00    +0.000 C 
ENDBRANCH  15  24
TORSDOF 2
ENDMDL
