MODEL 1
REMARK VINA RESULT:      -8.6      0.000      0.000
REMARK  Name = 
REMARK  6 active torsions:
REMARK  status: ('A' for Active; 'I' for Inactive)
REMARK    1  A    between atoms: C_1  and  C_2
REMARK    2  A    between atoms: C_2  and  N_3
REMARK    3  A    between atoms: C_2  and  C_22
REMARK    4  A    between atoms: C_8  and  N_9
REMARK    5  A    between atoms: C_14  and  C_15
REMARK    6  A    between atoms: N_24  and  C_25
REMARK                            x       y       z     vdW  Elec       q    Type
REMARK                         _______ _______ _______ _____ _____    ______ ____
ROOT
ATOM      1  N   UNL     1       2.060   9.685  18.244  0.00  0.00    +0.000 N 
ATOM      2  C   UNL     1       2.127   8.473  18.909  0.00  0.00    +0.000 A 
ATOM      3  N   UNL     1       2.001   8.436  20.244  0.00  0.00    +0.000 NA
ATOM      4  C   UNL     1       2.067   7.233  20.834  0.00  0.00    +0.000 A 
ATOM      5  C   UNL     1       2.197   6.063  20.139  0.00  0.00    +0.000 A 
ATOM      6  C   UNL     1       2.353   6.194  18.778  0.00  0.00    +0.000 A 
ATOM      7  N   UNL     1       2.357   7.389  18.153  0.00  0.00    +0.000 NA
ATOM      8  H   UNL     1       1.837   9.486  17.274  0.00  0.00    +0.000 HD
ENDROOT
BRANCH   6   9
ATOM      9  N   UNL     1       2.644   5.036  18.049  0.00  0.00    +0.000 N 
ATOM     10  C   UNL     1       1.943   3.840  18.152  0.00  0.00    +0.000 C 
ATOM     11  O   UNL     1       0.968   3.588  18.841  0.00  0.00    +0.000 OA
ATOM     12  N   UNL     1       2.555   2.915  17.316  0.00  0.00    +0.000 N 
ATOM     13  C   UNL     1       3.833   3.411  16.878  0.00  0.00    +0.000 C 
ATOM     14  C   UNL     1       3.752   4.934  17.120  0.00  0.00    +0.000 C 
ATOM     15  H   UNL     1       2.275   1.944  17.358  0.00  0.00    +0.000 HD
BRANCH  14  16
ATOM     16  C   UNL     1       5.057   5.495  17.658  0.00  0.00    +0.000 A 
ATOM     17  C   UNL     1       5.615   4.966  18.831  0.00  0.00    +0.000 A 
ATOM     18  C   UNL     1       6.844   5.432  19.305  0.00  0.00    +0.000 A 
ATOM     19  C   UNL     1       7.531   6.427  18.614  0.00  0.00    +0.000 A 
ATOM     20  C   UNL     1       6.988   6.970  17.454  0.00  0.00    +0.000 A 
ATOM     21  C   UNL     1       5.755   6.514  16.983  0.00  0.00    +0.000 A 
ENDBRANCH  14  16
ENDBRANCH   6   9
BRANCH   1  23
ATOM     22  C   UNL     1       1.836  12.078  18.478  0.00  0.00    +0.000 C 
ATOM     23  C   UNL     1       1.204  10.720  18.825  0.00  0.00    +0.000 C 
BRANCH  23  24
ATOM     24  C   UNL     1      -0.239  10.685  18.369  0.00  0.00    +0.000 A 
ATOM     25  C   UNL     1      -1.257  11.575  18.653  0.00  0.00    +0.000 A 
ATOM     26  N   UNL     1      -2.392  11.087  18.043  0.00  0.00    +0.000 N 
ATOM     27  C   UNL     1      -1.990   9.940  17.393  0.00  0.00    +0.000 A 
ATOM     28  N   UNL     1      -0.720   9.664  17.585  0.00  0.00    +0.000 NA
BRANCH  26  29
ATOM     29  C   UNL     1      -3.706  11.639  18.085  0.00  0.00    +0.000 A 
ATOM     30  C   UNL     1      -4.223  12.156  19.285  0.00  0.00    +0.000 A 
ATOM     31  C   UNL     1      -5.524  12.668  19.335  0.00  0.00    +0.000 A 
ATOM     32  C   UNL     1      -6.312  12.674  18.193  0.00  0.00    +0.000 A 
ATOM     33 CL   UNL     1      -7.914  13.295  18.261  0.00  0.00    +0.000 Cl
ATOM     34  C   UNL     1      -5.818  12.171  17.000  0.00  0.00    +0.000 A 
ATOM     35  C   UNL     1      -4.515  11.658  16.936  0.00  0.00    +0.000 A 
ENDBRANCH  26  29
ENDBRANCH  23  24
ENDBRANCH   1  23
TORSDOF 5
ENDMDL
MODEL 2
REMARK VINA RESULT:      -8.5      0.559      1.011
REMARK  Name = 
REMARK  6 active torsions:
REMARK  status: ('A' for Active; 'I' for Inactive)
REMARK    1  A    between atoms: C_1  and  C_2
REMARK    2  A    between atoms: C_2  and  N_3
REMARK    3  A    between atoms: C_2  and  C_22
REMARK    4  A    between atoms: C_8  and  N_9
REMARK    5  A    between atoms: C_14  and  C_15
REMARK    6  A    between atoms: N_24  and  C_25
REMARK                            x       y       z     vdW  Elec       q    Type
REMARK                         _______ _______ _______ _____ _____    ______ ____
ROOT
ATOM      1  N   UNL     1       1.840   9.229  18.346  0.00  0.00    +0.000 N 
ATOM      2  C   UNL     1       1.892   8.067  19.098  0.00  0.00    +0.000 A 
ATOM      3  N   UNL     1       1.846   8.135  20.436  0.00  0.00    +0.000 NA
ATOM      4  C   UNL     1       1.894   6.976  21.111  0.00  0.00    +0.000 A 
ATOM      5  C   UNL     1       1.930   5.753  20.501  0.00  0.00    +0.000 A 
ATOM      6  C   UNL     1       2.009   5.777  19.128  0.00  0.00    +0.000 A 
ATOM      7  N   UNL     1       2.028   6.920  18.414  0.00  0.00    +0.000 NA
ATOM      8  H   UNL     1       1.549   8.971  17.409  0.00  0.00    +0.000 HD
ENDROOT
BRANCH   6   9
ATOM      9  N   UNL     1       2.204   4.555  18.473  0.00  0.00    +0.000 N 
ATOM     10  C   UNL     1       1.554   3.371  18.800  0.00  0.00    +0.000 C 
ATOM     11  O   UNL     1       0.708   3.180  19.658  0.00  0.00    +0.000 OA
ATOM     12  N   UNL     1       2.043   2.373  17.967  0.00  0.00    +0.000 N 
ATOM     13  C   UNL     1       3.224   2.832  17.284  0.00  0.00    +0.000 C 
ATOM     14  C   UNL     1       3.151   4.370  17.391  0.00  0.00    +0.000 C 
ATOM     15  H   UNL     1       1.794   1.409  18.145  0.00  0.00    +0.000 HD
BRANCH  14  16
ATOM     16  C   UNL     1       4.513   4.988  17.656  0.00  0.00    +0.000 A 
ATOM     17  C   UNL     1       5.030   5.946  16.771  0.00  0.00    +0.000 A 
ATOM     18  C   UNL     1       6.254   6.566  17.033  0.00  0.00    +0.000 A 
ATOM     19  C   UNL     1       6.975   6.240  18.180  0.00  0.00    +0.000 A 
ATOM     20  C   UNL     1       6.481   5.284  19.063  0.00  0.00    +0.000 A 
ATOM     21  C   UNL     1       5.264   4.656  18.798  0.00  0.00    +0.000 A 
ENDBRANCH  14  16
ENDBRANCH   6   9
BRANCH   1  23
ATOM     22  C   UNL     1       1.846  11.633  18.581  0.00  0.00    +0.000 C 
ATOM     23  C   UNL     1       1.067  10.345  18.895  0.00  0.00    +0.000 C 
BRANCH  23  24
ATOM     24  C   UNL     1      -0.352  10.454  18.379  0.00  0.00    +0.000 A 
ATOM     25  C   UNL     1      -1.353  11.318  18.778  0.00  0.00    +0.000 A 
ATOM     26  N   UNL     1      -2.471  10.997  18.039  0.00  0.00    +0.000 N 
ATOM     27  C   UNL     1      -2.074   9.973  17.206  0.00  0.00    +0.000 A 
ATOM     28  N   UNL     1      -0.826   9.615  17.398  0.00  0.00    +0.000 NA
BRANCH  26  29
ATOM     29  C   UNL     1      -3.766  11.586  18.125  0.00  0.00    +0.000 A 
ATOM     30  C   UNL     1      -4.192  12.199  19.316  0.00  0.00    +0.000 A 
ATOM     31  C   UNL     1      -5.476  12.749  19.412  0.00  0.00    +0.000 A 
ATOM     32  C   UNL     1      -6.336  12.696  18.326  0.00  0.00    +0.000 A 
ATOM     33 CL   UNL     1      -7.916  13.364  18.452  0.00  0.00    +0.000 Cl
ATOM     34  C   UNL     1      -5.933  12.098  17.143  0.00  0.00    +0.000 A 
ATOM     35  C   UNL     1      -4.649  11.547  17.032  0.00  0.00    +0.000 A 
ENDBRANCH  26  29
ENDBRANCH  23  24
ENDBRANCH   1  23
TORSDOF 5
ENDMDL
MODEL 3
REMARK VINA RESULT:      -8.2      4.284      9.930
REMARK  Name = 
REMARK  6 active torsions:
REMARK  status: ('A' for Active; 'I' for Inactive)
REMARK    1  A    between atoms: C_1  and  C_2
REMARK    2  A    between atoms: C_2  and  N_3
REMARK    3  A    between atoms: C_2  and  C_22
REMARK    4  A    between atoms: C_8  and  N_9
REMARK    5  A    between atoms: C_14  and  C_15
REMARK    6  A    between atoms: N_24  and  C_25
REMARK                            x       y       z     vdW  Elec       q    Type
REMARK                         _______ _______ _______ _____ _____    ______ ____
ROOT
ATOM      1  N   UNL     1       1.967   7.635  19.244  0.00  0.00    +0.000 N 
ATOM      2  C   UNL     1       1.354   8.583  20.046  0.00  0.00    +0.000 A 
ATOM      3  N   UNL     1       0.855   8.226  21.239  0.00  0.00    +0.000 NA
ATOM      4  C   UNL     1       0.278   9.189  21.975  0.00  0.00    +0.000 A 
ATOM      5  C   UNL     1       0.230  10.500  21.591  0.00  0.00    +0.000 A 
ATOM      6  C   UNL     1       0.735  10.772  20.340  0.00  0.00    +0.000 A 
ATOM      7  N   UNL     1       1.265   9.823  19.542  0.00  0.00    +0.000 NA
ATOM      8  H   UNL     1       2.555   8.131  18.584  0.00  0.00    +0.000 HD
ENDROOT
BRANCH   6   9
ATOM      9  N   UNL     1       0.566  12.070  19.845  0.00  0.00    +0.000 N 
ATOM     10  C   UNL     1       0.940  13.227  20.518  0.00  0.00    +0.000 C 
ATOM     11  O   UNL     1       1.489  13.331  21.603  0.00  0.00    +0.000 OA
ATOM     12  N   UNL     1       0.568  14.313  19.736  0.00  0.00    +0.000 N 
ATOM     13  C   UNL     1      -0.312  13.885  18.680  0.00  0.00    +0.000 C 
ATOM     14  C   UNL     1      -0.067  12.365  18.575  0.00  0.00    +0.000 C 
ATOM     15  H   UNL     1       0.630  15.247  20.119  0.00  0.00    +0.000 HD
BRANCH  14  16
ATOM     16  C   UNL     1      -1.357  11.596  18.339  0.00  0.00    +0.000 A 
ATOM     17  C   UNL     1      -2.558  12.057  18.897  0.00  0.00    +0.000 A 
ATOM     18  C   UNL     1      -3.760  11.394  18.641  0.00  0.00    +0.000 A 
ATOM     19  C   UNL     1      -3.779  10.267  17.822  0.00  0.00    +0.000 A 
ATOM     20  C   UNL     1      -2.595   9.790  17.268  0.00  0.00    +0.000 A 
ATOM     21  C   UNL     1      -1.391  10.444  17.531  0.00  0.00    +0.000 A 
ENDBRANCH  14  16
ENDBRANCH   6   9
BRANCH   1  23
ATOM     22  C   UNL     1       1.597   5.548  20.404  0.00  0.00    +0.000 C 
ATOM     23  C   UNL     1       2.667   6.541  19.920  0.00  0.00    +0.000 C 
BRANCH  23  24
ATOM     24  C   UNL     1       3.699   5.825  19.075  0.00  0.00    +0.000 A 
ATOM     25  C   UNL     1       3.970   5.977  17.730  0.00  0.00    +0.000 A 
ATOM     26  N   UNL     1       4.964   5.074  17.420  0.00  0.00    +0.000 N 
ATOM     27  C   UNL     1       5.265   4.444  18.609  0.00  0.00    +0.000 A 
ATOM     28  N   UNL     1       4.515   4.855  19.607  0.00  0.00    +0.000 NA
BRANCH  26  29
ATOM     29  C   UNL     1       5.548   4.830  16.143  0.00  0.00    +0.000 A 
ATOM     30  C   UNL     1       6.831   5.319  15.842  0.00  0.00    +0.000 A 
ATOM     31  C   UNL     1       7.391   5.108  14.576  0.00  0.00    +0.000 A 
ATOM     32  C   UNL     1       6.683   4.407  13.611  0.00  0.00    +0.000 A 
ATOM     33 CL   UNL     1       7.371   4.159  12.055  0.00  0.00    +0.000 Cl
ATOM     34  C   UNL     1       5.418   3.916  13.892  0.00  0.00    +0.000 A 
ATOM     35  C   UNL     1       4.846   4.117  15.156  0.00  0.00    +0.000 A 
ENDBRANCH  26  29
ENDBRANCH  23  24
ENDBRANCH   1  23
TORSDOF 5
ENDMDL
MODEL 4
REMARK VINA RESULT:      -7.9      3.856     10.130
REMARK  Name = 
REMARK  6 active torsions:
REMARK  status: ('A' for Active; 'I' for Inactive)
REMARK    1  A    between atoms: C_1  and  C_2
REMARK    2  A    between atoms: C_2  and  N_3
REMARK    3  A    between atoms: C_2  and  C_22
REMARK    4  A    between atoms: C_8  and  N_9
REMARK    5  A    between atoms: C_14  and  C_15
REMARK    6  A    between atoms: N_24  and  C_25
REMARK                            x       y       z     vdW  Elec       q    Type
REMARK                         _______ _______ _______ _____ _____    ______ ____
ROOT
ATOM      1  N   UNL     1      -0.240   9.230  20.646  0.00  0.00    +0.000 N 
ATOM      2  C   UNL     1      -0.692  10.386  20.034  0.00  0.00    +0.000 A 
ATOM      3  N   UNL     1      -0.020  11.536  20.198  0.00  0.00    +0.000 NA
ATOM      4  C   UNL     1      -0.502  12.622  19.575  0.00  0.00    +0.000 A 
ATOM      5  C   UNL     1      -1.592  12.593  18.752  0.00  0.00    +0.000 A 
ATOM      6  C   UNL     1      -2.241  11.382  18.666  0.00  0.00    +0.000 A 
ATOM      7  N   UNL     1      -1.827  10.282  19.326  0.00  0.00    +0.000 NA
ATOM      8  H   UNL     1      -0.649   8.445  20.151  0.00  0.00    +0.000 HD
ENDROOT
BRANCH   6   9
ATOM      9  N   UNL     1      -3.448  11.346  17.959  0.00  0.00    +0.000 N 
ATOM     10  C   UNL     1      -3.551  11.262  16.575  0.00  0.00    +0.000 C 
ATOM     11  O   UNL     1      -2.656  11.175  15.751  0.00  0.00    +0.000 OA
ATOM     12  N   UNL     1      -4.900  11.302  16.246  0.00  0.00    +0.000 N 
ATOM     13  C   UNL     1      -5.677  11.704  17.389  0.00  0.00    +0.000 C 
ATOM     14  C   UNL     1      -4.748  11.439  18.593  0.00  0.00    +0.000 C 
ATOM     15  H   UNL     1      -5.173  11.393  15.277  0.00  0.00    +0.000 HD
BRANCH  14  16
ATOM     16  C   UNL     1      -4.844  12.536  19.639  0.00  0.00    +0.000 A 
ATOM     17  C   UNL     1      -5.442  13.763  19.313  0.00  0.00    +0.000 A 
ATOM     18  C   UNL     1      -5.590  14.759  20.280  0.00  0.00    +0.000 A 
ATOM     19  C   UNL     1      -5.148  14.543  21.584  0.00  0.00    +0.000 A 
ATOM     20  C   UNL     1      -4.544  13.336  21.922  0.00  0.00    +0.000 A 
ATOM     21  C   UNL     1      -4.385  12.343  20.955  0.00  0.00    +0.000 A 
ENDBRANCH  14  16
ENDBRANCH   6   9
BRANCH   1  23
ATOM     22  C   UNL     1       1.471   9.119  22.348  0.00  0.00    +0.000 C 
ATOM     23  C   UNL     1       1.206   9.094  20.833  0.00  0.00    +0.000 C 
BRANCH  23  24
ATOM     24  C   UNL     1       1.816   7.854  20.217  0.00  0.00    +0.000 A 
ATOM     25  C   UNL     1       2.645   7.754  19.117  0.00  0.00    +0.000 A 
ATOM     26  N   UNL     1       2.895   6.411  18.929  0.00  0.00    +0.000 N 
ATOM     27  C   UNL     1       2.226   5.772  19.950  0.00  0.00    +0.000 A 
ATOM     28  N   UNL     1       1.559   6.601  20.720  0.00  0.00    +0.000 NA
BRANCH  26  29
ATOM     29  C   UNL     1       3.668   5.809  17.894  0.00  0.00    +0.000 A 
ATOM     30  C   UNL     1       4.445   6.602  17.032  0.00  0.00    +0.000 A 
ATOM     31  C   UNL     1       5.178   6.014  15.994  0.00  0.00    +0.000 A 
ATOM     32  C   UNL     1       5.144   4.639  15.814  0.00  0.00    +0.000 A 
ATOM     33 CL   UNL     1       6.038   3.922  14.531  0.00  0.00    +0.000 Cl
ATOM     34  C   UNL     1       4.385   3.841  16.655  0.00  0.00    +0.000 A 
ATOM     35  C   UNL     1       3.649   4.417  17.700  0.00  0.00    +0.000 A 
ENDBRANCH  26  29
ENDBRANCH  23  24
ENDBRANCH   1  23
TORSDOF 5
ENDMDL
MODEL 5
REMARK VINA RESULT:      -7.9      4.309      9.951
REMARK  Name = 
REMARK  6 active torsions:
REMARK  status: ('A' for Active; 'I' for Inactive)
REMARK    1  A    between atoms: C_1  and  C_2
REMARK    2  A    between atoms: C_2  and  N_3
REMARK    3  A    between atoms: C_2  and  C_22
REMARK    4  A    between atoms: C_8  and  N_9
REMARK    5  A    between atoms: C_14  and  C_15
REMARK    6  A    between atoms: N_24  and  C_25
REMARK                            x       y       z     vdW  Elec       q    Type
REMARK                         _______ _______ _______ _____ _____    ______ ____
ROOT
ATOM      1  N   UNL     1       1.974   7.686  19.177  0.00  0.00    +0.000 N 
ATOM      2  C   UNL     1       1.354   8.623  19.986  0.00  0.00    +0.000 A 
ATOM      3  N   UNL     1       0.837   8.249  21.165  0.00  0.00    +0.000 NA
ATOM      4  C   UNL     1       0.254   9.202  21.909  0.00  0.00    +0.000 A 
ATOM      5  C   UNL     1       0.218  10.519  21.547  0.00  0.00    +0.000 A 
ATOM      6  C   UNL     1       0.741  10.809  20.308  0.00  0.00    +0.000 A 
ATOM      7  N   UNL     1       1.278   9.872  19.501  0.00  0.00    +0.000 NA
ATOM      8  H   UNL     1       2.574   8.191  18.533  0.00  0.00    +0.000 HD
ENDROOT
BRANCH   6   9
ATOM      9  N   UNL     1       0.585  12.116  19.832  0.00  0.00    +0.000 N 
ATOM     10  C   UNL     1       0.969  13.260  20.524  0.00  0.00    +0.000 C 
ATOM     11  O   UNL     1       1.517  13.342  21.610  0.00  0.00    +0.000 OA
ATOM     12  N   UNL     1       0.608  14.361  19.758  0.00  0.00    +0.000 N 
ATOM     13  C   UNL     1      -0.274  13.958  18.694  0.00  0.00    +0.000 C 
ATOM     14  C   UNL     1      -0.044  12.437  18.566  0.00  0.00    +0.000 C 
ATOM     15  H   UNL     1       0.678  15.288  20.155  0.00  0.00    +0.000 HD
BRANCH  14  16
ATOM     16  C   UNL     1      -1.340  11.684  18.317  0.00  0.00    +0.000 A 
ATOM     17  C   UNL     1      -1.336  10.532  17.516  0.00  0.00    +0.000 A 
ATOM     18  C   UNL     1      -2.509   9.797  17.326  0.00  0.00    +0.000 A 
ATOM     19  C   UNL     1      -3.696  10.199  17.934  0.00  0.00    +0.000 A 
ATOM     20  C   UNL     1      -3.719  11.345  18.723  0.00  0.00    +0.000 A 
ATOM     21  C   UNL     1      -2.552  12.087  18.906  0.00  0.00    +0.000 A 
ENDBRANCH  14  16
ENDBRANCH   6   9
BRANCH   1  23
ATOM     22  C   UNL     1       1.577   5.600  20.329  0.00  0.00    +0.000 C 
ATOM     23  C   UNL     1       2.661   6.577  19.844  0.00  0.00    +0.000 C 
BRANCH  23  24
ATOM     24  C   UNL     1       3.676   5.849  18.990  0.00  0.00    +0.000 A 
ATOM     25  C   UNL     1       3.967   6.028  17.652  0.00  0.00    +0.000 A 
ATOM     26  N   UNL     1       4.932   5.098  17.328  0.00  0.00    +0.000 N 
ATOM     27  C   UNL     1       5.197   4.426  18.502  0.00  0.00    +0.000 A 
ATOM     28  N   UNL     1       4.452   4.836  19.503  0.00  0.00    +0.000 NA
BRANCH  26  29
ATOM     29  C   UNL     1       5.522   4.869  16.051  0.00  0.00    +0.000 A 
ATOM     30  C   UNL     1       4.818   4.167  15.057  0.00  0.00    +0.000 A 
ATOM     31  C   UNL     1       5.409   3.913  13.814  0.00  0.00    +0.000 A 
ATOM     32  C   UNL     1       6.696   4.360  13.553  0.00  0.00    +0.000 A 
ATOM     33 CL   UNL     1       7.422   4.037  12.028  0.00  0.00    +0.000 Cl
ATOM     34  C   UNL     1       7.404   5.056  14.520  0.00  0.00    +0.000 A 
ATOM     35  C   UNL     1       6.823   5.320  15.768  0.00  0.00    +0.000 A 
ENDBRANCH  26  29
ENDBRANCH  23  24
ENDBRANCH   1  23
TORSDOF 5
ENDMDL
MODEL 6
REMARK VINA RESULT:      -7.8      3.877     10.106
REMARK  Name = 
REMARK  6 active torsions:
REMARK  status: ('A' for Active; 'I' for Inactive)
REMARK    1  A    between atoms: C_1  and  C_2
REMARK    2  A    between atoms: C_2  and  N_3
REMARK    3  A    between atoms: C_2  and  C_22
REMARK    4  A    between atoms: C_8  and  N_9
REMARK    5  A    between atoms: C_14  and  C_15
REMARK    6  A    between atoms: N_24  and  C_25
REMARK                            x       y       z     vdW  Elec       q    Type
REMARK                         _______ _______ _______ _____ _____    ______ ____
ROOT
ATOM      1  N   UNL     1      -0.253   9.237  20.637  0.00  0.00    +0.000 N 
ATOM      2  C   UNL     1      -0.722  10.406  20.063  0.00  0.00    +0.000 A 
ATOM      3  N   UNL     1      -0.063  11.557  20.259  0.00  0.00    +0.000 NA
ATOM      4  C   UNL     1      -0.561  12.657  19.672  0.00  0.00    +0.000 A 
ATOM      5  C   UNL     1      -1.656  12.641  18.855  0.00  0.00    +0.000 A 
ATOM      6  C   UNL     1      -2.291  11.425  18.736  0.00  0.00    +0.000 A 
ATOM      7  N   UNL     1      -1.860  10.310  19.359  0.00  0.00    +0.000 NA
ATOM      8  H   UNL     1      -0.656   8.462  20.120  0.00  0.00    +0.000 HD
ENDROOT
BRANCH   6   9
ATOM      9  N   UNL     1      -3.502  11.397  18.036  0.00  0.00    +0.000 N 
ATOM     10  C   UNL     1      -3.613  11.323  16.652  0.00  0.00    +0.000 C 
ATOM     11  O   UNL     1      -2.723  11.241  15.822  0.00  0.00    +0.000 OA
ATOM     12  N   UNL     1      -4.964  11.368  16.331  0.00  0.00    +0.000 N 
ATOM     13  C   UNL     1      -5.734  11.763  17.481  0.00  0.00    +0.000 C 
ATOM     14  C   UNL     1      -4.799  11.486  18.677  0.00  0.00    +0.000 C 
ATOM     15  H   UNL     1      -5.243  11.467  15.364  0.00  0.00    +0.000 HD
BRANCH  14  16
ATOM     16  C   UNL     1      -4.887  12.576  19.733  0.00  0.00    +0.000 A 
ATOM     17  C   UNL     1      -4.475  12.312  21.047  0.00  0.00    +0.000 A 
ATOM     18  C   UNL     1      -4.496  13.320  22.013  0.00  0.00    +0.000 A 
ATOM     19  C   UNL     1      -4.923  14.604  21.679  0.00  0.00    +0.000 A 
ATOM     20  C   UNL     1      -5.345  14.880  20.383  0.00  0.00    +0.000 A 
ATOM     21  C   UNL     1      -5.336  13.872  19.418  0.00  0.00    +0.000 A 
ENDBRANCH  14  16
ENDBRANCH   6   9
BRANCH   1  23
ATOM     22  C   UNL     1       1.475   9.142  22.323  0.00  0.00    +0.000 C 
ATOM     23  C   UNL     1       1.196   9.113  20.811  0.00  0.00    +0.000 C 
BRANCH  23  24
ATOM     24  C   UNL     1       1.810   7.876  20.191  0.00  0.00    +0.000 A 
ATOM     25  C   UNL     1       2.608   7.777  19.068  0.00  0.00    +0.000 A 
ATOM     26  N   UNL     1       2.877   6.437  18.888  0.00  0.00    +0.000 N 
ATOM     27  C   UNL     1       2.249   5.798  19.936  0.00  0.00    +0.000 A 
ATOM     28  N   UNL     1       1.590   6.625  20.716  0.00  0.00    +0.000 NA
BRANCH  26  29
ATOM     29  C   UNL     1       3.629   5.837  17.837  0.00  0.00    +0.000 A 
ATOM     30  C   UNL     1       3.622   4.443  17.663  0.00  0.00    +0.000 A 
ATOM     31  C   UNL     1       4.386   3.850  16.651  0.00  0.00    +0.000 A 
ATOM     32  C   UNL     1       5.153   4.640  15.807  0.00  0.00    +0.000 A 
ATOM     33 CL   UNL     1       6.098   3.906  14.571  0.00  0.00    +0.000 Cl
ATOM     34  C   UNL     1       5.170   6.016  15.962  0.00  0.00    +0.000 A 
ATOM     35  C   UNL     1       4.406   6.623  16.969  0.00  0.00    +0.000 A 
ENDBRANCH  26  29
ENDBRANCH  23  24
ENDBRANCH   1  23
TORSDOF 5
ENDMDL
MODEL 7
REMARK VINA RESULT:      -7.7      9.040     10.997
REMARK  Name = 
REMARK  6 active torsions:
REMARK  status: ('A' for Active; 'I' for Inactive)
REMARK    1  A    between atoms: C_1  and  C_2
REMARK    2  A    between atoms: C_2  and  N_3
REMARK    3  A    between atoms: C_2  and  C_22
REMARK    4  A    between atoms: C_8  and  N_9
REMARK    5  A    between atoms: C_14  and  C_15
REMARK    6  A    between atoms: N_24  and  C_25
REMARK                            x       y       z     vdW  Elec       q    Type
REMARK                         _______ _______ _______ _____ _____    ______ ____
ROOT
ATOM      1  N   UNL     1       6.304  14.727  17.899  0.00  0.00    +0.000 N 
ATOM      2  C   UNL     1       7.615  15.154  18.023  0.00  0.00    +0.000 A 
ATOM      3  N   UNL     1       7.897  16.465  17.987  0.00  0.00    +0.000 NA
ATOM      4  C   UNL     1       9.184  16.820  18.119  0.00  0.00    +0.000 A 
ATOM      5  C   UNL     1      10.191  15.922  18.339  0.00  0.00    +0.000 A 
ATOM      6  C   UNL     1       9.819  14.597  18.328  0.00  0.00    +0.000 A 
ATOM      7  N   UNL     1       8.546  14.195  18.135  0.00  0.00    +0.000 NA
ATOM      8  H   UNL     1       6.253  13.788  18.280  0.00  0.00    +0.000 HD
ENDROOT
BRANCH   6   9
ATOM      9  N   UNL     1      10.838  13.641  18.395  0.00  0.00    +0.000 N 
ATOM     10  C   UNL     1      11.389  12.995  17.294  0.00  0.00    +0.000 C 
ATOM     11  O   UNL     1      11.127  13.149  16.113  0.00  0.00    +0.000 OA
ATOM     12  N   UNL     1      12.331  12.086  17.761  0.00  0.00    +0.000 N 
ATOM     13  C   UNL     1      12.198  11.923  19.185  0.00  0.00    +0.000 C 
ATOM     14  C   UNL     1      11.416  13.174  19.640  0.00  0.00    +0.000 C 
ATOM     15  H   UNL     1      12.741  11.420  17.120  0.00  0.00    +0.000 HD
BRANCH  14  16
ATOM     16  C   UNL     1      10.387  12.845  20.708  0.00  0.00    +0.000 A 
ATOM     17  C   UNL     1       9.978  13.836  21.613  0.00  0.00    +0.000 A 
ATOM     18  C   UNL     1       8.991  13.565  22.563  0.00  0.00    +0.000 A 
ATOM     19  C   UNL     1       8.398  12.305  22.619  0.00  0.00    +0.000 A 
ATOM     20  C   UNL     1       8.799  11.308  21.736  0.00  0.00    +0.000 A 
ATOM     21  C   UNL     1       9.793  11.573  20.793  0.00  0.00    +0.000 A 
ENDBRANCH  14  16
ENDBRANCH   6   9
BRANCH   1  23
ATOM     22  C   UNL     1       3.967  15.291  17.658  0.00  0.00    +0.000 C 
ATOM     23  C   UNL     1       5.261  15.611  18.425  0.00  0.00    +0.000 C 
BRANCH  23  24
ATOM     24  C   UNL     1       5.025  15.503  19.916  0.00  0.00    +0.000 A 
ATOM     25  C   UNL     1       5.953  15.374  20.931  0.00  0.00    +0.000 A 
ATOM     26  N   UNL     1       5.242  15.273  22.108  0.00  0.00    +0.000 N 
ATOM     27  C   UNL     1       3.917  15.379  21.741  0.00  0.00    +0.000 A 
ATOM     28  N   UNL     1       3.755  15.497  20.443  0.00  0.00    +0.000 NA
BRANCH  26  29
ATOM     29  C   UNL     1       5.762  15.083  23.421  0.00  0.00    +0.000 A 
ATOM     30  C   UNL     1       5.462  13.917  24.144  0.00  0.00    +0.000 A 
ATOM     31  C   UNL     1       5.945  13.745  25.447  0.00  0.00    +0.000 A 
ATOM     32  C   UNL     1       6.731  14.728  26.031  0.00  0.00    +0.000 A 
ATOM     33 CL   UNL     1       7.315  14.517  27.635  0.00  0.00    +0.000 Cl
ATOM     34  C   UNL     1       7.039  15.883  25.332  0.00  0.00    +0.000 A 
ATOM     35  C   UNL     1       6.565  16.067  24.025  0.00  0.00    +0.000 A 
ENDBRANCH  26  29
ENDBRANCH  23  24
ENDBRANCH   1  23
TORSDOF 5
ENDMDL
MODEL 8
REMARK VINA RESULT:      -7.6      4.538     10.754
REMARK  Name = 
REMARK  6 active torsions:
REMARK  status: ('A' for Active; 'I' for Inactive)
REMARK    1  A    between atoms: C_1  and  C_2
REMARK    2  A    between atoms: C_2  and  N_3
REMARK    3  A    between atoms: C_2  and  C_22
REMARK    4  A    between atoms: C_8  and  N_9
REMARK    5  A    between atoms: C_14  and  C_15
REMARK    6  A    between atoms: N_24  and  C_25
REMARK                            x       y       z     vdW  Elec       q    Type
REMARK                         _______ _______ _______ _____ _____    ______ ____
ROOT
ATOM      1  N   UNL     1      -1.298  11.953  21.356  0.00  0.00    +0.000 N 
ATOM      2  C   UNL     1      -2.261  12.923  21.576  0.00  0.00    +0.000 A 
ATOM      3  N   UNL     1      -1.961  14.217  21.389  0.00  0.00    +0.000 NA
ATOM      4  C   UNL     1      -2.937  15.111  21.611  0.00  0.00    +0.000 A 
ATOM      5  C   UNL     1      -4.212  14.760  21.956  0.00  0.00    +0.000 A 
ATOM      6  C   UNL     1      -4.424  13.415  22.159  0.00  0.00    +0.000 A 
ATOM      7  N   UNL     1      -3.455  12.490  22.009  0.00  0.00    +0.000 NA
ATOM      8  H   UNL     1      -1.781  11.072  21.215  0.00  0.00    +0.000 HD
ENDROOT
BRANCH   6   9
ATOM      9  N   UNL     1      -5.672  13.028  22.662  0.00  0.00    +0.000 N 
ATOM     10  C   UNL     1      -5.881  12.494  23.928  0.00  0.00    +0.000 C 
ATOM     11  O   UNL     1      -5.066  12.297  24.814  0.00  0.00    +0.000 OA
ATOM     12  N   UNL     1      -7.232  12.190  24.043  0.00  0.00    +0.000 N 
ATOM     13  C   UNL     1      -7.866  12.252  22.752  0.00  0.00    +0.000 C 
ATOM     14  C   UNL     1      -6.900  13.099  21.896  0.00  0.00    +0.000 C 
ATOM     15  H   UNL     1      -7.557  11.662  24.842  0.00  0.00    +0.000 HD
BRANCH  14  16
ATOM     16  C   UNL     1      -6.772  12.560  20.481  0.00  0.00    +0.000 A 
ATOM     17  C   UNL     1      -6.536  13.441  19.416  0.00  0.00    +0.000 A 
ATOM     18  C   UNL     1      -6.358  12.955  18.119  0.00  0.00    +0.000 A 
ATOM     19  C   UNL     1      -6.410  11.585  17.869  0.00  0.00    +0.000 A 
ATOM     20  C   UNL     1      -6.654  10.698  18.912  0.00  0.00    +0.000 A 
ATOM     21  C   UNL     1      -6.842  11.181  20.208  0.00  0.00    +0.000 A 
ENDBRANCH  14  16
ENDBRANCH   6   9
BRANCH   1  23
ATOM     22  C   UNL     1       0.879  12.940  21.006  0.00  0.00    +0.000 C 
ATOM     23  C   UNL     1      -0.299  12.226  20.321  0.00  0.00    +0.000 C 
BRANCH  23  24
ATOM     24  C   UNL     1       0.194  11.007  19.572  0.00  0.00    +0.000 A 
ATOM     25  C   UNL     1       1.127  10.069  19.967  0.00  0.00    +0.000 A 
ATOM     26  N   UNL     1       1.262   9.179  18.923  0.00  0.00    +0.000 N 
ATOM     27  C   UNL     1       0.376   9.613  17.960  0.00  0.00    +0.000 A 
ATOM     28  N   UNL     1      -0.259  10.709  18.309  0.00  0.00    +0.000 NA
BRANCH  26  29
ATOM     29  C   UNL     1       2.141   8.060  18.845  0.00  0.00    +0.000 A 
ATOM     30  C   UNL     1       2.974   7.884  17.728  0.00  0.00    +0.000 A 
ATOM     31  C   UNL     1       3.813   6.767  17.637  0.00  0.00    +0.000 A 
ATOM     32  C   UNL     1       3.830   5.826  18.656  0.00  0.00    +0.000 A 
ATOM     33 CL   UNL     1       4.855   4.451  18.535  0.00  0.00    +0.000 Cl
ATOM     34  C   UNL     1       3.017   5.985  19.767  0.00  0.00    +0.000 A 
ATOM     35  C   UNL     1       2.175   7.100  19.873  0.00  0.00    +0.000 A 
ENDBRANCH  26  29
ENDBRANCH  23  24
ENDBRANCH   1  23
TORSDOF 5
ENDMDL
MODEL 9
REMARK VINA RESULT:      -7.6      4.419     10.542
REMARK  Name = 
REMARK  6 active torsions:
REMARK  status: ('A' for Active; 'I' for Inactive)
REMARK    1  A    between atoms: C_1  and  C_2
REMARK    2  A    between atoms: C_2  and  N_3
REMARK    3  A    between atoms: C_2  and  C_22
REMARK    4  A    between atoms: C_8  and  N_9
REMARK    5  A    between atoms: C_14  and  C_15
REMARK    6  A    between atoms: N_24  and  C_25
REMARK                            x       y       z     vdW  Elec       q    Type
REMARK                         _______ _______ _______ _____ _____    ______ ____
ROOT
ATOM      1  N   UNL     1      -0.952  11.884  21.292  0.00  0.00    +0.000 N 
ATOM      2  C   UNL     1      -1.928  12.844  21.498  0.00  0.00    +0.000 A 
ATOM      3  N   UNL     1      -1.650  14.137  21.276  0.00  0.00    +0.000 NA
ATOM      4  C   UNL     1      -2.637  15.022  21.487  0.00  0.00    +0.000 A 
ATOM      5  C   UNL     1      -3.903  14.660  21.855  0.00  0.00    +0.000 A 
ATOM      6  C   UNL     1      -4.091  13.318  22.094  0.00  0.00    +0.000 A 
ATOM      7  N   UNL     1      -3.110  12.404  21.956  0.00  0.00    +0.000 NA
ATOM      8  H   UNL     1      -1.422  10.992  21.179  0.00  0.00    +0.000 HD
ENDROOT
BRANCH   6   9
ATOM      9  N   UNL     1      -5.327  12.925  22.622  0.00  0.00    +0.000 N 
ATOM     10  C   UNL     1      -5.507  12.379  23.888  0.00  0.00    +0.000 C 
ATOM     11  O   UNL     1      -4.673  12.175  24.753  0.00  0.00    +0.000 OA
ATOM     12  N   UNL     1      -6.855  12.072  24.029  0.00  0.00    +0.000 N 
ATOM     13  C   UNL     1      -7.517  12.145  22.754  0.00  0.00    +0.000 C 
ATOM     14  C   UNL     1      -6.572  13.000  21.884  0.00  0.00    +0.000 C 
ATOM     15  H   UNL     1      -7.161  11.537  24.831  0.00  0.00    +0.000 HD
BRANCH  14  16
ATOM     16  C   UNL     1      -6.475  12.474  20.462  0.00  0.00    +0.000 A 
ATOM     17  C   UNL     1      -6.732  11.121  20.197  0.00  0.00    +0.000 A 
ATOM     18  C   UNL     1      -6.704  10.636  18.888  0.00  0.00    +0.000 A 
ATOM     19  C   UNL     1      -6.424  11.495  17.827  0.00  0.00    +0.000 A 
ATOM     20  C   UNL     1      -6.156  12.837  18.072  0.00  0.00    +0.000 A 
ATOM     21  C   UNL     1      -6.173  13.323  19.380  0.00  0.00    +0.000 A 
ENDBRANCH  14  16
ENDBRANCH   6   9
BRANCH   1  23
ATOM     22  C   UNL     1       1.107  13.065  20.842  0.00  0.00    +0.000 C 
ATOM     23  C   UNL     1       0.031  12.147  20.238  0.00  0.00    +0.000 C 
BRANCH  23  24
ATOM     24  C   UNL     1       0.674  10.912  19.643  0.00  0.00    +0.000 A 
ATOM     25  C   UNL     1       0.808   9.655  20.198  0.00  0.00    +0.000 A 
ATOM     26  N   UNL     1       1.499   8.889  19.283  0.00  0.00    +0.000 N 
ATOM     27  C   UNL     1       1.718   9.721  18.206  0.00  0.00    +0.000 A 
ATOM     28  N   UNL     1       1.257  10.936  18.398  0.00  0.00    +0.000 NA
BRANCH  26  29
ATOM     29  C   UNL     1       1.914   7.533  19.425  0.00  0.00    +0.000 A 
ATOM     30  C   UNL     1       1.576   6.801  20.575  0.00  0.00    +0.000 A 
ATOM     31  C   UNL     1       2.011   5.479  20.729  0.00  0.00    +0.000 A 
ATOM     32  C   UNL     1       2.776   4.881  19.739  0.00  0.00    +0.000 A 
ATOM     33 CL   UNL     1       3.317   3.260  19.937  0.00  0.00    +0.000 Cl
ATOM     34  C   UNL     1       3.116   5.586  18.596  0.00  0.00    +0.000 A 
ATOM     35  C   UNL     1       2.685   6.909  18.428  0.00  0.00    +0.000 A 
ENDBRANCH  26  29
ENDBRANCH  23  24
ENDBRANCH   1  23
TORSDOF 5
ENDMDL
