MODEL 1
REMARK VINA RESULT:      -8.1      0.000      0.000
REMARK  Name = 
REMARK  19 active torsions:
REMARK  status: ('A' for Active; 'I' for Inactive)
REMARK    1  A    between atoms: C_1  and  C_2
REMARK    2  A    between atoms: C_2  and  C_3
REMARK    3  A    between atoms: C_3  and  O_4
REMARK    4  A    between atoms: C_3  and  C_5
REMARK    5  A    between atoms: C_11  and  C_12
REMARK    6  A    between atoms: C_12  and  C_13
REMARK    7  A    between atoms: C_14  and  C_15
REMARK    8  A    between atoms: C_14  and  C_16
REMARK    9  A    between atoms: C_16  and  C_17
REMARK   10  A    between atoms: C_17  and  C_18
REMARK   11  A    between atoms: C_19  and  C_20
REMARK   12  A    between atoms: C_19  and  C_21
REMARK   13  A    between atoms: C_22  and  O_23
REMARK   14  A    between atoms: C_24  and  C_25
REMARK   15  A    between atoms: C_25  and  C_27
REMARK   16  A    between atoms: C_27  and  C_28
REMARK   17  A    between atoms: C_28  and  C_29
REMARK   18  A    between atoms: C_28  and  C_30
REMARK   19  A    between atoms: C_31  and  O_32
REMARK                            x       y       z     vdW  Elec       q    Type
REMARK                         _______ _______ _______ _____ _____    ______ ____
ROOT
ATOM      1  C   UNL     1       2.603   4.408  20.040  0.00  0.00    +0.000 A 
ATOM      2  C   UNL     1       1.855   5.168  20.861  0.00  0.00    +0.000 A 
ATOM      3  C   UNL     1       1.597   6.595  20.669  0.00  0.00    +0.000 A 
ATOM      4  O   UNL     1       0.911   7.227  21.462  0.00  0.00    +0.000 OA
ATOM      5  O   UNL     1       2.160   7.166  19.551  0.00  0.00    +0.000 OA
ATOM      6  C   UNL     1       3.006   6.447  18.671  0.00  0.00    +0.000 A 
ATOM      7  C   UNL     1       3.582   7.213  17.630  0.00  0.00    +0.000 A 
ATOM      8  C   UNL     1       4.407   6.551  16.709  0.00  0.00    +0.000 A 
ATOM      9  C   UNL     1       4.699   5.189  16.864  0.00  0.00    +0.000 A 
ATOM     10  C   UNL     1       4.126   4.469  17.944  0.00  0.00    +0.000 A 
ATOM     11  C   UNL     1       3.251   5.076  18.870  0.00  0.00    +0.000 A 
ENDROOT
BRANCH   8  12
ATOM     12  O   UNL     1       4.954   7.227  15.652  0.00  0.00    +0.000 OA
ATOM     13  H   UNL     1       5.255   6.619  14.957  0.00  0.00    +0.000 HD
ENDBRANCH   8  12
BRANCH   9  14
ATOM     14  C   UNL     1       5.613   4.452  15.936  0.00  0.00    +0.000 C 
ATOM     15  O   UNL     1       6.700   4.069  16.384  0.00  0.00    +0.000 OA
BRANCH  14  16
ATOM     16  C   UNL     1       5.283   4.261  14.468  0.00  0.00    +0.000 C 
BRANCH  16  17
ATOM     17  C   UNL     1       6.494   3.860  13.616  0.00  0.00    +0.000 C 
ATOM     18  C   UNL     1       6.068   3.273  12.268  0.00  0.00    +0.000 C 
ATOM     19  C   UNL     1       7.390   5.078  13.396  0.00  0.00    +0.000 C 
ENDBRANCH  16  17
ENDBRANCH  14  16
ENDBRANCH   9  14
BRANCH  10  20
ATOM     20  O   UNL     1       4.466   3.151  18.124  0.00  0.00    +0.000 OA
ATOM     21  H   UNL     1       5.241   3.082  18.725  0.00  0.00    +0.000 HD
ENDBRANCH  10  20
BRANCH   1  22
ATOM     22  C   UNL     1       2.782   2.920  20.318  0.00  0.00    +0.000 C 
BRANCH  22  24
ATOM     23  C   UNL     1       0.953   2.342  18.656  0.00  0.00    +0.000 C 
ATOM     24  C   UNL     1       1.574   2.009  20.011  0.00  0.00    +0.000 C 
ENDBRANCH  22  24
BRANCH  22  25
ATOM     25  O   UNL     1       3.137   2.757  21.692  0.00  0.00    +0.000 OA
ATOM     26  H   UNL     1       4.085   2.937  21.784  0.00  0.00    +0.000 HD
ENDBRANCH  22  25
ENDBRANCH   1  22
BRANCH   7  27
ATOM     27  C   UNL     1       3.360   8.712  17.570  0.00  0.00    +0.000 C 
BRANCH  27  28
ATOM     28  C   UNL     1       1.963   9.144  17.917  0.00  0.00    +0.000 C 
ATOM     29  C   UNL     1       1.540  10.407  18.156  0.00  0.00    +0.000 C 
ATOM     30  C   UNL     1       2.437  11.622  18.097  0.00  0.00    +0.000 C 
BRANCH  29  31
ATOM     31  C   UNL     1       0.088  10.612  18.576  0.00  0.00    +0.000 C 
BRANCH  31  32
ATOM     32  C   UNL     1      -0.939   9.867  17.717  0.00  0.00    +0.000 C 
BRANCH  32  33
ATOM     33  C   UNL     1      -2.354  10.354  17.870  0.00  0.00    +0.000 C 
ATOM     34  C   UNL     1      -3.160  10.588  16.815  0.00  0.00    +0.000 C 
ATOM     35  C   UNL     1      -2.741  10.396  15.384  0.00  0.00    +0.000 C 
ATOM     36  C   UNL     1      -4.571  11.076  16.998  0.00  0.00    +0.000 C 
ENDBRANCH  32  33
ENDBRANCH  31  32
ENDBRANCH  29  31
ENDBRANCH  27  28
ENDBRANCH   7  27
TORSDOF 13
ENDMDL
MODEL 2
REMARK VINA RESULT:      -8.0      3.063      6.927
REMARK  Name = 
REMARK  19 active torsions:
REMARK  status: ('A' for Active; 'I' for Inactive)
REMARK    1  A    between atoms: C_1  and  C_2
REMARK    2  A    between atoms: C_2  and  C_3
REMARK    3  A    between atoms: C_3  and  O_4
REMARK    4  A    between atoms: C_3  and  C_5
REMARK    5  A    between atoms: C_11  and  C_12
REMARK    6  A    between atoms: C_12  and  C_13
REMARK    7  A    between atoms: C_14  and  C_15
REMARK    8  A    between atoms: C_14  and  C_16
REMARK    9  A    between atoms: C_16  and  C_17
REMARK   10  A    between atoms: C_17  and  C_18
REMARK   11  A    between atoms: C_19  and  C_20
REMARK   12  A    between atoms: C_19  and  C_21
REMARK   13  A    between atoms: C_22  and  O_23
REMARK   14  A    between atoms: C_24  and  C_25
REMARK   15  A    between atoms: C_25  and  C_27
REMARK   16  A    between atoms: C_27  and  C_28
REMARK   17  A    between atoms: C_28  and  C_29
REMARK   18  A    between atoms: C_28  and  C_30
REMARK   19  A    between atoms: C_31  and  O_32
REMARK                            x       y       z     vdW  Elec       q    Type
REMARK                         _______ _______ _______ _____ _____    ______ ____
ROOT
ATOM      1  C   UNL     1       1.643   8.090  20.021  0.00  0.00    +0.000 A 
ATOM      2  C   UNL     1       1.634   9.242  19.327  0.00  0.00    +0.000 A 
ATOM      3  C   UNL     1       2.319   9.449  18.051  0.00  0.00    +0.000 A 
ATOM      4  O   UNL     1       2.274  10.529  17.475  0.00  0.00    +0.000 OA
ATOM      5  O   UNL     1       2.998   8.364  17.546  0.00  0.00    +0.000 OA
ATOM      6  C   UNL     1       3.102   7.136  18.245  0.00  0.00    +0.000 A 
ATOM      7  C   UNL     1       3.923   6.161  17.630  0.00  0.00    +0.000 A 
ATOM      8  C   UNL     1       4.043   4.914  18.260  0.00  0.00    +0.000 A 
ATOM      9  C   UNL     1       3.421   4.676  19.493  0.00  0.00    +0.000 A 
ATOM     10  C   UNL     1       2.636   5.696  20.090  0.00  0.00    +0.000 A 
ATOM     11  C   UNL     1       2.443   6.951  19.474  0.00  0.00    +0.000 A 
ENDROOT
BRANCH   8  12
ATOM     12  O   UNL     1       4.782   3.913  17.690  0.00  0.00    +0.000 OA
ATOM     13  H   UNL     1       5.314   3.441  18.352  0.00  0.00    +0.000 HD
ENDBRANCH   8  12
BRANCH   9  14
ATOM     14  C   UNL     1       3.561   3.379  20.228  0.00  0.00    +0.000 C 
ATOM     15  O   UNL     1       4.703   2.944  20.412  0.00  0.00    +0.000 OA
BRANCH  14  16
ATOM     16  C   UNL     1       2.355   2.561  20.648  0.00  0.00    +0.000 C 
BRANCH  16  17
ATOM     17  C   UNL     1       1.621   1.905  19.471  0.00  0.00    +0.000 C 
ATOM     18  C   UNL     1       0.552   2.830  18.884  0.00  0.00    +0.000 C 
ATOM     19  C   UNL     1       2.630   1.520  18.390  0.00  0.00    +0.000 C 
ENDBRANCH  16  17
ENDBRANCH  14  16
ENDBRANCH   9  14
BRANCH  10  20
ATOM     20  O   UNL     1       2.081   5.476  21.327  0.00  0.00    +0.000 OA
ATOM     21  H   UNL     1       1.968   4.511  21.478  0.00  0.00    +0.000 HD
ENDBRANCH  10  20
BRANCH   1  22
ATOM     22  C   UNL     1       0.868   7.973  21.329  0.00  0.00    +0.000 C 
BRANCH  22  24
ATOM     23  C   UNL     1      -0.479   9.619  22.714  0.00  0.00    +0.000 C 
ATOM     24  C   UNL     1      -0.439   8.788  21.433  0.00  0.00    +0.000 C 
ENDBRANCH  22  24
BRANCH  22  25
ATOM     25  O   UNL     1       1.730   8.357  22.401  0.00  0.00    +0.000 OA
ATOM     26  H   UNL     1       1.433   7.906  23.206  0.00  0.00    +0.000 HD
ENDBRANCH  22  25
ENDBRANCH   1  22
BRANCH   7  27
ATOM     27  C   UNL     1       4.694   6.496  16.368  0.00  0.00    +0.000 C 
BRANCH  27  28
ATOM     28  C   UNL     1       5.966   7.260  16.606  0.00  0.00    +0.000 C 
ATOM     29  C   UNL     1       7.140   6.760  17.059  0.00  0.00    +0.000 C 
ATOM     30  C   UNL     1       7.362   5.304  17.395  0.00  0.00    +0.000 C 
BRANCH  29  31
ATOM     31  C   UNL     1       8.287   7.734  17.310  0.00  0.00    +0.000 C 
BRANCH  31  32
ATOM     32  C   UNL     1       7.873   9.062  17.953  0.00  0.00    +0.000 C 
BRANCH  32  33
ATOM     33  C   UNL     1       8.870   9.624  18.927  0.00  0.00    +0.000 C 
ATOM     34  C   UNL     1       9.308  10.898  18.865  0.00  0.00    +0.000 C 
ATOM     35  C   UNL     1       8.857  11.887  17.825  0.00  0.00    +0.000 C 
ATOM     36  C   UNL     1      10.309  11.434  19.852  0.00  0.00    +0.000 C 
ENDBRANCH  32  33
ENDBRANCH  31  32
ENDBRANCH  29  31
ENDBRANCH  27  28
ENDBRANCH   7  27
TORSDOF 13
ENDMDL
MODEL 3
REMARK VINA RESULT:      -7.5      1.443      2.000
REMARK  Name = 
REMARK  19 active torsions:
REMARK  status: ('A' for Active; 'I' for Inactive)
REMARK    1  A    between atoms: C_1  and  C_2
REMARK    2  A    between atoms: C_2  and  C_3
REMARK    3  A    between atoms: C_3  and  O_4
REMARK    4  A    between atoms: C_3  and  C_5
REMARK    5  A    between atoms: C_11  and  C_12
REMARK    6  A    between atoms: C_12  and  C_13
REMARK    7  A    between atoms: C_14  and  C_15
REMARK    8  A    between atoms: C_14  and  C_16
REMARK    9  A    between atoms: C_16  and  C_17
REMARK   10  A    between atoms: C_17  and  C_18
REMARK   11  A    between atoms: C_19  and  C_20
REMARK   12  A    between atoms: C_19  and  C_21
REMARK   13  A    between atoms: C_22  and  O_23
REMARK   14  A    between atoms: C_24  and  C_25
REMARK   15  A    between atoms: C_25  and  C_27
REMARK   16  A    between atoms: C_27  and  C_28
REMARK   17  A    between atoms: C_28  and  C_29
REMARK   18  A    between atoms: C_28  and  C_30
REMARK   19  A    between atoms: C_31  and  O_32
REMARK                            x       y       z     vdW  Elec       q    Type
REMARK                         _______ _______ _______ _____ _____    ______ ____
ROOT
ATOM      1  C   UNL     1       2.141   5.044  20.483  0.00  0.00    +0.000 A 
ATOM      2  C   UNL     1       1.285   5.854  21.133  0.00  0.00    +0.000 A 
ATOM      3  C   UNL     1       0.997   7.237  20.752  0.00  0.00    +0.000 A 
ATOM      4  O   UNL     1       0.210   7.920  21.395  0.00  0.00    +0.000 OA
ATOM      5  O   UNL     1       1.654   7.706  19.637  0.00  0.00    +0.000 OA
ATOM      6  C   UNL     1       2.611   6.935  18.935  0.00  0.00    +0.000 A 
ATOM      7  C   UNL     1       3.265   7.607  17.875  0.00  0.00    +0.000 A 
ATOM      8  C   UNL     1       4.205   6.887  17.123  0.00  0.00    +0.000 A 
ATOM      9  C   UNL     1       4.527   5.566  17.462  0.00  0.00    +0.000 A 
ATOM     10  C   UNL     1       3.871   4.943  18.556  0.00  0.00    +0.000 A 
ATOM     11  C   UNL     1       2.883   5.607  19.314  0.00  0.00    +0.000 A 
ENDROOT
BRANCH   8  12
ATOM     12  O   UNL     1       4.834   7.467  16.055  0.00  0.00    +0.000 OA
ATOM     13  H   UNL     1       4.839   6.879  15.281  0.00  0.00    +0.000 HD
ENDBRANCH   8  12
BRANCH   9  14
ATOM     14  C   UNL     1       5.559   4.774  16.721  0.00  0.00    +0.000 C 
ATOM     15  O   UNL     1       5.161   3.932  15.908  0.00  0.00    +0.000 OA
BRANCH  14  16
ATOM     16  C   UNL     1       7.040   4.911  17.015  0.00  0.00    +0.000 C 
BRANCH  16  17
ATOM     17  C   UNL     1       7.347   5.858  18.183  0.00  0.00    +0.000 C 
ATOM     18  C   UNL     1       8.350   5.242  19.162  0.00  0.00    +0.000 C 
ATOM     19  C   UNL     1       7.891   7.178  17.641  0.00  0.00    +0.000 C 
ENDBRANCH  16  17
ENDBRANCH  14  16
ENDBRANCH   9  14
BRANCH  10  20
ATOM     20  O   UNL     1       4.237   3.671  18.919  0.00  0.00    +0.000 OA
ATOM     21  H   UNL     1       5.122   3.456  18.547  0.00  0.00    +0.000 HD
ENDBRANCH  10  20
BRANCH   1  22
ATOM     22  C   UNL     1       2.344   3.606  20.947  0.00  0.00    +0.000 C 
BRANCH  22  24
ATOM     23  C   UNL     1       1.023   2.454  19.111  0.00  0.00    +0.000 C 
ATOM     24  C   UNL     1       1.212   2.607  20.619  0.00  0.00    +0.000 C 
ENDBRANCH  22  24
BRANCH  22  25
ATOM     25  O   UNL     1       2.548   3.612  22.361  0.00  0.00    +0.000 OA
ATOM     26  H   UNL     1       1.731   3.920  22.783  0.00  0.00    +0.000 HD
ENDBRANCH  22  25
ENDBRANCH   1  22
BRANCH   7  27
ATOM     27  C   UNL     1       2.997   9.078  17.621  0.00  0.00    +0.000 C 
BRANCH  27  28
ATOM     28  C   UNL     1       1.600   9.518  17.956  0.00  0.00    +0.000 C 
ATOM     29  C   UNL     1       1.203  10.763  18.308  0.00  0.00    +0.000 C 
ATOM     30  C   UNL     1       2.137  11.948  18.410  0.00  0.00    +0.000 C 
BRANCH  29  31
ATOM     31  C   UNL     1      -0.259  10.971  18.690  0.00  0.00    +0.000 C 
BRANCH  31  32
ATOM     32  C   UNL     1      -1.249  10.057  17.962  0.00  0.00    +0.000 C 
BRANCH  32  33
ATOM     33  C   UNL     1      -2.669  10.549  17.959  0.00  0.00    +0.000 C 
ATOM     34  C   UNL     1      -3.341  10.825  16.822  0.00  0.00    +0.000 C 
ATOM     35  C   UNL     1      -2.751  10.679  15.446  0.00  0.00    +0.000 C 
ATOM     36  C   UNL     1      -4.761  11.318  16.848  0.00  0.00    +0.000 C 
ENDBRANCH  32  33
ENDBRANCH  31  32
ENDBRANCH  29  31
ENDBRANCH  27  28
ENDBRANCH   7  27
TORSDOF 13
ENDMDL
MODEL 4
REMARK VINA RESULT:      -7.5      1.065      1.347
REMARK  Name = 
REMARK  19 active torsions:
REMARK  status: ('A' for Active; 'I' for Inactive)
REMARK    1  A    between atoms: C_1  and  C_2
REMARK    2  A    between atoms: C_2  and  C_3
REMARK    3  A    between atoms: C_3  and  O_4
REMARK    4  A    between atoms: C_3  and  C_5
REMARK    5  A    between atoms: C_11  and  C_12
REMARK    6  A    between atoms: C_12  and  C_13
REMARK    7  A    between atoms: C_14  and  C_15
REMARK    8  A    between atoms: C_14  and  C_16
REMARK    9  A    between atoms: C_16  and  C_17
REMARK   10  A    between atoms: C_17  and  C_18
REMARK   11  A    between atoms: C_19  and  C_20
REMARK   12  A    between atoms: C_19  and  C_21
REMARK   13  A    between atoms: C_22  and  O_23
REMARK   14  A    between atoms: C_24  and  C_25
REMARK   15  A    between atoms: C_25  and  C_27
REMARK   16  A    between atoms: C_27  and  C_28
REMARK   17  A    between atoms: C_28  and  C_29
REMARK   18  A    between atoms: C_28  and  C_30
REMARK   19  A    between atoms: C_31  and  O_32
REMARK                            x       y       z     vdW  Elec       q    Type
REMARK                         _______ _______ _______ _____ _____    ______ ____
ROOT
ATOM      1  C   UNL     1       3.023   4.140  19.990  0.00  0.00    +0.000 A 
ATOM      2  C   UNL     1       2.131   4.784  20.763  0.00  0.00    +0.000 A 
ATOM      3  C   UNL     1       1.681   6.159  20.547  0.00  0.00    +0.000 A 
ATOM      4  O   UNL     1       0.868   6.685  21.297  0.00  0.00    +0.000 OA
ATOM      5  O   UNL     1       2.217   6.806  19.457  0.00  0.00    +0.000 OA
ATOM      6  C   UNL     1       3.205   6.217  18.630  0.00  0.00    +0.000 A 
ATOM      7  C   UNL     1       3.722   7.059  17.617  0.00  0.00    +0.000 A 
ATOM      8  C   UNL     1       4.683   6.524  16.747  0.00  0.00    +0.000 A 
ATOM      9  C   UNL     1       5.158   5.218  16.928  0.00  0.00    +0.000 A 
ATOM     10  C   UNL     1       4.636   4.421  17.979  0.00  0.00    +0.000 A 
ATOM     11  C   UNL     1       3.633   4.895  18.852  0.00  0.00    +0.000 A 
ENDROOT
BRANCH   8  12
ATOM     12  O   UNL     1       5.184   7.272  15.717  0.00  0.00    +0.000 OA
ATOM     13  H   UNL     1       4.595   7.256  14.944  0.00  0.00    +0.000 HD
ENDBRANCH   8  12
BRANCH   9  14
ATOM     14  C   UNL     1       6.218   4.620  16.056  0.00  0.00    +0.000 C 
ATOM     15  O   UNL     1       7.382   5.000  16.226  0.00  0.00    +0.000 OA
BRANCH  14  16
ATOM     16  C   UNL     1       5.885   3.660  14.930  0.00  0.00    +0.000 C 
BRANCH  16  17
ATOM     17  C   UNL     1       5.880   4.320  13.546  0.00  0.00    +0.000 C 
ATOM     18  C   UNL     1       7.301   4.543  13.020  0.00  0.00    +0.000 C 
ATOM     19  C   UNL     1       5.092   3.451  12.567  0.00  0.00    +0.000 C 
ENDBRANCH  16  17
ENDBRANCH  14  16
ENDBRANCH   9  14
BRANCH  10  20
ATOM     20  O   UNL     1       5.151   3.166  18.187  0.00  0.00    +0.000 OA
ATOM     21  H   UNL     1       6.025   3.230  18.632  0.00  0.00    +0.000 HD
ENDBRANCH  10  20
BRANCH   1  22
ATOM     22  C   UNL     1       3.400   2.693  20.288  0.00  0.00    +0.000 C 
BRANCH  22  24
ATOM     23  C   UNL     1       1.417   2.109  18.815  0.00  0.00    +0.000 C 
ATOM     24  C   UNL     1       2.731   1.611  19.412  0.00  0.00    +0.000 C 
ENDBRANCH  22  24
BRANCH  22  25
ATOM     25  O   UNL     1       3.098   2.421  21.657  0.00  0.00    +0.000 OA
ATOM     26  H   UNL     1       2.134   2.381  21.752  0.00  0.00    +0.000 HD
ENDBRANCH  22  25
ENDBRANCH   1  22
BRANCH   7  27
ATOM     27  C   UNL     1       3.289   8.511  17.535  0.00  0.00    +0.000 C 
BRANCH  27  28
ATOM     28  C   UNL     1       1.815   8.728  17.726  0.00  0.00    +0.000 C 
ATOM     29  C   UNL     1       1.209   9.868  18.134  0.00  0.00    +0.000 C 
ATOM     30  C   UNL     1       1.948  11.146  18.459  0.00  0.00    +0.000 C 
BRANCH  29  31
ATOM     31  C   UNL     1      -0.302   9.844  18.343  0.00  0.00    +0.000 C 
BRANCH  31  32
ATOM     32  C   UNL     1      -1.026  11.131  17.936  0.00  0.00    +0.000 C 
BRANCH  32  33
ATOM     33  C   UNL     1      -1.717  11.844  19.064  0.00  0.00    +0.000 C 
ATOM     34  C   UNL     1      -3.055  12.015  19.105  0.00  0.00    +0.000 C 
ATOM     35  C   UNL     1      -3.994  11.521  18.039  0.00  0.00    +0.000 C 
ATOM     36  C   UNL     1      -3.720  12.734  20.246  0.00  0.00    +0.000 C 
ENDBRANCH  32  33
ENDBRANCH  31  32
ENDBRANCH  29  31
ENDBRANCH  27  28
ENDBRANCH   7  27
TORSDOF 13
ENDMDL
MODEL 5
REMARK VINA RESULT:      -7.5      4.177     10.323
REMARK  Name = 
REMARK  19 active torsions:
REMARK  status: ('A' for Active; 'I' for Inactive)
REMARK    1  A    between atoms: C_1  and  C_2
REMARK    2  A    between atoms: C_2  and  C_3
REMARK    3  A    between atoms: C_3  and  O_4
REMARK    4  A    between atoms: C_3  and  C_5
REMARK    5  A    between atoms: C_11  and  C_12
REMARK    6  A    between atoms: C_12  and  C_13
REMARK    7  A    between atoms: C_14  and  C_15
REMARK    8  A    between atoms: C_14  and  C_16
REMARK    9  A    between atoms: C_16  and  C_17
REMARK   10  A    between atoms: C_17  and  C_18
REMARK   11  A    between atoms: C_19  and  C_20
REMARK   12  A    between atoms: C_19  and  C_21
REMARK   13  A    between atoms: C_22  and  O_23
REMARK   14  A    between atoms: C_24  and  C_25
REMARK   15  A    between atoms: C_25  and  C_27
REMARK   16  A    between atoms: C_27  and  C_28
REMARK   17  A    between atoms: C_28  and  C_29
REMARK   18  A    between atoms: C_28  and  C_30
REMARK   19  A    between atoms: C_31  and  O_32
REMARK                            x       y       z     vdW  Elec       q    Type
REMARK                         _______ _______ _______ _____ _____    ______ ____
ROOT
ATOM      1  C   UNL     1      -4.027  11.546  18.064  0.00  0.00    +0.000 A 
ATOM      2  C   UNL     1      -3.872  10.878  16.907  0.00  0.00    +0.000 A 
ATOM      3  C   UNL     1      -2.640  10.208  16.491  0.00  0.00    +0.000 A 
ATOM      4  O   UNL     1      -2.568   9.623  15.418  0.00  0.00    +0.000 OA
ATOM      5  O   UNL     1      -1.589  10.272  17.377  0.00  0.00    +0.000 OA
ATOM      6  C   UNL     1      -1.655  11.004  18.588  0.00  0.00    +0.000 A 
ATOM      7  C   UNL     1      -0.451  11.049  19.331  0.00  0.00    +0.000 A 
ATOM      8  C   UNL     1      -0.461  11.735  20.554  0.00  0.00    +0.000 A 
ATOM      9  C   UNL     1      -1.613  12.408  20.983  0.00  0.00    +0.000 A 
ATOM     10  C   UNL     1      -2.787  12.365  20.188  0.00  0.00    +0.000 A 
ATOM     11  C   UNL     1      -2.845  11.648  18.974  0.00  0.00    +0.000 A 
ENDROOT
BRANCH   8  12
ATOM     12  O   UNL     1       0.658  11.772  21.341  0.00  0.00    +0.000 OA
ATOM     13  H   UNL     1       0.448  11.574  22.269  0.00  0.00    +0.000 HD
ENDBRANCH   8  12
BRANCH   9  14
ATOM     14  C   UNL     1      -1.657  13.195  22.256  0.00  0.00    +0.000 C 
ATOM     15  O   UNL     1      -2.361  12.762  23.175  0.00  0.00    +0.000 OA
BRANCH  14  16
ATOM     16  C   UNL     1      -0.953  14.531  22.399  0.00  0.00    +0.000 C 
BRANCH  16  17
ATOM     17  C   UNL     1      -1.497  15.612  21.456  0.00  0.00    +0.000 C 
ATOM     18  C   UNL     1      -2.821  16.190  21.963  0.00  0.00    +0.000 C 
ATOM     19  C   UNL     1      -0.464  16.727  21.306  0.00  0.00    +0.000 C 
ENDBRANCH  16  17
ENDBRANCH  14  16
ENDBRANCH   9  14
BRANCH  10  20
ATOM     20  O   UNL     1      -3.891  13.078  20.586  0.00  0.00    +0.000 OA
ATOM     21  H   UNL     1      -4.477  12.512  21.137  0.00  0.00    +0.000 HD
ENDBRANCH  10  20
BRANCH   1  22
ATOM     22  C   UNL     1      -5.368  12.183  18.413  0.00  0.00    +0.000 C 
BRANCH  22  24
ATOM     23  C   UNL     1      -7.334  11.727  19.951  0.00  0.00    +0.000 C 
ATOM     24  C   UNL     1      -6.521  11.218  18.763  0.00  0.00    +0.000 C 
ENDBRANCH  22  24
BRANCH  22  25
ATOM     25  O   UNL     1      -5.777  13.002  17.317  0.00  0.00    +0.000 OA
ATOM     26  H   UNL     1      -5.140  13.727  17.226  0.00  0.00    +0.000 HD
ENDBRANCH  22  25
ENDBRANCH   1  22
BRANCH   7  27
ATOM     27  C   UNL     1       0.816  10.429  18.772  0.00  0.00    +0.000 C 
BRANCH  27  28
ATOM     28  C   UNL     1       1.248   9.171  19.470  0.00  0.00    +0.000 C 
ATOM     29  C   UNL     1       2.079   8.218  18.985  0.00  0.00    +0.000 C 
ATOM     30  C   UNL     1       2.732   8.283  17.624  0.00  0.00    +0.000 C 
BRANCH  29  31
ATOM     31  C   UNL     1       2.318   6.973  19.834  0.00  0.00    +0.000 C 
BRANCH  31  32
ATOM     32  C   UNL     1       2.626   5.703  19.036  0.00  0.00    +0.000 C 
BRANCH  32  33
ATOM     33  C   UNL     1       1.674   4.565  19.277  0.00  0.00    +0.000 C 
ATOM     34  C   UNL     1       1.638   3.467  18.493  0.00  0.00    +0.000 C 
ATOM     35  C   UNL     1       2.534   3.262  17.303  0.00  0.00    +0.000 C 
ATOM     36  C   UNL     1       0.673   2.345  18.757  0.00  0.00    +0.000 C 
ENDBRANCH  32  33
ENDBRANCH  31  32
ENDBRANCH  29  31
ENDBRANCH  27  28
ENDBRANCH   7  27
TORSDOF 13
ENDMDL
MODEL 6
REMARK VINA RESULT:      -7.4      3.215      7.379
REMARK  Name = 
REMARK  19 active torsions:
REMARK  status: ('A' for Active; 'I' for Inactive)
REMARK    1  A    between atoms: C_1  and  C_2
REMARK    2  A    between atoms: C_2  and  C_3
REMARK    3  A    between atoms: C_3  and  O_4
REMARK    4  A    between atoms: C_3  and  C_5
REMARK    5  A    between atoms: C_11  and  C_12
REMARK    6  A    between atoms: C_12  and  C_13
REMARK    7  A    between atoms: C_14  and  C_15
REMARK    8  A    between atoms: C_14  and  C_16
REMARK    9  A    between atoms: C_16  and  C_17
REMARK   10  A    between atoms: C_17  and  C_18
REMARK   11  A    between atoms: C_19  and  C_20
REMARK   12  A    between atoms: C_19  and  C_21
REMARK   13  A    between atoms: C_22  and  O_23
REMARK   14  A    between atoms: C_24  and  C_25
REMARK   15  A    between atoms: C_25  and  C_27
REMARK   16  A    between atoms: C_27  and  C_28
REMARK   17  A    between atoms: C_28  and  C_29
REMARK   18  A    between atoms: C_28  and  C_30
REMARK   19  A    between atoms: C_31  and  O_32
REMARK                            x       y       z     vdW  Elec       q    Type
REMARK                         _______ _______ _______ _____ _____    ______ ____
ROOT
ATOM      1  C   UNL     1       1.083   9.226  19.828  0.00  0.00    +0.000 A 
ATOM      2  C   UNL     1       1.346  10.328  19.103  0.00  0.00    +0.000 A 
ATOM      3  C   UNL     1       2.276  10.379  17.974  0.00  0.00    +0.000 A 
ATOM      4  O   UNL     1       2.472  11.422  17.363  0.00  0.00    +0.000 OA
ATOM      5  O   UNL     1       2.896   9.195  17.648  0.00  0.00    +0.000 OA
ATOM      6  C   UNL     1       2.715   8.007  18.398  0.00  0.00    +0.000 A 
ATOM      7  C   UNL     1       3.508   6.909  17.986  0.00  0.00    +0.000 A 
ATOM      8  C   UNL     1       3.353   5.696  18.672  0.00  0.00    +0.000 A 
ATOM      9  C   UNL     1       2.489   5.605  19.772  0.00  0.00    +0.000 A 
ATOM     10  C   UNL     1       1.740   6.742  20.171  0.00  0.00    +0.000 A 
ATOM     11  C   UNL     1       1.822   7.973  19.484  0.00  0.00    +0.000 A 
ENDROOT
BRANCH   8  12
ATOM     12  O   UNL     1       4.055   4.585  18.290  0.00  0.00    +0.000 OA
ATOM     13  H   UNL     1       4.003   3.882  18.959  0.00  0.00    +0.000 HD
ENDBRANCH   8  12
BRANCH   9  14
ATOM     14  C   UNL     1       2.328   4.346  20.566  0.00  0.00    +0.000 C 
ATOM     15  O   UNL     1       3.296   3.957  21.229  0.00  0.00    +0.000 OA
BRANCH  14  16
ATOM     16  C   UNL     1       1.067   3.506  20.492  0.00  0.00    +0.000 C 
BRANCH  16  17
ATOM     17  C   UNL     1       0.979   2.645  19.225  0.00  0.00    +0.000 C 
ATOM     18  C   UNL     1       0.808   3.504  17.969  0.00  0.00    +0.000 C 
ATOM     19  C   UNL     1       2.236   1.786  19.102  0.00  0.00    +0.000 C 
ENDBRANCH  16  17
ENDBRANCH  14  16
ENDBRANCH   9  14
BRANCH  10  20
ATOM     20  O   UNL     1       0.943   6.661  21.286  0.00  0.00    +0.000 OA
ATOM     21  H   UNL     1       1.255   5.934  21.870  0.00  0.00    +0.000 HD
ENDBRANCH  10  20
BRANCH   1  22
ATOM     22  C   UNL     1       0.070   9.276  20.967  0.00  0.00    +0.000 C 
BRANCH  22  24
ATOM     23  C   UNL     1      -0.687  11.291  22.311  0.00  0.00    +0.000 C 
ATOM     24  C   UNL     1      -0.859  10.508  21.011  0.00  0.00    +0.000 C 
ENDBRANCH  22  24
BRANCH  22  25
ATOM     25  O   UNL     1       0.779   9.196  22.204  0.00  0.00    +0.000 OA
ATOM     26  H   UNL     1       1.273   8.362  22.217  0.00  0.00    +0.000 HD
ENDBRANCH  22  25
ENDBRANCH   1  22
BRANCH   7  27
ATOM     27  C   UNL     1       4.535   7.079  16.883  0.00  0.00    +0.000 C 
BRANCH  27  28
ATOM     28  C   UNL     1       5.873   7.571  17.356  0.00  0.00    +0.000 C 
ATOM     29  C   UNL     1       7.011   6.846  17.471  0.00  0.00    +0.000 C 
ATOM     30  C   UNL     1       7.115   5.381  17.117  0.00  0.00    +0.000 C 
BRANCH  29  31
ATOM     31  C   UNL     1       8.243   7.529  18.056  0.00  0.00    +0.000 C 
BRANCH  31  32
ATOM     32  C   UNL     1       8.219   9.059  17.994  0.00  0.00    +0.000 C 
BRANCH  32  33
ATOM     33  C   UNL     1       8.847   9.744  19.175  0.00  0.00    +0.000 C 
ATOM     34  C   UNL     1       9.696  10.785  19.046  0.00  0.00    +0.000 C 
ATOM     35  C   UNL     1      10.108  11.368  17.722  0.00  0.00    +0.000 C 
ATOM     36  C   UNL     1      10.311  11.450  20.246  0.00  0.00    +0.000 C 
ENDBRANCH  32  33
ENDBRANCH  31  32
ENDBRANCH  29  31
ENDBRANCH  27  28
ENDBRANCH   7  27
TORSDOF 13
ENDMDL
MODEL 7
REMARK VINA RESULT:      -7.4      3.914      9.854
REMARK  Name = 
REMARK  19 active torsions:
REMARK  status: ('A' for Active; 'I' for Inactive)
REMARK    1  A    between atoms: C_1  and  C_2
REMARK    2  A    between atoms: C_2  and  C_3
REMARK    3  A    between atoms: C_3  and  O_4
REMARK    4  A    between atoms: C_3  and  C_5
REMARK    5  A    between atoms: C_11  and  C_12
REMARK    6  A    between atoms: C_12  and  C_13
REMARK    7  A    between atoms: C_14  and  C_15
REMARK    8  A    between atoms: C_14  and  C_16
REMARK    9  A    between atoms: C_16  and  C_17
REMARK   10  A    between atoms: C_17  and  C_18
REMARK   11  A    between atoms: C_19  and  C_20
REMARK   12  A    between atoms: C_19  and  C_21
REMARK   13  A    between atoms: C_22  and  O_23
REMARK   14  A    between atoms: C_24  and  C_25
REMARK   15  A    between atoms: C_25  and  C_27
REMARK   16  A    between atoms: C_27  and  C_28
REMARK   17  A    between atoms: C_28  and  C_29
REMARK   18  A    between atoms: C_28  and  C_30
REMARK   19  A    between atoms: C_31  and  O_32
REMARK                            x       y       z     vdW  Elec       q    Type
REMARK                         _______ _______ _______ _____ _____    ______ ____
ROOT
ATOM      1  C   UNL     1      -3.696  11.343  18.024  0.00  0.00    +0.000 A 
ATOM      2  C   UNL     1      -3.704  10.779  16.802  0.00  0.00    +0.000 A 
ATOM      3  C   UNL     1      -2.584  10.038  16.221  0.00  0.00    +0.000 A 
ATOM      4  O   UNL     1      -2.659   9.556  15.098  0.00  0.00    +0.000 OA
ATOM      5  O   UNL     1      -1.465   9.914  17.012  0.00  0.00    +0.000 OA
ATOM      6  C   UNL     1      -1.359  10.527  18.285  0.00  0.00    +0.000 A 
ATOM      7  C   UNL     1      -0.102  10.383  18.919  0.00  0.00    +0.000 A 
ATOM      8  C   UNL     1       0.057  10.945  20.194  0.00  0.00    +0.000 A 
ATOM      9  C   UNL     1      -0.981  11.680  20.782  0.00  0.00    +0.000 A 
ATOM     10  C   UNL     1      -2.213  11.827  20.094  0.00  0.00    +0.000 A 
ATOM     11  C   UNL     1      -2.441  11.242  18.831  0.00  0.00    +0.000 A 
ENDROOT
BRANCH   8  12
ATOM     12  O   UNL     1       1.232  10.797  20.878  0.00  0.00    +0.000 OA
ATOM     13  H   UNL     1       1.203  11.247  21.739  0.00  0.00    +0.000 HD
ENDBRANCH   8  12
BRANCH   9  14
ATOM     14  C   UNL     1      -0.841  12.339  22.119  0.00  0.00    +0.000 C 
ATOM     15  O   UNL     1      -0.941  11.627  23.124  0.00  0.00    +0.000 OA
BRANCH  14  16
ATOM     16  C   UNL     1      -0.686  13.841  22.261  0.00  0.00    +0.000 C 
BRANCH  16  17
ATOM     17  C   UNL     1       0.248  14.461  21.215  0.00  0.00    +0.000 C 
ATOM     18  C   UNL     1      -0.527  15.279  20.178  0.00  0.00    +0.000 C 
ATOM     19  C   UNL     1       1.281  15.345  21.911  0.00  0.00    +0.000 C 
ENDBRANCH  16  17
ENDBRANCH  14  16
ENDBRANCH   9  14
BRANCH  10  20
ATOM     20  O   UNL     1      -3.202  12.601  20.651  0.00  0.00    +0.000 OA
ATOM     21  H   UNL     1      -3.764  12.988  19.943  0.00  0.00    +0.000 HD
ENDBRANCH  10  20
BRANCH   1  22
ATOM     22  C   UNL     1      -4.931  12.068  18.546  0.00  0.00    +0.000 C 
BRANCH  22  24
ATOM     23  C   UNL     1      -6.987  11.956  20.030  0.00  0.00    +0.000 C 
ATOM     24  C   UNL     1      -6.081  11.183  19.074  0.00  0.00    +0.000 C 
ENDBRANCH  22  24
BRANCH  22  25
ATOM     25  O   UNL     1      -5.440  12.900  17.503  0.00  0.00    +0.000 OA
ATOM     26  H   UNL     1      -6.408  12.845  17.517  0.00  0.00    +0.000 HD
ENDBRANCH  22  25
ENDBRANCH   1  22
BRANCH   7  27
ATOM     27  C   UNL     1       1.045   9.702  18.196  0.00  0.00    +0.000 C 
BRANCH  27  28
ATOM     28  C   UNL     1       1.338   8.310  18.676  0.00  0.00    +0.000 C 
ATOM     29  C   UNL     1       2.402   7.542  18.342  0.00  0.00    +0.000 C 
ATOM     30  C   UNL     1       3.505   7.991  17.411  0.00  0.00    +0.000 C 
BRANCH  29  31
ATOM     31  C   UNL     1       2.459   6.117  18.882  0.00  0.00    +0.000 C 
BRANCH  31  32
ATOM     32  C   UNL     1       2.025   5.036  17.888  0.00  0.00    +0.000 C 
BRANCH  32  33
ATOM     33  C   UNL     1       2.923   3.831  17.841  0.00  0.00    +0.000 C 
ATOM     34  C   UNL     1       2.582   2.648  18.394  0.00  0.00    +0.000 C 
ATOM     35  C   UNL     1       1.284   2.406  19.114  0.00  0.00    +0.000 C 
ATOM     36  C   UNL     1       3.501   1.460  18.335  0.00  0.00    +0.000 C 
ENDBRANCH  32  33
ENDBRANCH  31  32
ENDBRANCH  29  31
ENDBRANCH  27  28
ENDBRANCH   7  27
TORSDOF 13
ENDMDL
MODEL 8
REMARK VINA RESULT:      -7.4      4.416     10.528
REMARK  Name = 
REMARK  19 active torsions:
REMARK  status: ('A' for Active; 'I' for Inactive)
REMARK    1  A    between atoms: C_1  and  C_2
REMARK    2  A    between atoms: C_2  and  C_3
REMARK    3  A    between atoms: C_3  and  O_4
REMARK    4  A    between atoms: C_3  and  C_5
REMARK    5  A    between atoms: C_11  and  C_12
REMARK    6  A    between atoms: C_12  and  C_13
REMARK    7  A    between atoms: C_14  and  C_15
REMARK    8  A    between atoms: C_14  and  C_16
REMARK    9  A    between atoms: C_16  and  C_17
REMARK   10  A    between atoms: C_17  and  C_18
REMARK   11  A    between atoms: C_19  and  C_20
REMARK   12  A    between atoms: C_19  and  C_21
REMARK   13  A    between atoms: C_22  and  O_23
REMARK   14  A    between atoms: C_24  and  C_25
REMARK   15  A    between atoms: C_25  and  C_27
REMARK   16  A    between atoms: C_27  and  C_28
REMARK   17  A    between atoms: C_28  and  C_29
REMARK   18  A    between atoms: C_28  and  C_30
REMARK   19  A    between atoms: C_31  and  O_32
REMARK                            x       y       z     vdW  Elec       q    Type
REMARK                         _______ _______ _______ _____ _____    ______ ____
ROOT
ATOM      1  C   UNL     1      -3.820  11.805  18.533  0.00  0.00    +0.000 A 
ATOM      2  C   UNL     1      -3.841  10.918  17.521  0.00  0.00    +0.000 A 
ATOM      3  C   UNL     1      -2.716  10.064  17.140  0.00  0.00    +0.000 A 
ATOM      4  O   UNL     1      -2.804   9.283  16.201  0.00  0.00    +0.000 OA
ATOM      5  O   UNL     1      -1.576  10.191  17.900  0.00  0.00    +0.000 OA
ATOM      6  C   UNL     1      -1.457  11.141  18.944  0.00  0.00    +0.000 A 
ATOM      7  C   UNL     1      -0.183  11.208  19.555  0.00  0.00    +0.000 A 
ATOM      8  C   UNL     1      -0.010  12.110  20.614  0.00  0.00    +0.000 A 
ATOM      9  C   UNL     1      -1.053  12.962  21.001  0.00  0.00    +0.000 A 
ATOM     10  C   UNL     1      -2.304  12.885  20.336  0.00  0.00    +0.000 A 
ATOM     11  C   UNL     1      -2.545  11.960  19.297  0.00  0.00    +0.000 A 
ENDROOT
BRANCH   8  12
ATOM     12  O   UNL     1       1.185  12.186  21.278  0.00  0.00    +0.000 OA
ATOM     13  H   UNL     1       1.650  11.332  21.274  0.00  0.00    +0.000 HD
ENDBRANCH   8  12
BRANCH   9  14
ATOM     14  C   UNL     1      -0.901  13.976  22.092  0.00  0.00    +0.000 C 
ATOM     15  O   UNL     1      -0.316  15.030  21.820  0.00  0.00    +0.000 OA
BRANCH  14  16
ATOM     16  C   UNL     1      -1.349  13.698  23.515  0.00  0.00    +0.000 C 
BRANCH  16  17
ATOM     17  C   UNL     1      -2.379  14.706  24.039  0.00  0.00    +0.000 C 
ATOM     18  C   UNL     1      -3.759  14.066  24.213  0.00  0.00    +0.000 C 
ATOM     19  C   UNL     1      -1.899  15.282  25.370  0.00  0.00    +0.000 C 
ENDBRANCH  16  17
ENDBRANCH  14  16
ENDBRANCH   9  14
BRANCH  10  20
ATOM     20  O   UNL     1      -3.300  13.765  20.681  0.00  0.00    +0.000 OA
ATOM     21  H   UNL     1      -3.005  14.688  20.516  0.00  0.00    +0.000 HD
ENDBRANCH  10  20
BRANCH   1  22
ATOM     22  C   UNL     1      -5.063  12.624  18.865  0.00  0.00    +0.000 C 
BRANCH  22  24
ATOM     23  C   UNL     1      -7.524  12.144  19.255  0.00  0.00    +0.000 C 
ATOM     24  C   UNL     1      -6.105  11.956  19.787  0.00  0.00    +0.000 C 
ENDBRANCH  22  24
BRANCH  22  25
ATOM     25  O   UNL     1      -5.704  12.987  17.641  0.00  0.00    +0.000 OA
ATOM     26  H   UNL     1      -5.974  12.173  17.188  0.00  0.00    +0.000 HD
ENDBRANCH  22  25
ENDBRANCH   1  22
BRANCH   7  27
ATOM     27  C   UNL     1       0.966  10.372  19.021  0.00  0.00    +0.000 C 
BRANCH  27  28
ATOM     28  C   UNL     1       1.250   9.132  19.819  0.00  0.00    +0.000 C 
ATOM     29  C   UNL     1       1.938   8.041  19.406  0.00  0.00    +0.000 C 
ATOM     30  C   UNL     1       2.558   7.906  18.034  0.00  0.00    +0.000 C 
BRANCH  29  31
ATOM     31  C   UNL     1       2.037   6.851  20.355  0.00  0.00    +0.000 C 
BRANCH  31  32
ATOM     32  C   UNL     1       2.681   5.600  19.750  0.00  0.00    +0.000 C 
BRANCH  32  33
ATOM     33  C   UNL     1       1.835   4.360  19.830  0.00  0.00    +0.000 C 
ATOM     34  C   UNL     1       1.600   3.569  18.762  0.00  0.00    +0.000 C 
ATOM     35  C   UNL     1       2.148   3.837  17.387  0.00  0.00    +0.000 C 
ATOM     36  C   UNL     1       0.748   2.335  18.871  0.00  0.00    +0.000 C 
ENDBRANCH  32  33
ENDBRANCH  31  32
ENDBRANCH  29  31
ENDBRANCH  27  28
ENDBRANCH   7  27
TORSDOF 13
ENDMDL
MODEL 9
REMARK VINA RESULT:      -7.4      5.073     11.127
REMARK  Name = 
REMARK  19 active torsions:
REMARK  status: ('A' for Active; 'I' for Inactive)
REMARK    1  A    between atoms: C_1  and  C_2
REMARK    2  A    between atoms: C_2  and  C_3
REMARK    3  A    between atoms: C_3  and  O_4
REMARK    4  A    between atoms: C_3  and  C_5
REMARK    5  A    between atoms: C_11  and  C_12
REMARK    6  A    between atoms: C_12  and  C_13
REMARK    7  A    between atoms: C_14  and  C_15
REMARK    8  A    between atoms: C_14  and  C_16
REMARK    9  A    between atoms: C_16  and  C_17
REMARK   10  A    between atoms: C_17  and  C_18
REMARK   11  A    between atoms: C_19  and  C_20
REMARK   12  A    between atoms: C_19  and  C_21
REMARK   13  A    between atoms: C_22  and  O_23
REMARK   14  A    between atoms: C_24  and  C_25
REMARK   15  A    between atoms: C_25  and  C_27
REMARK   16  A    between atoms: C_27  and  C_28
REMARK   17  A    between atoms: C_28  and  C_29
REMARK   18  A    between atoms: C_28  and  C_30
REMARK   19  A    between atoms: C_31  and  O_32
REMARK                            x       y       z     vdW  Elec       q    Type
REMARK                         _______ _______ _______ _____ _____    ______ ____
ROOT
ATOM      1  C   UNL     1      -4.378  11.945  18.313  0.00  0.00    +0.000 A 
ATOM      2  C   UNL     1      -3.922  11.421  17.160  0.00  0.00    +0.000 A 
ATOM      3  C   UNL     1      -2.571  10.896  16.962  0.00  0.00    +0.000 A 
ATOM      4  O   UNL     1      -2.222  10.439  15.881  0.00  0.00    +0.000 OA
ATOM      5  O   UNL     1      -1.738  10.942  18.057  0.00  0.00    +0.000 OA
ATOM      6  C   UNL     1      -2.125  11.529  19.286  0.00  0.00    +0.000 A 
ATOM      7  C   UNL     1      -1.112  11.584  20.273  0.00  0.00    +0.000 A 
ATOM      8  C   UNL     1      -1.442  12.129  21.521  0.00  0.00    +0.000 A 
ATOM      9  C   UNL     1      -2.718  12.662  21.751  0.00  0.00    +0.000 A 
ATOM     10  C   UNL     1      -3.691  12.618  20.720  0.00  0.00    +0.000 A 
ATOM     11  C   UNL     1      -3.426  12.036  19.462  0.00  0.00    +0.000 A 
ENDROOT
BRANCH   8  12
ATOM     12  O   UNL     1      -0.520  12.164  22.532  0.00  0.00    +0.000 OA
ATOM     13  H   UNL     1      -0.947  12.182  23.405  0.00  0.00    +0.000 HD
ENDBRANCH   8  12
BRANCH   9  14
ATOM     14  C   UNL     1      -3.101  13.299  23.050  0.00  0.00    +0.000 C 
ATOM     15  O   UNL     1      -3.565  12.569  23.933  0.00  0.00    +0.000 OA
BRANCH  14  16
ATOM     16  C   UNL     1      -3.027  14.799  23.262  0.00  0.00    +0.000 C 
BRANCH  16  17
ATOM     17  C   UNL     1      -2.775  15.199  24.721  0.00  0.00    +0.000 C 
ATOM     18  C   UNL     1      -1.278  15.257  25.041  0.00  0.00    +0.000 C 
ATOM     19  C   UNL     1      -3.420  16.555  24.999  0.00  0.00    +0.000 C 
ENDBRANCH  16  17
ENDBRANCH  14  16
ENDBRANCH   9  14
BRANCH  10  20
ATOM     20  O   UNL     1      -4.918  13.197  20.933  0.00  0.00    +0.000 OA
ATOM     21  H   UNL     1      -4.813  14.025  21.453  0.00  0.00    +0.000 HD
ENDBRANCH  10  20
BRANCH   1  22
ATOM     22  C   UNL     1      -5.817  12.437  18.420  0.00  0.00    +0.000 C 
BRANCH  22  24
ATOM     23  C   UNL     1      -7.116  10.681  19.713  0.00  0.00    +0.000 C 
ATOM     24  C   UNL     1      -6.922  11.359  18.359  0.00  0.00    +0.000 C 
ENDBRANCH  22  24
BRANCH  22  25
ATOM     25  O   UNL     1      -6.049  13.385  17.378  0.00  0.00    +0.000 OA
ATOM     26  H   UNL     1      -6.879  13.848  17.568  0.00  0.00    +0.000 HD
ENDBRANCH  22  25
ENDBRANCH   1  22
BRANCH   7  27
ATOM     27  C   UNL     1       0.298  11.126  19.947  0.00  0.00    +0.000 C 
BRANCH  27  28
ATOM     28  C   UNL     1       0.703   9.846  20.620  0.00  0.00    +0.000 C 
ATOM     29  C   UNL     1       1.316   8.785  20.045  0.00  0.00    +0.000 C 
ATOM     30  C   UNL     1       1.714   8.730  18.588  0.00  0.00    +0.000 C 
BRANCH  29  31
ATOM     31  C   UNL     1       1.562   7.546  20.900  0.00  0.00    +0.000 C 
BRANCH  31  32
ATOM     32  C   UNL     1       1.948   6.290  20.112  0.00  0.00    +0.000 C 
BRANCH  32  33
ATOM     33  C   UNL     1       2.298   5.101  20.963  0.00  0.00    +0.000 C 
ATOM     34  C   UNL     1       1.755   3.882  20.767  0.00  0.00    +0.000 C 
ATOM     35  C   UNL     1       0.747   3.578  19.693  0.00  0.00    +0.000 C 
ATOM     36  C   UNL     1       2.122   2.710  21.635  0.00  0.00    +0.000 C 
ENDBRANCH  32  33
ENDBRANCH  31  32
ENDBRANCH  29  31
ENDBRANCH  27  28
ENDBRANCH   7  27
TORSDOF 13
ENDMDL
