MODEL 1
REMARK VINA RESULT:      -5.7      0.000      0.000
REMARK  Name = 
REMARK  7 active torsions:
REMARK  status: ('A' for Active; 'I' for Inactive)
REMARK    1  A    between atoms: C_1  and  C_2
REMARK    2  A    between atoms: C_2  and  N_3
REMARK    3  A    between atoms: N_3  and  C_4
REMARK    4  A    between atoms: N_3  and  C_6
REMARK    5  A    between atoms: C_4  and  C_5
REMARK    6  A    between atoms: C_8  and  C_9
REMARK    7  A    between atoms: C_14  and  C_15
REMARK                            x       y       z     vdW  Elec       q    Type
REMARK                         _______ _______ _______ _____ _____    ______ ____
ROOT
ATOM      1  C   UNL     1       4.281   4.224  19.103  0.00  0.00    +0.000 A 
ATOM      2  N   UNL     1       5.534   4.634  19.453  0.00  0.00    +0.000 NA
ATOM      3  C   UNL     1       6.126   5.571  18.660  0.00  0.00    +0.000 A 
ATOM      4  C   UNL     1       5.500   6.113  17.554  0.00  0.00    +0.000 A 
ATOM      5  N   UNL     1       4.247   5.753  17.191  0.00  0.00    +0.000 NA
ATOM      6  C   UNL     1       3.652   4.810  17.982  0.00  0.00    +0.000 A 
ENDROOT
BRANCH   3   7
ATOM      7  C   UNL     1       7.506   6.014  19.004  0.00  0.00    +0.000 C 
ATOM      8  N   UNL     1       8.127   5.346  20.026  0.00  0.00    +0.000 N 
ATOM      9  O   UNL     1       8.063   6.923  18.404  0.00  0.00    +0.000 OA
ATOM     10  H   UNL     1       7.662   4.588  20.509  0.00  0.00    +0.000 HD
ATOM     11  H   UNL     1       9.067   5.612  20.285  0.00  0.00    +0.000 HD
ENDBRANCH   3   7
BRANCH   6  12
ATOM     12  C   UNL     1       2.284   4.536  17.632  0.00  0.00    +0.000 C 
ATOM     13  N   UNL     1       1.178   4.313  17.353  0.00  0.00    +0.000 NA
ENDBRANCH   6  12
BRANCH   1  14
ATOM     14  N   UNL     1       3.693   3.242  19.893  0.00  0.00    +0.000 N 
BRANCH  14  16
ATOM     15  C   UNL     1       1.577   3.031  21.226  0.00  0.00    +0.000 C 
ATOM     16  C   UNL     1       2.945   3.678  21.077  0.00  0.00    +0.000 C 
ENDBRANCH  14  16
BRANCH  14  17
ATOM     17  C   UNL     1       4.202   1.863  19.861  0.00  0.00    +0.000 C 
ATOM     18  C   UNL     1       3.842   1.118  18.582  0.00  0.00    +0.000 C 
ENDBRANCH  14  17
ENDBRANCH   1  14
TORSDOF 5
ENDMDL
MODEL 2
REMARK VINA RESULT:      -5.7      2.444      3.059
REMARK  Name = 
REMARK  7 active torsions:
REMARK  status: ('A' for Active; 'I' for Inactive)
REMARK    1  A    between atoms: C_1  and  C_2
REMARK    2  A    between atoms: C_2  and  N_3
REMARK    3  A    between atoms: N_3  and  C_4
REMARK    4  A    between atoms: N_3  and  C_6
REMARK    5  A    between atoms: C_4  and  C_5
REMARK    6  A    between atoms: C_8  and  C_9
REMARK    7  A    between atoms: C_14  and  C_15
REMARK                            x       y       z     vdW  Elec       q    Type
REMARK                         _______ _______ _______ _____ _____    ______ ____
ROOT
ATOM      1  C   UNL     1       4.140   4.358  17.621  0.00  0.00    +0.000 A 
ATOM      2  N   UNL     1       5.054   4.014  16.669  0.00  0.00    +0.000 NA
ATOM      3  C   UNL     1       5.603   5.025  15.939  0.00  0.00    +0.000 A 
ATOM      4  C   UNL     1       5.279   6.353  16.146  0.00  0.00    +0.000 A 
ATOM      5  N   UNL     1       4.400   6.736  17.099  0.00  0.00    +0.000 NA
ATOM      6  C   UNL     1       3.844   5.724  17.831  0.00  0.00    +0.000 A 
ENDROOT
BRANCH   3   7
ATOM      7  C   UNL     1       6.582   4.672  14.872  0.00  0.00    +0.000 C 
ATOM      8  N   UNL     1       6.283   3.578  14.106  0.00  0.00    +0.000 N 
ATOM      9  O   UNL     1       7.598   5.327  14.684  0.00  0.00    +0.000 OA
ATOM     10  H   UNL     1       5.434   3.049  14.262  0.00  0.00    +0.000 HD
ATOM     11  H   UNL     1       6.919   3.310  13.366  0.00  0.00    +0.000 HD
ENDBRANCH   3   7
BRANCH   6  12
ATOM     12  C   UNL     1       3.002   6.177  18.906  0.00  0.00    +0.000 C 
ATOM     13  N   UNL     1       2.323   6.545  19.774  0.00  0.00    +0.000 NA
ENDBRANCH   6  12
BRANCH   1  14
ATOM     14  N   UNL     1       3.554   3.322  18.341  0.00  0.00    +0.000 N 
BRANCH  14  16
ATOM     15  C   UNL     1       3.678   2.556  20.728  0.00  0.00    +0.000 C 
ATOM     16  C   UNL     1       4.364   2.669  19.375  0.00  0.00    +0.000 C 
ENDBRANCH  14  16
BRANCH  14  17
ATOM     17  C   UNL     1       2.416   2.581  17.778  0.00  0.00    +0.000 C 
ATOM     18  C   UNL     1       1.084   2.946  18.421  0.00  0.00    +0.000 C 
ENDBRANCH  14  17
ENDBRANCH   1  14
TORSDOF 5
ENDMDL
MODEL 3
REMARK VINA RESULT:      -5.7      3.215      4.628
REMARK  Name = 
REMARK  7 active torsions:
REMARK  status: ('A' for Active; 'I' for Inactive)
REMARK    1  A    between atoms: C_1  and  C_2
REMARK    2  A    between atoms: C_2  and  N_3
REMARK    3  A    between atoms: N_3  and  C_4
REMARK    4  A    between atoms: N_3  and  C_6
REMARK    5  A    between atoms: C_4  and  C_5
REMARK    6  A    between atoms: C_8  and  C_9
REMARK    7  A    between atoms: C_14  and  C_15
REMARK                            x       y       z     vdW  Elec       q    Type
REMARK                         _______ _______ _______ _____ _____    ______ ____
ROOT
ATOM      1  C   UNL     1       5.178   4.332  16.859  0.00  0.00    +0.000 A 
ATOM      2  N   UNL     1       5.006   3.983  15.552  0.00  0.00    +0.000 NA
ATOM      3  C   UNL     1       6.039   4.238  14.699  0.00  0.00    +0.000 A 
ATOM      4  C   UNL     1       7.227   4.806  15.119  0.00  0.00    +0.000 A 
ATOM      5  N   UNL     1       7.446   5.139  16.411  0.00  0.00    +0.000 NA
ATOM      6  C   UNL     1       6.410   4.889  17.268  0.00  0.00    +0.000 A 
ENDROOT
BRANCH   3   7
ATOM      7  C   UNL     1       5.865   3.893  13.260  0.00  0.00    +0.000 C 
ATOM      8  N   UNL     1       6.991   3.931  12.481  0.00  0.00    +0.000 N 
ATOM      9  O   UNL     1       4.776   3.587  12.795  0.00  0.00    +0.000 OA
ATOM     10  H   UNL     1       7.890   4.175  12.878  0.00  0.00    +0.000 HD
ATOM     11  H   UNL     1       6.916   3.697  11.501  0.00  0.00    +0.000 HD
ENDBRANCH   3   7
BRANCH   6  12
ATOM     12  C   UNL     1       6.720   5.151  18.648  0.00  0.00    +0.000 C 
ATOM     13  N   UNL     1       6.972   5.366  19.762  0.00  0.00    +0.000 NA
ENDBRANCH   6  12
BRANCH   1  14
ATOM     14  N   UNL     1       4.109   4.105  17.720  0.00  0.00    +0.000 N 
BRANCH  14  16
ATOM     15  C   UNL     1       4.243   2.469  19.618  0.00  0.00    +0.000 C 
ATOM     16  C   UNL     1       3.875   2.727  18.166  0.00  0.00    +0.000 C 
ENDBRANCH  14  16
BRANCH  14  17
ATOM     17  C   UNL     1       2.987   5.053  17.773  0.00  0.00    +0.000 C 
ATOM     18  C   UNL     1       1.624   4.374  17.730  0.00  0.00    +0.000 C 
ENDBRANCH  14  17
ENDBRANCH   1  14
TORSDOF 5
ENDMDL
MODEL 4
REMARK VINA RESULT:      -5.7      1.679      2.274
REMARK  Name = 
REMARK  7 active torsions:
REMARK  status: ('A' for Active; 'I' for Inactive)
REMARK    1  A    between atoms: C_1  and  C_2
REMARK    2  A    between atoms: C_2  and  N_3
REMARK    3  A    between atoms: N_3  and  C_4
REMARK    4  A    between atoms: N_3  and  C_6
REMARK    5  A    between atoms: C_4  and  C_5
REMARK    6  A    between atoms: C_8  and  C_9
REMARK    7  A    between atoms: C_14  and  C_15
REMARK                            x       y       z     vdW  Elec       q    Type
REMARK                         _______ _______ _______ _____ _____    ______ ____
ROOT
ATOM      1  C   UNL     1       4.063   5.149  19.085  0.00  0.00    +0.000 A 
ATOM      2  N   UNL     1       5.234   5.723  19.484  0.00  0.00    +0.000 NA
ATOM      3  C   UNL     1       6.369   5.341  18.832  0.00  0.00    +0.000 A 
ATOM      4  C   UNL     1       6.359   4.427  17.796  0.00  0.00    +0.000 A 
ATOM      5  N   UNL     1       5.214   3.858  17.352  0.00  0.00    +0.000 NA
ATOM      6  C   UNL     1       4.075   4.236  18.006  0.00  0.00    +0.000 A 
ENDROOT
BRANCH   3   7
ATOM      7  C   UNL     1       7.664   5.931  19.270  0.00  0.00    +0.000 C 
ATOM      8  N   UNL     1       8.291   5.319  20.323  0.00  0.00    +0.000 N 
ATOM      9  O   UNL     1       8.150   6.908  18.717  0.00  0.00    +0.000 OA
ATOM     10  H   UNL     1       7.886   4.505  20.767  0.00  0.00    +0.000 HD
ATOM     11  H   UNL     1       9.177   5.685  20.645  0.00  0.00    +0.000 HD
ENDBRANCH   3   7
BRANCH   6  12
ATOM     12  C   UNL     1       2.870   3.698  17.435  0.00  0.00    +0.000 C 
ATOM     13  N   UNL     1       1.897   3.259  16.975  0.00  0.00    +0.000 NA
ENDBRANCH   6  12
BRANCH   1  14
ATOM     14  N   UNL     1       2.912   5.514  19.774  0.00  0.00    +0.000 N 
BRANCH  14  16
ATOM     15  C   UNL     1       1.627   7.407  20.806  0.00  0.00    +0.000 C 
ATOM     16  C   UNL     1       2.438   6.895  19.627  0.00  0.00    +0.000 C 
ENDBRANCH  14  16
BRANCH  14  17
ATOM     17  C   UNL     1       2.489   4.757  20.961  0.00  0.00    +0.000 C 
ATOM     18  C   UNL     1       1.311   3.828  20.694  0.00  0.00    +0.000 C 
ENDBRANCH  14  17
ENDBRANCH   1  14
TORSDOF 5
ENDMDL
MODEL 5
REMARK VINA RESULT:      -5.6      0.297      1.625
REMARK  Name = 
REMARK  7 active torsions:
REMARK  status: ('A' for Active; 'I' for Inactive)
REMARK    1  A    between atoms: C_1  and  C_2
REMARK    2  A    between atoms: C_2  and  N_3
REMARK    3  A    between atoms: N_3  and  C_4
REMARK    4  A    between atoms: N_3  and  C_6
REMARK    5  A    between atoms: C_4  and  C_5
REMARK    6  A    between atoms: C_8  and  C_9
REMARK    7  A    between atoms: C_14  and  C_15
REMARK                            x       y       z     vdW  Elec       q    Type
REMARK                         _______ _______ _______ _____ _____    ______ ____
ROOT
ATOM      1  C   UNL     1       4.384   4.310  19.125  0.00  0.00    +0.000 A 
ATOM      2  N   UNL     1       5.635   4.745  19.448  0.00  0.00    +0.000 NA
ATOM      3  C   UNL     1       6.225   5.632  18.597  0.00  0.00    +0.000 A 
ATOM      4  C   UNL     1       5.596   6.102  17.460  0.00  0.00    +0.000 A 
ATOM      5  N   UNL     1       4.345   5.716  17.121  0.00  0.00    +0.000 NA
ATOM      6  C   UNL     1       3.752   4.824  17.970  0.00  0.00    +0.000 A 
ENDROOT
BRANCH   3   7
ATOM      7  C   UNL     1       7.604   6.099  18.912  0.00  0.00    +0.000 C 
ATOM      8  N   UNL     1       8.271   5.419  19.896  0.00  0.00    +0.000 N 
ATOM      9  O   UNL     1       8.120   7.038  18.322  0.00  0.00    +0.000 OA
ATOM     10  H   UNL     1       7.840   4.636  20.371  0.00  0.00    +0.000 HD
ATOM     11  H   UNL     1       9.213   5.700  20.134  0.00  0.00    +0.000 HD
ENDBRANCH   3   7
BRANCH   6  12
ATOM     12  C   UNL     1       2.385   4.525  17.639  0.00  0.00    +0.000 C 
ATOM     13  N   UNL     1       1.280   4.284  17.368  0.00  0.00    +0.000 NA
ENDBRANCH   6  12
BRANCH   1  14
ATOM     14  N   UNL     1       3.799   3.379  19.976  0.00  0.00    +0.000 N 
BRANCH  14  16
ATOM     15  C   UNL     1       3.582   1.358  18.503  0.00  0.00    +0.000 C 
ATOM     16  C   UNL     1       4.142   1.966  19.779  0.00  0.00    +0.000 C 
ENDBRANCH  14  16
BRANCH  14  17
ATOM     17  C   UNL     1       2.544   3.698  20.673  0.00  0.00    +0.000 C 
ATOM     18  C   UNL     1       2.138   2.643  21.694  0.00  0.00    +0.000 C 
ENDBRANCH  14  17
ENDBRANCH   1  14
TORSDOF 5
ENDMDL
MODEL 6
REMARK VINA RESULT:      -5.6      1.388      2.080
REMARK  Name = 
REMARK  7 active torsions:
REMARK  status: ('A' for Active; 'I' for Inactive)
REMARK    1  A    between atoms: C_1  and  C_2
REMARK    2  A    between atoms: C_2  and  N_3
REMARK    3  A    between atoms: N_3  and  C_4
REMARK    4  A    between atoms: N_3  and  C_6
REMARK    5  A    between atoms: C_4  and  C_5
REMARK    6  A    between atoms: C_8  and  C_9
REMARK    7  A    between atoms: C_14  and  C_15
REMARK                            x       y       z     vdW  Elec       q    Type
REMARK                         _______ _______ _______ _____ _____    ______ ____
ROOT
ATOM      1  C   UNL     1       4.331   4.553  19.167  0.00  0.00    +0.000 A 
ATOM      2  N   UNL     1       5.449   5.202  19.601  0.00  0.00    +0.000 NA
ATOM      3  C   UNL     1       6.506   5.265  18.742  0.00  0.00    +0.000 A 
ATOM      4  C   UNL     1       6.465   4.721  17.472  0.00  0.00    +0.000 A 
ATOM      5  N   UNL     1       5.365   4.096  16.995  0.00  0.00    +0.000 NA
ATOM      6  C   UNL     1       4.305   4.027  17.856  0.00  0.00    +0.000 A 
ENDROOT
BRANCH   3   7
ATOM      7  C   UNL     1       7.750   5.942  19.205  0.00  0.00    +0.000 C 
ATOM      8  N   UNL     1       8.414   5.354  20.248  0.00  0.00    +0.000 N 
ATOM      9  O   UNL     1       8.163   6.966  18.680  0.00  0.00    +0.000 OA
ATOM     10  H   UNL     1       8.070   4.500  20.669  0.00  0.00    +0.000 HD
ATOM     11  H   UNL     1       9.267   5.779  20.587  0.00  0.00    +0.000 HD
ENDBRANCH   3   7
BRANCH   6  12
ATOM     12  C   UNL     1       3.119   3.457  17.274  0.00  0.00    +0.000 C 
ATOM     13  N   UNL     1       2.159   2.999  16.805  0.00  0.00    +0.000 NA
ENDBRANCH   6  12
BRANCH   1  14
ATOM     14  N   UNL     1       3.268   4.459  20.058  0.00  0.00    +0.000 N 
BRANCH  14  16
ATOM     15  C   UNL     1       1.841   3.107  21.618  0.00  0.00    +0.000 C 
ATOM     16  C   UNL     1       3.141   3.224  20.839  0.00  0.00    +0.000 C 
ENDBRANCH  14  16
BRANCH  14  17
ATOM     17  C   UNL     1       2.068   5.288  19.869  0.00  0.00    +0.000 C 
ATOM     18  C   UNL     1       2.301   6.762  20.174  0.00  0.00    +0.000 C 
ENDBRANCH  14  17
ENDBRANCH   1  14
TORSDOF 5
ENDMDL
MODEL 7
REMARK VINA RESULT:      -5.6      2.662      4.937
REMARK  Name = 
REMARK  7 active torsions:
REMARK  status: ('A' for Active; 'I' for Inactive)
REMARK    1  A    between atoms: C_1  and  C_2
REMARK    2  A    between atoms: C_2  and  N_3
REMARK    3  A    between atoms: N_3  and  C_4
REMARK    4  A    between atoms: N_3  and  C_6
REMARK    5  A    between atoms: C_4  and  C_5
REMARK    6  A    between atoms: C_8  and  C_9
REMARK    7  A    between atoms: C_14  and  C_15
REMARK                            x       y       z     vdW  Elec       q    Type
REMARK                         _______ _______ _______ _____ _____    ______ ____
ROOT
ATOM      1  C   UNL     1       4.389   4.532  18.528  0.00  0.00    +0.000 A 
ATOM      2  N   UNL     1       3.682   4.309  19.672  0.00  0.00    +0.000 NA
ATOM      3  C   UNL     1       2.979   3.144  19.753  0.00  0.00    +0.000 A 
ATOM      4  C   UNL     1       2.982   2.202  18.741  0.00  0.00    +0.000 A 
ATOM      5  N   UNL     1       3.694   2.374  17.603  0.00  0.00    +0.000 NA
ATOM      6  C   UNL     1       4.397   3.544  17.518  0.00  0.00    +0.000 A 
ENDROOT
BRANCH   3   7
ATOM      7  C   UNL     1       2.174   2.890  20.980  0.00  0.00    +0.000 C 
ATOM      8  N   UNL     1       0.818   3.045  20.865  0.00  0.00    +0.000 N 
ATOM      9  O   UNL     1       2.692   2.557  22.037  0.00  0.00    +0.000 OA
ATOM     10  H   UNL     1       0.398   3.311  19.983  0.00  0.00    +0.000 HD
ATOM     11  H   UNL     1       0.236   2.875  21.674  0.00  0.00    +0.000 HD
ENDBRANCH   3   7
BRANCH   6  12
ATOM     12  C   UNL     1       5.228   3.640  16.348  0.00  0.00    +0.000 C 
ATOM     13  N   UNL     1       5.901   3.719  15.404  0.00  0.00    +0.000 NA
ENDBRANCH   6  12
BRANCH   1  14
ATOM     14  N   UNL     1       5.077   5.737  18.433  0.00  0.00    +0.000 N 
BRANCH  14  16
ATOM     15  C   UNL     1       3.210   7.330  17.905  0.00  0.00    +0.000 C 
ATOM     16  C   UNL     1       4.556   6.747  17.505  0.00  0.00    +0.000 C 
ENDBRANCH  14  16
BRANCH  14  17
ATOM     17  C   UNL     1       6.492   5.815  18.823  0.00  0.00    +0.000 C 
ATOM     18  C   UNL     1       7.359   6.538  17.800  0.00  0.00    +0.000 C 
ENDBRANCH  14  17
ENDBRANCH   1  14
TORSDOF 5
ENDMDL
MODEL 8
REMARK VINA RESULT:      -5.6      2.480      4.865
REMARK  Name = 
REMARK  7 active torsions:
REMARK  status: ('A' for Active; 'I' for Inactive)
REMARK    1  A    between atoms: C_1  and  C_2
REMARK    2  A    between atoms: C_2  and  N_3
REMARK    3  A    between atoms: N_3  and  C_4
REMARK    4  A    between atoms: N_3  and  C_6
REMARK    5  A    between atoms: C_4  and  C_5
REMARK    6  A    between atoms: C_8  and  C_9
REMARK    7  A    between atoms: C_14  and  C_15
REMARK                            x       y       z     vdW  Elec       q    Type
REMARK                         _______ _______ _______ _____ _____    ______ ____
ROOT
ATOM      1  C   UNL     1       4.805   5.312  17.816  0.00  0.00    +0.000 A 
ATOM      2  N   UNL     1       5.063   4.025  18.187  0.00  0.00    +0.000 NA
ATOM      3  C   UNL     1       4.199   3.447  19.070  0.00  0.00    +0.000 A 
ATOM      4  C   UNL     1       3.091   4.108  19.567  0.00  0.00    +0.000 A 
ATOM      5  N   UNL     1       2.786   5.373  19.200  0.00  0.00    +0.000 NA
ATOM      6  C   UNL     1       3.653   5.957  18.318  0.00  0.00    +0.000 A 
ENDROOT
BRANCH   3   7
ATOM      7  C   UNL     1       4.475   2.053  19.515  0.00  0.00    +0.000 C 
ATOM      8  N   UNL     1       4.140   1.053  18.640  0.00  0.00    +0.000 N 
ATOM      9  O   UNL     1       4.980   1.808  20.601  0.00  0.00    +0.000 OA
ATOM     10  H   UNL     1       3.733   1.266  17.738  0.00  0.00    +0.000 HD
ATOM     11  H   UNL     1       4.319   0.093  18.902  0.00  0.00    +0.000 HD
ENDBRANCH   3   7
BRANCH   6  12
ATOM     12  C   UNL     1       3.236   7.258  17.867  0.00  0.00    +0.000 C 
ATOM     13  N   UNL     1       2.902   8.309  17.500  0.00  0.00    +0.000 NA
ENDBRANCH   6  12
BRANCH   1  14
ATOM     14  N   UNL     1       5.707   5.911  16.944  0.00  0.00    +0.000 N 
BRANCH  14  16
ATOM     15  C   UNL     1       5.961   4.714  14.752  0.00  0.00    +0.000 C 
ATOM     16  C   UNL     1       5.384   5.897  15.513  0.00  0.00    +0.000 C 
ENDBRANCH  14  16
BRANCH  14  17
ATOM     17  C   UNL     1       7.113   6.083  17.337  0.00  0.00    +0.000 C 
ATOM     18  C   UNL     1       7.508   7.541  17.538  0.00  0.00    +0.000 C 
ENDBRANCH  14  17
ENDBRANCH   1  14
TORSDOF 5
ENDMDL
MODEL 9
REMARK VINA RESULT:      -5.6      3.714      5.256
REMARK  Name = 
REMARK  7 active torsions:
REMARK  status: ('A' for Active; 'I' for Inactive)
REMARK    1  A    between atoms: C_1  and  C_2
REMARK    2  A    between atoms: C_2  and  N_3
REMARK    3  A    between atoms: N_3  and  C_4
REMARK    4  A    between atoms: N_3  and  C_6
REMARK    5  A    between atoms: C_4  and  C_5
REMARK    6  A    between atoms: C_8  and  C_9
REMARK    7  A    between atoms: C_14  and  C_15
REMARK                            x       y       z     vdW  Elec       q    Type
REMARK                         _______ _______ _______ _____ _____    ______ ____
ROOT
ATOM      1  C   UNL     1       5.499   4.579  16.129  0.00  0.00    +0.000 A 
ATOM      2  N   UNL     1       5.179   3.960  14.957  0.00  0.00    +0.000 NA
ATOM      3  C   UNL     1       6.057   4.093  13.922  0.00  0.00    +0.000 A 
ATOM      4  C   UNL     1       7.237   4.804  14.036  0.00  0.00    +0.000 A 
ATOM      5  N   UNL     1       7.604   5.407  15.190  0.00  0.00    +0.000 NA
ATOM      6  C   UNL     1       6.723   5.278  16.228  0.00  0.00    +0.000 A 
ENDROOT
BRANCH   3   7
ATOM      7  C   UNL     1       5.716   3.452  12.622  0.00  0.00    +0.000 C 
ATOM      8  N   UNL     1       6.684   2.668  12.053  0.00  0.00    +0.000 N 
ATOM      9  O   UNL     1       4.626   3.610  12.089  0.00  0.00    +0.000 OA
ATOM     10  H   UNL     1       7.579   2.535  12.508  0.00  0.00    +0.000 HD
ATOM     11  H   UNL     1       6.488   2.209  11.174  0.00  0.00    +0.000 HD
ENDBRANCH   3   7
BRANCH   6  12
ATOM     12  C   UNL     1       7.198   5.836  17.466  0.00  0.00    +0.000 C 
ATOM     13  N   UNL     1       7.584   6.283  18.467  0.00  0.00    +0.000 NA
ENDBRANCH   6  12
BRANCH   1  14
ATOM     14  N   UNL     1       4.586   4.472  17.172  0.00  0.00    +0.000 N 
BRANCH  14  16
ATOM     15  C   UNL     1       2.648   2.894  17.406  0.00  0.00    +0.000 C 
ATOM     16  C   UNL     1       4.143   3.126  17.554  0.00  0.00    +0.000 C 
ENDBRANCH  14  16
BRANCH  14  17
ATOM     17  C   UNL     1       3.727   5.612  17.524  0.00  0.00    +0.000 C 
ATOM     18  C   UNL     1       3.756   5.951  19.009  0.00  0.00    +0.000 C 
ENDBRANCH  14  17
ENDBRANCH   1  14
TORSDOF 5
ENDMDL
