MODEL 1
REMARK VINA RESULT:      -6.8      0.000      0.000
REMARK  Name = 
REMARK  8 active torsions:
REMARK  status: ('A' for Active; 'I' for Inactive)
REMARK    1  A    between atoms: C_1  and  O_2
REMARK    2  A    between atoms: O_2  and  C_3
REMARK    3  A    between atoms: C_5  and  C_6
REMARK    4  A    between atoms: C_6  and  N_7
REMARK    5  A    between atoms: N_7  and  C_8
REMARK    6  A    between atoms: C_8  and  C_9
REMARK    7  A    between atoms: C_17  and  O_18
REMARK    8  A    between atoms: O_18  and  C_19
REMARK                            x       y       z     vdW  Elec       q    Type
REMARK                         _______ _______ _______ _____ _____    ______ ____
ROOT
ATOM      1  C   UNL     1       6.919   5.574  16.021  0.00  0.00    +0.000 A 
ATOM      2  C   UNL     1       5.885   5.093  16.841  0.00  0.00    +0.000 A 
ATOM      3  C   UNL     1       4.979   4.145  16.370  0.00  0.00    +0.000 A 
ATOM      4  C   UNL     1       5.119   3.690  15.058  0.00  0.00    +0.000 A 
ATOM      5  C   UNL     1       6.154   4.146  14.218  0.00  0.00    +0.000 A 
ATOM      6 BR   UNL     1       6.111   3.339  12.493  0.00  0.00    +0.000 Br
ATOM      7  C   UNL     1       7.075   5.096  14.690  0.00  0.00    +0.000 A 
ENDROOT
BRANCH   1   9
ATOM      8  C   UNL     1       7.418   7.379  17.513  0.00  0.00    +0.000 C 
ATOM      9  O   UNL     1       7.825   6.517  16.457  0.00  0.00    +0.000 OA
ENDBRANCH   1   9
BRANCH   7  10
ATOM     10  O   UNL     1       8.147   5.666  14.046  0.00  0.00    +0.000 OA
ATOM     11  C   UNL     1       8.227   5.729  12.638  0.00  0.00    +0.000 C 
ENDBRANCH   7  10
BRANCH   3  12
ATOM     12  C   UNL     1       3.868   3.635  17.257  0.00  0.00    +0.000 C 
BRANCH  12  13
ATOM     13  N   UNL     1       4.140   2.271  17.696  0.00  0.00    +0.000 NA
ATOM     14  H   UNL     1       4.870   2.287  18.408  0.00  0.00    +0.000 HD
BRANCH  13  15
ATOM     15  C   UNL     1       2.947   1.647  18.266  0.00  0.00    +0.000 C 
BRANCH  15  16
ATOM     16  C   UNL     1       2.388   2.523  19.349  0.00  0.00    +0.000 A 
ATOM     17  C   UNL     1       1.215   3.254  19.334  0.00  0.00    +0.000 A 
ATOM     18  C   UNL     1       0.998   3.962  20.551  0.00  0.00    +0.000 A 
ATOM     19  C   UNL     1       2.018   3.757  21.453  0.00  0.00    +0.000 A 
ATOM     20  S   UNL     1       3.223   2.713  20.834  0.00  0.00    +0.000 S 
ENDBRANCH  15  16
ENDBRANCH  13  15
ENDBRANCH  12  13
ENDBRANCH   3  12
TORSDOF 6
ENDMDL
MODEL 2
REMARK VINA RESULT:      -6.7      0.888      1.046
REMARK  Name = 
REMARK  8 active torsions:
REMARK  status: ('A' for Active; 'I' for Inactive)
REMARK    1  A    between atoms: C_1  and  O_2
REMARK    2  A    between atoms: O_2  and  C_3
REMARK    3  A    between atoms: C_5  and  C_6
REMARK    4  A    between atoms: C_6  and  N_7
REMARK    5  A    between atoms: N_7  and  C_8
REMARK    6  A    between atoms: C_8  and  C_9
REMARK    7  A    between atoms: C_17  and  O_18
REMARK    8  A    between atoms: O_18  and  C_19
REMARK                            x       y       z     vdW  Elec       q    Type
REMARK                         _______ _______ _______ _____ _____    ______ ____
ROOT
ATOM      1  C   UNL     1       6.846   5.546  16.023  0.00  0.00    +0.000 A 
ATOM      2  C   UNL     1       5.790   5.043  16.799  0.00  0.00    +0.000 A 
ATOM      3  C   UNL     1       4.922   4.078  16.291  0.00  0.00    +0.000 A 
ATOM      4  C   UNL     1       5.124   3.629  14.985  0.00  0.00    +0.000 A 
ATOM      5  C   UNL     1       6.184   4.106  14.189  0.00  0.00    +0.000 A 
ATOM      6 BR   UNL     1       6.226   3.302  12.463  0.00  0.00    +0.000 Br
ATOM      7  C   UNL     1       7.066   5.074  14.699  0.00  0.00    +0.000 A 
ENDROOT
BRANCH   1   9
ATOM      8  C   UNL     1       7.661   6.813  17.884  0.00  0.00    +0.000 C 
ATOM      9  O   UNL     1       7.715   6.506  16.496  0.00  0.00    +0.000 OA
ENDBRANCH   1   9
BRANCH   7  10
ATOM     10  O   UNL     1       8.151   5.666  14.100  0.00  0.00    +0.000 OA
ATOM     11  C   UNL     1       8.254   5.798  12.698  0.00  0.00    +0.000 C 
ENDBRANCH   7  10
BRANCH   3  12
ATOM     12  C   UNL     1       3.786   3.546  17.132  0.00  0.00    +0.000 C 
BRANCH  12  13
ATOM     13  N   UNL     1       4.228   2.418  17.944  0.00  0.00    +0.000 NA
ATOM     14  H   UNL     1       5.134   2.094  17.604  0.00  0.00    +0.000 HD
BRANCH  13  15
ATOM     15  C   UNL     1       4.366   2.794  19.350  0.00  0.00    +0.000 C 
BRANCH  15  16
ATOM     16  C   UNL     1       3.111   3.473  19.816  0.00  0.00    +0.000 A 
ATOM     17  C   UNL     1       2.954   4.779  20.240  0.00  0.00    +0.000 A 
ATOM     18  C   UNL     1       1.609   5.079  20.597  0.00  0.00    +0.000 A 
ATOM     19  C   UNL     1       0.781   3.989  20.444  0.00  0.00    +0.000 A 
ATOM     20  S   UNL     1       1.626   2.618  19.868  0.00  0.00    +0.000 S 
ENDBRANCH  15  16
ENDBRANCH  13  15
ENDBRANCH  12  13
ENDBRANCH   3  12
TORSDOF 6
ENDMDL
MODEL 3
REMARK VINA RESULT:      -6.5      2.231      3.170
REMARK  Name = 
REMARK  8 active torsions:
REMARK  status: ('A' for Active; 'I' for Inactive)
REMARK    1  A    between atoms: C_1  and  O_2
REMARK    2  A    between atoms: O_2  and  C_3
REMARK    3  A    between atoms: C_5  and  C_6
REMARK    4  A    between atoms: C_6  and  N_7
REMARK    5  A    between atoms: N_7  and  C_8
REMARK    6  A    between atoms: C_8  and  C_9
REMARK    7  A    between atoms: C_17  and  O_18
REMARK    8  A    between atoms: O_18  and  C_19
REMARK                            x       y       z     vdW  Elec       q    Type
REMARK                         _______ _______ _______ _____ _____    ______ ____
ROOT
ATOM      1  C   UNL     1       6.001   5.235  15.847  0.00  0.00    +0.000 A 
ATOM      2  C   UNL     1       4.979   4.292  16.041  0.00  0.00    +0.000 A 
ATOM      3  C   UNL     1       4.720   3.763  17.305  0.00  0.00    +0.000 A 
ATOM      4  C   UNL     1       5.508   4.190  18.374  0.00  0.00    +0.000 A 
ATOM      5  C   UNL     1       6.531   5.145  18.211  0.00  0.00    +0.000 A 
ATOM      6 BR   UNL     1       7.425   5.551  19.843  0.00  0.00    +0.000 Br
ATOM      7  C   UNL     1       6.792   5.686  16.941  0.00  0.00    +0.000 A 
ENDROOT
BRANCH   1   9
ATOM      8  C   UNL     1       6.870   4.905  13.641  0.00  0.00    +0.000 C 
ATOM      9  O   UNL     1       6.285   5.768  14.609  0.00  0.00    +0.000 OA
ENDBRANCH   1   9
BRANCH   7  10
ATOM     10  O   UNL     1       7.728   6.618  16.566  0.00  0.00    +0.000 OA
ATOM     11  C   UNL     1       7.835   7.872  17.207  0.00  0.00    +0.000 C 
ENDBRANCH   7  10
BRANCH   3  12
ATOM     12  C   UNL     1       3.621   2.746  17.503  0.00  0.00    +0.000 C 
BRANCH  12  13
ATOM     13  N   UNL     1       2.341   3.270  17.040  0.00  0.00    +0.000 NA
ATOM     14  H   UNL     1       1.642   2.527  17.075  0.00  0.00    +0.000 HD
BRANCH  13  15
ATOM     15  C   UNL     1       1.884   4.377  17.879  0.00  0.00    +0.000 C 
BRANCH  15  16
ATOM     16  C   UNL     1       1.828   3.936  19.312  0.00  0.00    +0.000 A 
ATOM     17  C   UNL     1       2.430   4.521  20.410  0.00  0.00    +0.000 A 
ATOM     18  C   UNL     1       2.145   3.831  21.622  0.00  0.00    +0.000 A 
ATOM     19  C   UNL     1       1.341   2.732  21.410  0.00  0.00    +0.000 A 
ATOM     20  S   UNL     1       0.933   2.543  19.760  0.00  0.00    +0.000 S 
ENDBRANCH  15  16
ENDBRANCH  13  15
ENDBRANCH  12  13
ENDBRANCH   3  12
TORSDOF 6
ENDMDL
MODEL 4
REMARK VINA RESULT:      -6.4      3.857      6.596
REMARK  Name = 
REMARK  8 active torsions:
REMARK  status: ('A' for Active; 'I' for Inactive)
REMARK    1  A    between atoms: C_1  and  O_2
REMARK    2  A    between atoms: O_2  and  C_3
REMARK    3  A    between atoms: C_5  and  C_6
REMARK    4  A    between atoms: C_6  and  N_7
REMARK    5  A    between atoms: N_7  and  C_8
REMARK    6  A    between atoms: C_8  and  C_9
REMARK    7  A    between atoms: C_17  and  O_18
REMARK    8  A    between atoms: O_18  and  C_19
REMARK                            x       y       z     vdW  Elec       q    Type
REMARK                         _______ _______ _______ _____ _____    ______ ____
ROOT
ATOM      1  C   UNL     1       2.273   5.919  19.729  0.00  0.00    +0.000 A 
ATOM      2  C   UNL     1       3.071   6.554  18.764  0.00  0.00    +0.000 A 
ATOM      3  C   UNL     1       3.602   5.842  17.690  0.00  0.00    +0.000 A 
ATOM      4  C   UNL     1       3.329   4.476  17.603  0.00  0.00    +0.000 A 
ATOM      5  C   UNL     1       2.521   3.816  18.549  0.00  0.00    +0.000 A 
ATOM      6 BR   UNL     1       2.303   1.963  18.166  0.00  0.00    +0.000 Br
ATOM      7  C   UNL     1       1.977   4.530  19.629  0.00  0.00    +0.000 A 
ENDROOT
BRANCH   1   9
ATOM      8  C   UNL     1       1.531   7.995  20.662  0.00  0.00    +0.000 C 
ATOM      9  O   UNL     1       1.741   6.596  20.806  0.00  0.00    +0.000 OA
ENDBRANCH   1   9
BRANCH   7  10
ATOM     10  O   UNL     1       1.172   4.088  20.651  0.00  0.00    +0.000 OA
ATOM     11  C   UNL     1       1.601   3.105  21.569  0.00  0.00    +0.000 C 
ENDBRANCH   7  10
BRANCH   3  12
ATOM     12  C   UNL     1       4.462   6.533  16.659  0.00  0.00    +0.000 C 
BRANCH  12  13
ATOM     13  N   UNL     1       5.088   5.560  15.771  0.00  0.00    +0.000 NA
ATOM     14  H   UNL     1       4.634   5.599  14.857  0.00  0.00    +0.000 HD
BRANCH  13  15
ATOM     15  C   UNL     1       6.513   5.837  15.595  0.00  0.00    +0.000 C 
BRANCH  15  16
ATOM     16  C   UNL     1       7.151   6.066  16.934  0.00  0.00    +0.000 A 
ATOM     17  C   UNL     1       7.624   7.253  17.462  0.00  0.00    +0.000 A 
ATOM     18  C   UNL     1       8.156   7.093  18.773  0.00  0.00    +0.000 A 
ATOM     19  C   UNL     1       8.082   5.786  19.202  0.00  0.00    +0.000 A 
ATOM     20  S   UNL     1       7.370   4.765  18.029  0.00  0.00    +0.000 S 
ENDBRANCH  15  16
ENDBRANCH  13  15
ENDBRANCH  12  13
ENDBRANCH   3  12
TORSDOF 6
ENDMDL
MODEL 5
REMARK VINA RESULT:      -6.3      5.477      6.781
REMARK  Name = 
REMARK  8 active torsions:
REMARK  status: ('A' for Active; 'I' for Inactive)
REMARK    1  A    between atoms: C_1  and  O_2
REMARK    2  A    between atoms: O_2  and  C_3
REMARK    3  A    between atoms: C_5  and  C_6
REMARK    4  A    between atoms: C_6  and  N_7
REMARK    5  A    between atoms: N_7  and  C_8
REMARK    6  A    between atoms: C_8  and  C_9
REMARK    7  A    between atoms: C_17  and  O_18
REMARK    8  A    between atoms: O_18  and  C_19
REMARK                            x       y       z     vdW  Elec       q    Type
REMARK                         _______ _______ _______ _____ _____    ______ ____
ROOT
ATOM      1  C   UNL     1       4.041   4.799  18.218  0.00  0.00    +0.000 A 
ATOM      2  C   UNL     1       3.541   6.110  18.277  0.00  0.00    +0.000 A 
ATOM      3  C   UNL     1       2.612   6.481  19.247  0.00  0.00    +0.000 A 
ATOM      4  C   UNL     1       2.183   5.513  20.156  0.00  0.00    +0.000 A 
ATOM      5  C   UNL     1       2.678   4.194  20.129  0.00  0.00    +0.000 A 
ATOM      6 BR   UNL     1       1.932   3.101  21.498  0.00  0.00    +0.000 Br
ATOM      7  C   UNL     1       3.619   3.817  19.157  0.00  0.00    +0.000 A 
ENDROOT
BRANCH   1   9
ATOM      8  C   UNL     1       5.303   5.343  16.258  0.00  0.00    +0.000 C 
ATOM      9  O   UNL     1       4.954   4.401  17.265  0.00  0.00    +0.000 OA
ENDBRANCH   1   9
BRANCH   7  10
ATOM     10  O   UNL     1       4.224   2.600  18.956  0.00  0.00    +0.000 OA
ATOM     11  C   UNL     1       3.517   1.487  18.452  0.00  0.00    +0.000 C 
ENDBRANCH   7  10
BRANCH   3  12
ATOM     12  C   UNL     1       2.078   7.892  19.301  0.00  0.00    +0.000 C 
BRANCH  12  13
ATOM     13  N   UNL     1       1.941   8.445  17.958  0.00  0.00    +0.000 NA
ATOM     14  H   UNL     1       1.074   8.104  17.542  0.00  0.00    +0.000 HD
BRANCH  13  15
ATOM     15  C   UNL     1       1.902   9.907  17.984  0.00  0.00    +0.000 C 
BRANCH  15  16
ATOM     16  C   UNL     1       0.557  10.366  18.468  0.00  0.00    +0.000 A 
ATOM     17  C   UNL     1      -0.687  10.068  17.943  0.00  0.00    +0.000 A 
ATOM     18  C   UNL     1      -1.747  10.674  18.676  0.00  0.00    +0.000 A 
ATOM     19  C   UNL     1      -1.279  11.425  19.732  0.00  0.00    +0.000 A 
ATOM     20  S   UNL     1       0.428  11.390  19.837  0.00  0.00    +0.000 S 
ENDBRANCH  15  16
ENDBRANCH  13  15
ENDBRANCH  12  13
ENDBRANCH   3  12
TORSDOF 6
ENDMDL
MODEL 6
REMARK VINA RESULT:      -6.3      5.090      6.319
REMARK  Name = 
REMARK  8 active torsions:
REMARK  status: ('A' for Active; 'I' for Inactive)
REMARK    1  A    between atoms: C_1  and  O_2
REMARK    2  A    between atoms: O_2  and  C_3
REMARK    3  A    between atoms: C_5  and  C_6
REMARK    4  A    between atoms: C_6  and  N_7
REMARK    5  A    between atoms: N_7  and  C_8
REMARK    6  A    between atoms: C_8  and  C_9
REMARK    7  A    between atoms: C_17  and  O_18
REMARK    8  A    between atoms: O_18  and  C_19
REMARK                            x       y       z     vdW  Elec       q    Type
REMARK                         _______ _______ _______ _____ _____    ______ ____
ROOT
ATOM      1  C   UNL     1       4.428   4.750  17.709  0.00  0.00    +0.000 A 
ATOM      2  C   UNL     1       4.213   6.110  17.432  0.00  0.00    +0.000 A 
ATOM      3  C   UNL     1       3.155   6.803  18.016  0.00  0.00    +0.000 A 
ATOM      4  C   UNL     1       2.306   6.109  18.880  0.00  0.00    +0.000 A 
ATOM      5  C   UNL     1       2.506   4.748  19.186  0.00  0.00    +0.000 A 
ATOM      6 BR   UNL     1       1.209   4.071  20.407  0.00  0.00    +0.000 Br
ATOM      7  C   UNL     1       3.575   4.046  18.606  0.00  0.00    +0.000 A 
ENDROOT
BRANCH   1   9
ATOM      8  C   UNL     1       5.613   4.116  15.728  0.00  0.00    +0.000 C 
ATOM      9  O   UNL     1       5.461   4.037  17.140  0.00  0.00    +0.000 OA
ENDBRANCH   1   9
BRANCH   7  10
ATOM     10  O   UNL     1       3.947   2.734  18.767  0.00  0.00    +0.000 OA
ATOM     11  C   UNL     1       4.444   2.242  19.993  0.00  0.00    +0.000 C 
ENDBRANCH   7  10
BRANCH   3  12
ATOM     12  C   UNL     1       2.929   8.264  17.709  0.00  0.00    +0.000 C 
BRANCH  12  13
ATOM     13  N   UNL     1       1.540   8.635  17.950  0.00  0.00    +0.000 NA
ATOM     14  H   UNL     1       1.116   7.956  18.584  0.00  0.00    +0.000 HD
BRANCH  13  15
ATOM     15  C   UNL     1       1.439   9.963  18.555  0.00  0.00    +0.000 C 
BRANCH  15  16
ATOM     16  C   UNL     1       0.826   9.849  19.920  0.00  0.00    +0.000 A 
ATOM     17  C   UNL     1       0.995   8.841  20.851  0.00  0.00    +0.000 A 
ATOM     18  C   UNL     1       0.263   9.076  22.049  0.00  0.00    +0.000 A 
ATOM     19  C   UNL     1      -0.451  10.253  21.993  0.00  0.00    +0.000 A 
ATOM     20  S   UNL     1      -0.231  11.066  20.504  0.00  0.00    +0.000 S 
ENDBRANCH  15  16
ENDBRANCH  13  15
ENDBRANCH  12  13
ENDBRANCH   3  12
TORSDOF 6
ENDMDL
MODEL 7
REMARK VINA RESULT:      -6.3      5.829      7.244
REMARK  Name = 
REMARK  8 active torsions:
REMARK  status: ('A' for Active; 'I' for Inactive)
REMARK    1  A    between atoms: C_1  and  O_2
REMARK    2  A    between atoms: O_2  and  C_3
REMARK    3  A    between atoms: C_5  and  C_6
REMARK    4  A    between atoms: C_6  and  N_7
REMARK    5  A    between atoms: N_7  and  C_8
REMARK    6  A    between atoms: C_8  and  C_9
REMARK    7  A    between atoms: C_17  and  O_18
REMARK    8  A    between atoms: O_18  and  C_19
REMARK                            x       y       z     vdW  Elec       q    Type
REMARK                         _______ _______ _______ _____ _____    ______ ____
ROOT
ATOM      1  C   UNL     1       3.237   5.548  18.279  0.00  0.00    +0.000 A 
ATOM      2  C   UNL     1       2.755   6.773  18.767  0.00  0.00    +0.000 A 
ATOM      3  C   UNL     1       2.050   6.839  19.968  0.00  0.00    +0.000 A 
ATOM      4  C   UNL     1       1.828   5.654  20.671  0.00  0.00    +0.000 A 
ATOM      5  C   UNL     1       2.313   4.414  20.212  0.00  0.00    +0.000 A 
ATOM      6 BR   UNL     1       1.880   2.976  21.383  0.00  0.00    +0.000 Br
ATOM      7  C   UNL     1       3.030   4.342  19.006  0.00  0.00    +0.000 A 
ENDROOT
BRANCH   1   9
ATOM      8  C   UNL     1       4.957   6.404  16.851  0.00  0.00    +0.000 C 
ATOM      9  O   UNL     1       3.930   5.450  17.091  0.00  0.00    +0.000 OA
ENDBRANCH   1   9
BRANCH   7  10
ATOM     10  O   UNL     1       3.585   3.249  18.385  0.00  0.00    +0.000 OA
ATOM     11  C   UNL     1       2.793   2.229  17.816  0.00  0.00    +0.000 C 
ENDBRANCH   7  10
BRANCH   3  12
ATOM     12  C   UNL     1       1.531   8.160  20.483  0.00  0.00    +0.000 C 
BRANCH  12  13
ATOM     13  N   UNL     1       1.348   9.107  19.388  0.00  0.00    +0.000 NA
ATOM     14  H   UNL     1       0.780   8.672  18.660  0.00  0.00    +0.000 HD
BRANCH  13  15
ATOM     15  C   UNL     1       0.673  10.322  19.841  0.00  0.00    +0.000 C 
BRANCH  15  16
ATOM     16  C   UNL     1      -0.529  10.582  18.980  0.00  0.00    +0.000 A 
ATOM     17  C   UNL     1      -0.900   9.937  17.815  0.00  0.00    +0.000 A 
ATOM     18  C   UNL     1      -2.115  10.445  17.274  0.00  0.00    +0.000 A 
ATOM     19  C   UNL     1      -2.629  11.471  18.036  0.00  0.00    +0.000 A 
ATOM     20  S   UNL     1      -1.651  11.809  19.398  0.00  0.00    +0.000 S 
ENDBRANCH  15  16
ENDBRANCH  13  15
ENDBRANCH  12  13
ENDBRANCH   3  12
TORSDOF 6
ENDMDL
MODEL 8
REMARK VINA RESULT:      -6.2      4.126      6.615
REMARK  Name = 
REMARK  8 active torsions:
REMARK  status: ('A' for Active; 'I' for Inactive)
REMARK    1  A    between atoms: C_1  and  O_2
REMARK    2  A    between atoms: O_2  and  C_3
REMARK    3  A    between atoms: C_5  and  C_6
REMARK    4  A    between atoms: C_6  and  N_7
REMARK    5  A    between atoms: N_7  and  C_8
REMARK    6  A    between atoms: C_8  and  C_9
REMARK    7  A    between atoms: C_17  and  O_18
REMARK    8  A    between atoms: O_18  and  C_19
REMARK                            x       y       z     vdW  Elec       q    Type
REMARK                         _______ _______ _______ _____ _____    ______ ____
ROOT
ATOM      1  C   UNL     1       2.454   4.869  20.192  0.00  0.00    +0.000 A 
ATOM      2  C   UNL     1       2.957   4.016  19.197  0.00  0.00    +0.000 A 
ATOM      3  C   UNL     1       3.257   4.498  17.924  0.00  0.00    +0.000 A 
ATOM      4  C   UNL     1       3.037   5.850  17.659  0.00  0.00    +0.000 A 
ATOM      5  C   UNL     1       2.546   6.731  18.643  0.00  0.00    +0.000 A 
ATOM      6 BR   UNL     1       2.365   8.517  18.006  0.00  0.00    +0.000 Br
ATOM      7  C   UNL     1       2.248   6.253  19.929  0.00  0.00    +0.000 A 
ENDROOT
BRANCH   1   9
ATOM      8  C   UNL     1       1.985   3.017  21.635  0.00  0.00    +0.000 C 
ATOM      9  O   UNL     1       2.141   4.420  21.457  0.00  0.00    +0.000 OA
ENDBRANCH   1   9
BRANCH   7  10
ATOM     10  O   UNL     1       1.768   6.932  21.023  0.00  0.00    +0.000 OA
ATOM     11  C   UNL     1       1.073   8.154  20.899  0.00  0.00    +0.000 C 
ENDBRANCH   7  10
BRANCH   3  12
ATOM     12  C   UNL     1       3.794   3.572  16.858  0.00  0.00    +0.000 C 
BRANCH  12  13
ATOM     13  N   UNL     1       5.217   3.322  17.059  0.00  0.00    +0.000 NA
ATOM     14  H   UNL     1       5.439   2.376  16.744  0.00  0.00    +0.000 HD
BRANCH  13  15
ATOM     15  C   UNL     1       6.037   4.268  16.304  0.00  0.00    +0.000 C 
BRANCH  15  16
ATOM     16  C   UNL     1       6.774   5.166  17.253  0.00  0.00    +0.000 A 
ATOM     17  C   UNL     1       7.259   4.863  18.513  0.00  0.00    +0.000 A 
ATOM     18  C   UNL     1       7.922   5.966  19.121  0.00  0.00    +0.000 A 
ATOM     19  C   UNL     1       7.914   7.081  18.313  0.00  0.00    +0.000 A 
ATOM     20  S   UNL     1       7.116   6.791  16.828  0.00  0.00    +0.000 S 
ENDBRANCH  15  16
ENDBRANCH  13  15
ENDBRANCH  12  13
ENDBRANCH   3  12
TORSDOF 6
ENDMDL
MODEL 9
REMARK VINA RESULT:      -6.2      5.470      6.582
REMARK  Name = 
REMARK  8 active torsions:
REMARK  status: ('A' for Active; 'I' for Inactive)
REMARK    1  A    between atoms: C_1  and  O_2
REMARK    2  A    between atoms: O_2  and  C_3
REMARK    3  A    between atoms: C_5  and  C_6
REMARK    4  A    between atoms: C_6  and  N_7
REMARK    5  A    between atoms: N_7  and  C_8
REMARK    6  A    between atoms: C_8  and  C_9
REMARK    7  A    between atoms: C_17  and  O_18
REMARK    8  A    between atoms: O_18  and  C_19
REMARK                            x       y       z     vdW  Elec       q    Type
REMARK                         _______ _______ _______ _____ _____    ______ ____
ROOT
ATOM      1  C   UNL     1       5.196   4.841  18.655  0.00  0.00    +0.000 A 
ATOM      2  C   UNL     1       4.813   6.055  18.061  0.00  0.00    +0.000 A 
ATOM      3  C   UNL     1       3.524   6.559  18.225  0.00  0.00    +0.000 A 
ATOM      4  C   UNL     1       2.619   5.822  18.989  0.00  0.00    +0.000 A 
ATOM      5  C   UNL     1       2.980   4.609  19.608  0.00  0.00    +0.000 A 
ATOM      6 BR   UNL     1       1.550   3.837  20.603  0.00  0.00    +0.000 Br
ATOM      7  C   UNL     1       4.279   4.100  19.452  0.00  0.00    +0.000 A 
ENDROOT
BRANCH   1   9
ATOM      8  C   UNL     1       7.474   5.175  17.996  0.00  0.00    +0.000 C 
ATOM      9  O   UNL     1       6.461   4.314  18.503  0.00  0.00    +0.000 OA
ENDBRANCH   1   9
BRANCH   7  10
ATOM     10  O   UNL     1       4.833   2.951  19.962  0.00  0.00    +0.000 OA
ATOM     11  C   UNL     1       4.331   1.671  19.642  0.00  0.00    +0.000 C 
ENDBRANCH   7  10
BRANCH   3  12
ATOM     12  C   UNL     1       3.120   7.863  17.579  0.00  0.00    +0.000 C 
BRANCH  12  13
ATOM     13  N   UNL     1       1.915   8.397  18.203  0.00  0.00    +0.000 NA
ATOM     14  H   UNL     1       1.932   8.186  19.201  0.00  0.00    +0.000 HD
BRANCH  13  15
ATOM     15  C   UNL     1       1.826   9.847  18.035  0.00  0.00    +0.000 C 
BRANCH  15  16
ATOM     16  C   UNL     1       0.446  10.313  18.399  0.00  0.00    +0.000 A 
ATOM     17  C   UNL     1      -0.753   9.985  17.794  0.00  0.00    +0.000 A 
ATOM     18  C   UNL     1      -1.868  10.609  18.422  0.00  0.00    +0.000 A 
ATOM     19  C   UNL     1      -1.486  11.402  19.481  0.00  0.00    +0.000 A 
ATOM     20  S   UNL     1       0.208  11.387  19.715  0.00  0.00    +0.000 S 
ENDBRANCH  15  16
ENDBRANCH  13  15
ENDBRANCH  12  13
ENDBRANCH   3  12
TORSDOF 6
ENDMDL
