MODEL 1
REMARK VINA RESULT:      -8.0      0.000      0.000
REMARK  Name = 
REMARK  7 active torsions:
REMARK  status: ('A' for Active; 'I' for Inactive)
REMARK    1  A    between atoms: C_1  and  O_2
REMARK    2  A    between atoms: O_2  and  C_3
REMARK    3  A    between atoms: C_7  and  C_8
REMARK    4  A    between atoms: N_10  and  C_11
REMARK    5  A    between atoms: C_16  and  N_17
REMARK    6  A    between atoms: N_23  and  C_24
REMARK    7  A    between atoms: N_27  and  C_28
REMARK                            x       y       z     vdW  Elec       q    Type
REMARK                         _______ _______ _______ _____ _____    ______ ____
ROOT
ATOM      1  C   UNL     1       3.127   6.721  18.494  0.00  0.00    +0.000 A 
ATOM      2  C   UNL     1       3.839   7.034  17.310  0.00  0.00    +0.000 A 
ATOM      3  C   UNL     1       4.710   6.085  16.811  0.00  0.00    +0.000 A 
ATOM      4  C   UNL     1       5.101   4.995  17.574  0.00  0.00    +0.000 A 
ATOM      5  C   UNL     1       4.424   4.654  18.725  0.00  0.00    +0.000 A 
ATOM      6  C   UNL     1       3.301   5.435  19.112  0.00  0.00    +0.000 A 
ATOM      7  N   UNL     1       6.005   4.186  16.829  0.00  0.00    +0.000 N 
ATOM      8  C   UNL     1       7.414   4.331  17.186  0.00  0.00    +0.000 C 
ATOM      9  C   UNL     1       5.866   4.629  15.472  0.00  0.00    +0.000 A 
ATOM     10  O   UNL     1       6.371   4.103  14.491  0.00  0.00    +0.000 OA
ATOM     11  N   UNL     1       5.229   5.884  15.528  0.00  0.00    +0.000 N 
ATOM     12  C   UNL     1       5.550   6.864  14.549  0.00  0.00    +0.000 C 
ENDROOT
BRANCH   6  13
ATOM     13  N   UNL     1       2.282   4.768  19.816  0.00  0.00    +0.000 N 
ATOM     14  C   UNL     1       2.364   4.806  21.293  0.00  0.00    +0.000 C 
ATOM     15  C   UNL     1       2.358   3.399  21.891  0.00  0.00    +0.000 C 
ATOM     16  C   UNL     1       1.177   2.583  21.383  0.00  0.00    +0.000 C 
ATOM     17  C   UNL     1       1.160   2.571  19.855  0.00  0.00    +0.000 C 
ATOM     18  C   UNL     1       1.170   3.993  19.280  0.00  0.00    +0.000 C 
ENDBRANCH   6  13
BRANCH   1  21
ATOM     19  C   UNL     1       1.839   8.844  18.442  0.00  0.00    +0.000 C 
ATOM     20  O   UNL     1       2.223   9.253  17.343  0.00  0.00    +0.000 OA
ATOM     21  N   UNL     1       2.220   7.660  19.045  0.00  0.00    +0.000 N 
ATOM     22  H   UNL     1       1.648   7.331  19.797  0.00  0.00    +0.000 HD
BRANCH  19  27
ATOM     23  C   UNL     1      -0.177  10.544  21.191  0.00  0.00    +0.000 A 
ATOM     24  C   UNL     1      -1.158  11.180  20.433  0.00  0.00    +0.000 A 
ATOM     25  C   UNL     1      -1.163  11.048  19.039  0.00  0.00    +0.000 A 
ATOM     26  C   UNL     1      -0.173  10.282  18.414  0.00  0.00    +0.000 A 
ATOM     27  C   UNL     1       0.793   9.630  19.169  0.00  0.00    +0.000 A 
ATOM     28  C   UNL     1       0.807   9.765  20.562  0.00  0.00    +0.000 A 
BRANCH  23  30
ATOM     29  C   UNL     1      -0.127   9.655  23.404  0.00  0.00    +0.000 C 
ATOM     30  O   UNL     1      -0.282  10.773  22.539  0.00  0.00    +0.000 OA
ENDBRANCH  23  30
ENDBRANCH  19  27
ENDBRANCH   1  21
TORSDOF 4
ENDMDL
MODEL 2
REMARK VINA RESULT:      -7.8      1.002      1.799
REMARK  Name = 
REMARK  7 active torsions:
REMARK  status: ('A' for Active; 'I' for Inactive)
REMARK    1  A    between atoms: C_1  and  O_2
REMARK    2  A    between atoms: O_2  and  C_3
REMARK    3  A    between atoms: C_7  and  C_8
REMARK    4  A    between atoms: N_10  and  C_11
REMARK    5  A    between atoms: C_16  and  N_17
REMARK    6  A    between atoms: N_23  and  C_24
REMARK    7  A    between atoms: N_27  and  C_28
REMARK                            x       y       z     vdW  Elec       q    Type
REMARK                         _______ _______ _______ _____ _____    ______ ____
ROOT
ATOM      1  C   UNL     1       3.145   6.799  18.667  0.00  0.00    +0.000 A 
ATOM      2  C   UNL     1       3.861   7.066  17.475  0.00  0.00    +0.000 A 
ATOM      3  C   UNL     1       4.761   6.115  17.037  0.00  0.00    +0.000 A 
ATOM      4  C   UNL     1       5.171   5.077  17.862  0.00  0.00    +0.000 A 
ATOM      5  C   UNL     1       4.491   4.781  19.023  0.00  0.00    +0.000 A 
ATOM      6  C   UNL     1       3.344   5.554  19.356  0.00  0.00    +0.000 A 
ATOM      7  N   UNL     1       6.104   4.253  17.171  0.00  0.00    +0.000 N 
ATOM      8  C   UNL     1       7.505   4.454  17.532  0.00  0.00    +0.000 C 
ATOM      9  C   UNL     1       5.969   4.619  15.790  0.00  0.00    +0.000 A 
ATOM     10  O   UNL     1       6.498   4.053  14.844  0.00  0.00    +0.000 OA
ATOM     11  N   UNL     1       5.299   5.857  15.772  0.00  0.00    +0.000 N 
ATOM     12  C   UNL     1       5.606   6.791  14.743  0.00  0.00    +0.000 C 
ENDROOT
BRANCH   6  13
ATOM     13  N   UNL     1       2.335   4.899  20.086  0.00  0.00    +0.000 N 
ATOM     14  C   UNL     1       2.654   4.547  21.487  0.00  0.00    +0.000 C 
ATOM     15  C   UNL     1       2.458   3.053  21.748  0.00  0.00    +0.000 C 
ATOM     16  C   UNL     1       1.072   2.590  21.321  0.00  0.00    +0.000 C 
ATOM     17  C   UNL     1       0.812   2.970  19.864  0.00  0.00    +0.000 C 
ATOM     18  C   UNL     1       1.019   4.471  19.626  0.00  0.00    +0.000 C 
ENDBRANCH   6  13
BRANCH   1  21
ATOM     19  C   UNL     1       1.804   8.882  18.489  0.00  0.00    +0.000 C 
ATOM     20  O   UNL     1       2.189   9.241  17.372  0.00  0.00    +0.000 OA
ATOM     21  N   UNL     1       2.207   7.743  19.158  0.00  0.00    +0.000 N 
ATOM     22  H   UNL     1       1.636   7.439  19.921  0.00  0.00    +0.000 HD
BRANCH  19  27
ATOM     23  C   UNL     1      -1.274  11.038  19.113  0.00  0.00    +0.000 A 
ATOM     24  C   UNL     1      -1.280  11.079  20.505  0.00  0.00    +0.000 A 
ATOM     25  C   UNL     1      -0.283  10.415  21.231  0.00  0.00    +0.000 A 
ATOM     26  C   UNL     1       0.710   9.703  20.549  0.00  0.00    +0.000 A 
ATOM     27  C   UNL     1       0.729   9.679  19.161  0.00  0.00    +0.000 A 
ATOM     28  C   UNL     1      -0.269  10.334  18.431  0.00  0.00    +0.000 A 
BRANCH  23  30
ATOM     29  C   UNL     1      -2.780  11.244  17.275  0.00  0.00    +0.000 C 
ATOM     30  O   UNL     1      -2.316  11.716  18.533  0.00  0.00    +0.000 OA
ENDBRANCH  23  30
ENDBRANCH  19  27
ENDBRANCH   1  21
TORSDOF 4
ENDMDL
MODEL 3
REMARK VINA RESULT:      -7.5      3.733      8.890
REMARK  Name = 
REMARK  7 active torsions:
REMARK  status: ('A' for Active; 'I' for Inactive)
REMARK    1  A    between atoms: C_1  and  O_2
REMARK    2  A    between atoms: O_2  and  C_3
REMARK    3  A    between atoms: C_7  and  C_8
REMARK    4  A    between atoms: N_10  and  C_11
REMARK    5  A    between atoms: C_16  and  N_17
REMARK    6  A    between atoms: N_23  and  C_24
REMARK    7  A    between atoms: N_27  and  C_28
REMARK                            x       y       z     vdW  Elec       q    Type
REMARK                         _______ _______ _______ _____ _____    ______ ____
ROOT
ATOM      1  C   UNL     1       0.732  11.490  19.454  0.00  0.00    +0.000 A 
ATOM      2  C   UNL     1       1.502  12.394  20.227  0.00  0.00    +0.000 A 
ATOM      3  C   UNL     1       1.190  13.737  20.147  0.00  0.00    +0.000 A 
ATOM      4  C   UNL     1       0.363  14.227  19.146  0.00  0.00    +0.000 A 
ATOM      5  C   UNL     1      -0.409  13.377  18.384  0.00  0.00    +0.000 A 
ATOM      6  C   UNL     1      -0.354  11.982  18.651  0.00  0.00    +0.000 A 
ATOM      7  N   UNL     1       0.218  15.636  19.289  0.00  0.00    +0.000 N 
ATOM      8  C   UNL     1       1.010  16.443  18.365  0.00  0.00    +0.000 C 
ATOM      9  C   UNL     1       0.691  15.924  20.612  0.00  0.00    +0.000 A 
ATOM     10  O   UNL     1       0.613  17.004  21.181  0.00  0.00    +0.000 OA
ATOM     11  N   UNL     1       1.435  14.801  21.021  0.00  0.00    +0.000 N 
ATOM     12  C   UNL     1       2.553  14.990  21.880  0.00  0.00    +0.000 C 
ENDROOT
BRANCH   6  13
ATOM     13  N   UNL     1      -1.524  11.244  18.391  0.00  0.00    +0.000 N 
ATOM     14  C   UNL     1      -1.407  10.142  17.410  0.00  0.00    +0.000 C 
ATOM     15  C   UNL     1      -2.417  10.294  16.273  0.00  0.00    +0.000 C 
ATOM     16  C   UNL     1      -3.833  10.467  16.806  0.00  0.00    +0.000 C 
ATOM     17  C   UNL     1      -3.888  11.627  17.799  0.00  0.00    +0.000 C 
ATOM     18  C   UNL     1      -2.863  11.454  18.926  0.00  0.00    +0.000 C 
ENDBRANCH   6  13
BRANCH   1  21
ATOM     19  C   UNL     1       1.763   9.410  18.573  0.00  0.00    +0.000 C 
ATOM     20  O   UNL     1       2.306   9.894  17.575  0.00  0.00    +0.000 OA
ATOM     21  N   UNL     1       1.010  10.101  19.502  0.00  0.00    +0.000 N 
ATOM     22  H   UNL     1       0.852   9.651  20.382  0.00  0.00    +0.000 HD
BRANCH  19  27
ATOM     23  C   UNL     1       2.795   5.753  18.296  0.00  0.00    +0.000 A 
ATOM     24  C   UNL     1       2.493   5.304  19.580  0.00  0.00    +0.000 A 
ATOM     25  C   UNL     1       1.950   6.186  20.522  0.00  0.00    +0.000 A 
ATOM     26  C   UNL     1       1.725   7.521  20.169  0.00  0.00    +0.000 A 
ATOM     27  C   UNL     1       2.005   7.965  18.885  0.00  0.00    +0.000 A 
ATOM     28  C   UNL     1       2.554   7.089  17.940  0.00  0.00    +0.000 A 
BRANCH  23  30
ATOM     29  C   UNL     1       2.682   3.527  17.447  0.00  0.00    +0.000 C 
ATOM     30  O   UNL     1       3.335   4.790  17.483  0.00  0.00    +0.000 OA
ENDBRANCH  23  30
ENDBRANCH  19  27
ENDBRANCH   1  21
TORSDOF 4
ENDMDL
MODEL 4
REMARK VINA RESULT:      -7.4      4.568     10.405
REMARK  Name = 
REMARK  7 active torsions:
REMARK  status: ('A' for Active; 'I' for Inactive)
REMARK    1  A    between atoms: C_1  and  O_2
REMARK    2  A    between atoms: O_2  and  C_3
REMARK    3  A    between atoms: C_7  and  C_8
REMARK    4  A    between atoms: N_10  and  C_11
REMARK    5  A    between atoms: C_16  and  N_17
REMARK    6  A    between atoms: N_23  and  C_24
REMARK    7  A    between atoms: N_27  and  C_28
REMARK                            x       y       z     vdW  Elec       q    Type
REMARK                         _______ _______ _______ _____ _____    ______ ____
ROOT
ATOM      1  C   UNL     1      -0.369  12.353  22.082  0.00  0.00    +0.000 A 
ATOM      2  C   UNL     1      -1.554  12.118  22.823  0.00  0.00    +0.000 A 
ATOM      3  C   UNL     1      -2.153  13.199  23.439  0.00  0.00    +0.000 A 
ATOM      4  C   UNL     1      -1.486  14.408  23.582  0.00  0.00    +0.000 A 
ATOM      5  C   UNL     1      -0.338  14.674  22.868  0.00  0.00    +0.000 A 
ATOM      6  C   UNL     1       0.148  13.688  21.965  0.00  0.00    +0.000 A 
ATOM      7  N   UNL     1      -2.322  15.341  24.258  0.00  0.00    +0.000 N 
ATOM      8  C   UNL     1      -2.009  15.553  25.669  0.00  0.00    +0.000 C 
ATOM      9  C   UNL     1      -3.637  14.772  24.198  0.00  0.00    +0.000 A 
ATOM     10  O   UNL     1      -4.672  15.321  24.547  0.00  0.00    +0.000 OA
ATOM     11  N   UNL     1      -3.466  13.413  23.871  0.00  0.00    +0.000 N 
ATOM     12  C   UNL     1      -4.384  12.458  24.390  0.00  0.00    +0.000 C 
ENDROOT
BRANCH   6  13
ATOM     13  N   UNL     1       0.840  14.157  20.834  0.00  0.00    +0.000 N 
ATOM     14  C   UNL     1       0.014  14.575  19.679  0.00  0.00    +0.000 C 
ATOM     15  C   UNL     1       0.411  13.828  18.406  0.00  0.00    +0.000 C 
ATOM     16  C   UNL     1       1.906  13.939  18.138  0.00  0.00    +0.000 C 
ATOM     17  C   UNL     1       2.699  13.478  19.360  0.00  0.00    +0.000 C 
ATOM     18  C   UNL     1       2.280  14.239  20.624  0.00  0.00    +0.000 C 
ENDBRANCH   6  13
BRANCH   1  21
ATOM     19  C   UNL     1      -0.141  10.687  20.254  0.00  0.00    +0.000 C 
ATOM     20  O   UNL     1      -1.137  11.010  19.600  0.00  0.00    +0.000 OA
ATOM     21  N   UNL     1       0.283  11.276  21.429  0.00  0.00    +0.000 N 
ATOM     22  H   UNL     1       1.226  11.097  21.710  0.00  0.00    +0.000 HD
BRANCH  19  27
ATOM     23  C   UNL     1       1.965   7.536  19.875  0.00  0.00    +0.000 A 
ATOM     24  C   UNL     1       2.391   7.669  18.555  0.00  0.00    +0.000 A 
ATOM     25  C   UNL     1       2.001   8.783  17.801  0.00  0.00    +0.000 A 
ATOM     26  C   UNL     1       1.171   9.751  18.378  0.00  0.00    +0.000 A 
ATOM     27  C   UNL     1       0.763   9.630  19.699  0.00  0.00    +0.000 A 
ATOM     28  C   UNL     1       1.145   8.516  20.455  0.00  0.00    +0.000 A 
BRANCH  23  30
ATOM     29  C   UNL     1       3.132   5.464  19.691  0.00  0.00    +0.000 C 
ATOM     30  O   UNL     1       2.408   6.392  20.488  0.00  0.00    +0.000 OA
ENDBRANCH  23  30
ENDBRANCH  19  27
ENDBRANCH   1  21
TORSDOF 4
ENDMDL
MODEL 5
REMARK VINA RESULT:      -7.4      1.581      2.446
REMARK  Name = 
REMARK  7 active torsions:
REMARK  status: ('A' for Active; 'I' for Inactive)
REMARK    1  A    between atoms: C_1  and  O_2
REMARK    2  A    between atoms: O_2  and  C_3
REMARK    3  A    between atoms: C_7  and  C_8
REMARK    4  A    between atoms: N_10  and  C_11
REMARK    5  A    between atoms: C_16  and  N_17
REMARK    6  A    between atoms: N_23  and  C_24
REMARK    7  A    between atoms: N_27  and  C_28
REMARK                            x       y       z     vdW  Elec       q    Type
REMARK                         _______ _______ _______ _____ _____    ______ ____
ROOT
ATOM      1  C   UNL     1       3.036   6.766  18.278  0.00  0.00    +0.000 A 
ATOM      2  C   UNL     1       3.988   6.982  17.252  0.00  0.00    +0.000 A 
ATOM      3  C   UNL     1       5.120   6.191  17.246  0.00  0.00    +0.000 A 
ATOM      4  C   UNL     1       5.464   5.417  18.346  0.00  0.00    +0.000 A 
ATOM      5  C   UNL     1       4.559   5.176  19.356  0.00  0.00    +0.000 A 
ATOM      6  C   UNL     1       3.251   5.724  19.245  0.00  0.00    +0.000 A 
ATOM      7  N   UNL     1       6.673   4.714  18.079  0.00  0.00    +0.000 N 
ATOM      8  C   UNL     1       7.871   5.271  18.700  0.00  0.00    +0.000 C 
ATOM      9  C   UNL     1       6.850   4.809  16.659  0.00  0.00    +0.000 A 
ATOM     10  O   UNL     1       7.700   4.224  16.003  0.00  0.00    +0.000 OA
ATOM     11  N   UNL     1       6.011   5.852  16.223  0.00  0.00    +0.000 N 
ATOM     12  C   UNL     1       6.418   6.648  15.117  0.00  0.00    +0.000 C 
ENDROOT
BRANCH   6  13
ATOM     13  N   UNL     1       2.210   4.995  19.847  0.00  0.00    +0.000 N 
ATOM     14  C   UNL     1       2.220   4.923  21.325  0.00  0.00    +0.000 C 
ATOM     15  C   UNL     1       2.206   3.476  21.816  0.00  0.00    +0.000 C 
ATOM     16  C   UNL     1       1.064   2.687  21.192  0.00  0.00    +0.000 C 
ATOM     17  C   UNL     1       1.119   2.789  19.668  0.00  0.00    +0.000 C 
ATOM     18  C   UNL     1       1.137   4.249  19.201  0.00  0.00    +0.000 C 
ENDBRANCH   6  13
BRANCH   1  21
ATOM     19  C   UNL     1       1.817   8.930  18.255  0.00  0.00    +0.000 C 
ATOM     20  O   UNL     1       2.792   9.676  18.131  0.00  0.00    +0.000 OA
ATOM     21  N   UNL     1       1.856   7.551  18.328  0.00  0.00    +0.000 N 
ATOM     22  H   UNL     1       0.996   7.064  18.167  0.00  0.00    +0.000 HD
BRANCH  19  27
ATOM     23  C   UNL     1      -1.722   9.875  17.210  0.00  0.00    +0.000 A 
ATOM     24  C   UNL     1      -2.115  10.645  18.302  0.00  0.00    +0.000 A 
ATOM     25  C   UNL     1      -1.228  10.859  19.365  0.00  0.00    +0.000 A 
ATOM     26  C   UNL     1       0.047  10.286  19.326  0.00  0.00    +0.000 A 
ATOM     27  C   UNL     1       0.448   9.536  18.229  0.00  0.00    +0.000 A 
ATOM     28  C   UNL     1      -0.437   9.313  17.167  0.00  0.00    +0.000 A 
BRANCH  23  30
ATOM     29  C   UNL     1      -3.451  10.889  15.917  0.00  0.00    +0.000 C 
ATOM     30  O   UNL     1      -2.694   9.734  16.252  0.00  0.00    +0.000 OA
ENDBRANCH  23  30
ENDBRANCH  19  27
ENDBRANCH   1  21
TORSDOF 4
ENDMDL
MODEL 6
REMARK VINA RESULT:      -7.4      4.575     10.378
REMARK  Name = 
REMARK  7 active torsions:
REMARK  status: ('A' for Active; 'I' for Inactive)
REMARK    1  A    between atoms: C_1  and  O_2
REMARK    2  A    between atoms: O_2  and  C_3
REMARK    3  A    between atoms: C_7  and  C_8
REMARK    4  A    between atoms: N_10  and  C_11
REMARK    5  A    between atoms: C_16  and  N_17
REMARK    6  A    between atoms: N_23  and  C_24
REMARK    7  A    between atoms: N_27  and  C_28
REMARK                            x       y       z     vdW  Elec       q    Type
REMARK                         _______ _______ _______ _____ _____    ______ ____
ROOT
ATOM      1  C   UNL     1      -0.040  12.188  21.808  0.00  0.00    +0.000 A 
ATOM      2  C   UNL     1      -1.183  11.975  22.616  0.00  0.00    +0.000 A 
ATOM      3  C   UNL     1      -1.770  13.077  23.206  0.00  0.00    +0.000 A 
ATOM      4  C   UNL     1      -1.117  14.301  23.256  0.00  0.00    +0.000 A 
ATOM      5  C   UNL     1      -0.009  14.547  22.474  0.00  0.00    +0.000 A 
ATOM      6  C   UNL     1       0.448  13.524  21.599  0.00  0.00    +0.000 A 
ATOM      7  N   UNL     1      -1.935  15.255  23.925  0.00  0.00    +0.000 N 
ATOM      8  C   UNL     1      -1.559  15.542  25.306  0.00  0.00    +0.000 C 
ATOM      9  C   UNL     1      -3.242  14.664  23.958  0.00  0.00    +0.000 A 
ATOM     10  O   UNL     1      -4.268  15.215  24.329  0.00  0.00    +0.000 OA
ATOM     11  N   UNL     1      -3.064  13.293  23.691  0.00  0.00    +0.000 N 
ATOM     12  C   UNL     1      -3.939  12.353  24.302  0.00  0.00    +0.000 C 
ENDROOT
BRANCH   6  13
ATOM     13  N   UNL     1       1.077  13.944  20.413  0.00  0.00    +0.000 N 
ATOM     14  C   UNL     1       2.556  14.007  20.434  0.00  0.00    +0.000 C 
ATOM     15  C   UNL     1       3.063  15.396  20.044  0.00  0.00    +0.000 C 
ATOM     16  C   UNL     1       2.469  15.854  18.720  0.00  0.00    +0.000 C 
ATOM     17  C   UNL     1       0.943  15.781  18.770  0.00  0.00    +0.000 C 
ATOM     18  C   UNL     1       0.459  14.381  19.167  0.00  0.00    +0.000 C 
ENDBRANCH   6  13
BRANCH   1  21
ATOM     19  C   UNL     1       0.150  10.463  20.031  0.00  0.00    +0.000 C 
ATOM     20  O   UNL     1      -0.858  10.766  19.387  0.00  0.00    +0.000 OA
ATOM     21  N   UNL     1       0.598  11.090  21.178  0.00  0.00    +0.000 N 
ATOM     22  H   UNL     1       1.547  10.919  21.446  0.00  0.00    +0.000 HD
BRANCH  19  27
ATOM     23  C   UNL     1       2.156   7.244  19.673  0.00  0.00    +0.000 A 
ATOM     24  C   UNL     1       2.654   7.395  18.381  0.00  0.00    +0.000 A 
ATOM     25  C   UNL     1       2.343   8.541  17.639  0.00  0.00    +0.000 A 
ATOM     26  C   UNL     1       1.522   9.525  18.199  0.00  0.00    +0.000 A 
ATOM     27  C   UNL     1       1.042   9.387  19.494  0.00  0.00    +0.000 A 
ATOM     28  C   UNL     1       1.344   8.240  20.238  0.00  0.00    +0.000 A 
BRANCH  23  30
ATOM     29  C   UNL     1       3.561   5.317  19.659  0.00  0.00    +0.000 C 
ATOM     30  O   UNL     1       2.525   6.069  20.277  0.00  0.00    +0.000 OA
ENDBRANCH  23  30
ENDBRANCH  19  27
ENDBRANCH   1  21
TORSDOF 4
ENDMDL
MODEL 7
REMARK VINA RESULT:      -7.3      4.674     10.690
REMARK  Name = 
REMARK  7 active torsions:
REMARK  status: ('A' for Active; 'I' for Inactive)
REMARK    1  A    between atoms: C_1  and  O_2
REMARK    2  A    between atoms: O_2  and  C_3
REMARK    3  A    between atoms: C_7  and  C_8
REMARK    4  A    between atoms: N_10  and  C_11
REMARK    5  A    between atoms: C_16  and  N_17
REMARK    6  A    between atoms: N_23  and  C_24
REMARK    7  A    between atoms: N_27  and  C_28
REMARK                            x       y       z     vdW  Elec       q    Type
REMARK                         _______ _______ _______ _____ _____    ______ ____
ROOT
ATOM      1  C   UNL     1      -0.886  12.395  22.369  0.00  0.00    +0.000 A 
ATOM      2  C   UNL     1      -2.141  12.238  23.007  0.00  0.00    +0.000 A 
ATOM      3  C   UNL     1      -2.766  13.372  23.488  0.00  0.00    +0.000 A 
ATOM      4  C   UNL     1      -2.083  14.573  23.612  0.00  0.00    +0.000 A 
ATOM      5  C   UNL     1      -0.865  14.765  22.996  0.00  0.00    +0.000 A 
ATOM      6  C   UNL     1      -0.324  13.708  22.213  0.00  0.00    +0.000 A 
ATOM      7  N   UNL     1      -2.953  15.568  24.140  0.00  0.00    +0.000 N 
ATOM      8  C   UNL     1      -2.770  15.871  25.557  0.00  0.00    +0.000 C 
ATOM      9  C   UNL     1      -4.271  15.023  23.992  0.00  0.00    +0.000 A 
ATOM     10  O   UNL     1      -5.319  15.617  24.202  0.00  0.00    +0.000 OA
ATOM     11  N   UNL     1      -4.108  13.642  23.775  0.00  0.00    +0.000 N 
ATOM     12  C   UNL     1      -5.096  12.745  24.267  0.00  0.00    +0.000 C 
ENDROOT
BRANCH   6  13
ATOM     13  N   UNL     1       0.485  14.082  21.124  0.00  0.00    +0.000 N 
ATOM     14  C   UNL     1      -0.206  14.679  19.960  0.00  0.00    +0.000 C 
ATOM     15  C   UNL     1       0.102  13.915  18.672  0.00  0.00    +0.000 C 
ATOM     16  C   UNL     1       1.602  13.766  18.459  0.00  0.00    +0.000 C 
ATOM     17  C   UNL     1       2.252  13.131  19.688  0.00  0.00    +0.000 C 
ATOM     18  C   UNL     1       1.924  13.912  20.966  0.00  0.00    +0.000 C 
ENDBRANCH   6  13
BRANCH   1  21
ATOM     19  C   UNL     1      -0.450  10.677  20.630  0.00  0.00    +0.000 C 
ATOM     20  O   UNL     1      -1.286  11.052  19.803  0.00  0.00    +0.000 OA
ATOM     21  N   UNL     1      -0.205  11.262  21.856  0.00  0.00    +0.000 N 
ATOM     22  H   UNL     1       0.658  11.026  22.306  0.00  0.00    +0.000 HD
BRANCH  19  27
ATOM     23  C   UNL     1       2.006   8.455  18.749  0.00  0.00    +0.000 A 
ATOM     24  C   UNL     1       2.204   7.442  19.685  0.00  0.00    +0.000 A 
ATOM     25  C   UNL     1       1.535   7.482  20.914  0.00  0.00    +0.000 A 
ATOM     26  C   UNL     1       0.677   8.550  21.199  0.00  0.00    +0.000 A 
ATOM     27  C   UNL     1       0.462   9.549  20.259  0.00  0.00    +0.000 A 
ATOM     28  C   UNL     1       1.134   9.517  19.031  0.00  0.00    +0.000 A 
BRANCH  23  30
ATOM     29  C   UNL     1       3.696   7.249  17.574  0.00  0.00    +0.000 C 
ATOM     30  O   UNL     1       2.736   8.297  17.598  0.00  0.00    +0.000 OA
ENDBRANCH  23  30
ENDBRANCH  19  27
ENDBRANCH   1  21
TORSDOF 4
ENDMDL
MODEL 8
REMARK VINA RESULT:      -7.3      3.767      8.761
REMARK  Name = 
REMARK  7 active torsions:
REMARK  status: ('A' for Active; 'I' for Inactive)
REMARK    1  A    between atoms: C_1  and  O_2
REMARK    2  A    between atoms: O_2  and  C_3
REMARK    3  A    between atoms: C_7  and  C_8
REMARK    4  A    between atoms: N_10  and  C_11
REMARK    5  A    between atoms: C_16  and  N_17
REMARK    6  A    between atoms: N_23  and  C_24
REMARK    7  A    between atoms: N_27  and  C_28
REMARK                            x       y       z     vdW  Elec       q    Type
REMARK                         _______ _______ _______ _____ _____    ______ ____
ROOT
ATOM      1  C   UNL     1       0.785  11.570  19.428  0.00  0.00    +0.000 A 
ATOM      2  C   UNL     1       1.535  12.492  20.200  0.00  0.00    +0.000 A 
ATOM      3  C   UNL     1       1.150  13.818  20.172  0.00  0.00    +0.000 A 
ATOM      4  C   UNL     1       0.261  14.291  19.217  0.00  0.00    +0.000 A 
ATOM      5  C   UNL     1      -0.494  13.423  18.458  0.00  0.00    +0.000 A 
ATOM      6  C   UNL     1      -0.355  12.025  18.681  0.00  0.00    +0.000 A 
ATOM      7  N   UNL     1       0.047  15.685  19.408  0.00  0.00    +0.000 N 
ATOM      8  C   UNL     1       0.760  16.560  18.481  0.00  0.00    +0.000 C 
ATOM      9  C   UNL     1       0.554  15.961  20.721  0.00  0.00    +0.000 A 
ATOM     10  O   UNL     1       0.441  17.019  21.324  0.00  0.00    +0.000 OA
ATOM     11  N   UNL     1       1.371  14.869  21.069  0.00  0.00    +0.000 N 
ATOM     12  C   UNL     1       2.509  15.094  21.892  0.00  0.00    +0.000 C 
ENDROOT
BRANCH   6  13
ATOM     13  N   UNL     1      -1.493  11.234  18.442  0.00  0.00    +0.000 N 
ATOM     14  C   UNL     1      -1.345  10.145  17.450  0.00  0.00    +0.000 C 
ATOM     15  C   UNL     1      -2.388  10.255  16.337  0.00  0.00    +0.000 C 
ATOM     16  C   UNL     1      -3.797  10.355  16.903  0.00  0.00    +0.000 C 
ATOM     17  C   UNL     1      -3.886  11.505  17.905  0.00  0.00    +0.000 C 
ATOM     18  C   UNL     1      -2.829  11.374  19.008  0.00  0.00    +0.000 C 
ENDBRANCH   6  13
BRANCH   1  21
ATOM     19  C   UNL     1       1.901   9.577  18.454  0.00  0.00    +0.000 C 
ATOM     20  O   UNL     1       2.390  10.120  17.460  0.00  0.00    +0.000 OA
ATOM     21  N   UNL     1       1.138  10.197  19.425  0.00  0.00    +0.000 N 
ATOM     22  H   UNL     1       1.028   9.712  20.293  0.00  0.00    +0.000 HD
BRANCH  19  27
ATOM     23  C   UNL     1       2.132   6.133  20.066  0.00  0.00    +0.000 A 
ATOM     24  C   UNL     1       2.815   5.431  19.075  0.00  0.00    +0.000 A 
ATOM     25  C   UNL     1       3.202   6.080  17.896  0.00  0.00    +0.000 A 
ATOM     26  C   UNL     1       2.889   7.432  17.717  0.00  0.00    +0.000 A 
ATOM     27  C   UNL     1       2.228   8.138  18.713  0.00  0.00    +0.000 A 
ATOM     28  C   UNL     1       1.832   7.493  19.890  0.00  0.00    +0.000 A 
BRANCH  23  30
ATOM     29  C   UNL     1       2.163   3.997  21.126  0.00  0.00    +0.000 C 
ATOM     30  O   UNL     1       1.801   5.371  21.157  0.00  0.00    +0.000 OA
ENDBRANCH  23  30
ENDBRANCH  19  27
ENDBRANCH   1  21
TORSDOF 4
ENDMDL
MODEL 9
REMARK VINA RESULT:      -7.2      4.585      9.355
REMARK  Name = 
REMARK  7 active torsions:
REMARK  status: ('A' for Active; 'I' for Inactive)
REMARK    1  A    between atoms: C_1  and  O_2
REMARK    2  A    between atoms: O_2  and  C_3
REMARK    3  A    between atoms: C_7  and  C_8
REMARK    4  A    between atoms: N_10  and  C_11
REMARK    5  A    between atoms: C_16  and  N_17
REMARK    6  A    between atoms: N_23  and  C_24
REMARK    7  A    between atoms: N_27  and  C_28
REMARK                            x       y       z     vdW  Elec       q    Type
REMARK                         _______ _______ _______ _____ _____    ______ ____
ROOT
ATOM      1  C   UNL     1       0.971  12.916  19.467  0.00  0.00    +0.000 A 
ATOM      2  C   UNL     1       1.895  13.845  18.927  0.00  0.00    +0.000 A 
ATOM      3  C   UNL     1       1.502  15.166  18.839  0.00  0.00    +0.000 A 
ATOM      4  C   UNL     1       0.173  15.534  18.992  0.00  0.00    +0.000 A 
ATOM      5  C   UNL     1      -0.750  14.660  19.525  0.00  0.00    +0.000 A 
ATOM      6  C   UNL     1      -0.310  13.370  19.931  0.00  0.00    +0.000 A 
ATOM      7  N   UNL     1       0.045  16.944  18.842  0.00  0.00    +0.000 N 
ATOM      8  C   UNL     1      -0.480  17.391  17.555  0.00  0.00    +0.000 C 
ATOM      9  C   UNL     1       1.382  17.451  18.951  0.00  0.00    +0.000 A 
ATOM     10  O   UNL     1       1.698  18.631  19.010  0.00  0.00    +0.000 OA
ATOM     11  N   UNL     1       2.240  16.351  18.760  0.00  0.00    +0.000 N 
ATOM     12  C   UNL     1       3.498  16.560  18.129  0.00  0.00    +0.000 C 
ENDROOT
BRANCH   6  13
ATOM     13  N   UNL     1      -1.003  12.778  21.003  0.00  0.00    +0.000 N 
ATOM     14  C   UNL     1      -2.349  12.240  20.705  0.00  0.00    +0.000 C 
ATOM     15  C   UNL     1      -3.410  12.842  21.625  0.00  0.00    +0.000 C 
ATOM     16  C   UNL     1      -3.024  12.696  23.091  0.00  0.00    +0.000 C 
ATOM     17  C   UNL     1      -1.635  13.284  23.334  0.00  0.00    +0.000 C 
ATOM     18  C   UNL     1      -0.590  12.667  22.396  0.00  0.00    +0.000 C 
ENDBRANCH   6  13
BRANCH   1  21
ATOM     19  C   UNL     1       0.700  10.507  18.925  0.00  0.00    +0.000 C 
ATOM     20  O   UNL     1      -0.250  10.612  18.143  0.00  0.00    +0.000 OA
ATOM     21  N   UNL     1       1.327  11.548  19.581  0.00  0.00    +0.000 N 
ATOM     22  H   UNL     1       2.229  11.359  19.972  0.00  0.00    +0.000 HD
BRANCH  19  27
ATOM     23  C   UNL     1       2.646   7.280  18.372  0.00  0.00    +0.000 A 
ATOM     24  C   UNL     1       2.484   6.667  19.613  0.00  0.00    +0.000 A 
ATOM     25  C   UNL     1       1.738   7.299  20.616  0.00  0.00    +0.000 A 
ATOM     26  C   UNL     1       1.170   8.553  20.367  0.00  0.00    +0.000 A 
ATOM     27  C   UNL     1       1.313   9.156  19.124  0.00  0.00    +0.000 A 
ATOM     28  C   UNL     1       2.063   8.531  18.121  0.00  0.00    +0.000 A 
BRANCH  23  30
ATOM     29  C   UNL     1       3.945   5.323  17.954  0.00  0.00    +0.000 C 
ATOM     30  O   UNL     1       3.412   6.558  17.493  0.00  0.00    +0.000 OA
ENDBRANCH  23  30
ENDBRANCH  19  27
ENDBRANCH   1  21
TORSDOF 4
ENDMDL
