MODEL 1
REMARK VINA RESULT:      -8.7      0.000      0.000
REMARK  Name = 
REMARK  7 active torsions:
REMARK  status: ('A' for Active; 'I' for Inactive)
REMARK    1  A    between atoms: C_2  and  C_4
REMARK    2  A    between atoms: C_4  and  S_5
REMARK    3  A    between atoms: S_5  and  C_6
REMARK    4  A    between atoms: C_16  and  C_17
REMARK    5  A    between atoms: C_17  and  C_18
REMARK    6  A    between atoms: N_20  and  C_21
REMARK    7  A    between atoms: C_21  and  C_22
REMARK                            x       y       z     vdW  Elec       q    Type
REMARK                         _______ _______ _______ _____ _____    ______ ____
ROOT
ATOM      1  C   UNL     1       5.283   4.535  18.363  0.00  0.00    +0.000 C 
ATOM      2  N   UNL     1       5.044   3.477  19.096  0.00  0.00    +0.000 NA
ATOM      3  C   UNL     1       3.815   3.394  19.791  0.00  0.00    +0.000 A 
ATOM      4  C   UNL     1       3.535   2.389  20.718  0.00  0.00    +0.000 A 
ATOM      5  C   UNL     1       2.333   2.407  21.464  0.00  0.00    +0.000 A 
ATOM      6  C   UNL     1       1.391   3.416  21.291  0.00  0.00    +0.000 A 
ATOM      7  C   UNL     1       1.629   4.382  20.340  0.00  0.00    +0.000 A 
ATOM      8  C   UNL     1       2.824   4.336  19.609  0.00  0.00    +0.000 A 
ATOM      9  C   UNL     1       3.141   5.463  18.777  0.00  0.00    +0.000 C 
ATOM     10  N   UNL     1       2.265   6.395  18.619  0.00  0.00    +0.000 NA
ATOM     11  C   UNL     1       3.086   7.544  18.241  0.00  0.00    +0.000 C 
ATOM     12  C   UNL     1       4.335   6.868  17.621  0.00  0.00    +0.000 C 
ATOM     13  O   UNL     1       5.121   7.384  16.846  0.00  0.00    +0.000 OA
ATOM     14  N   UNL     1       4.370   5.602  18.232  0.00  0.00    +0.000 N 
ENDROOT
BRANCH   1  15
ATOM     15  S   UNL     1       6.722   4.452  17.374  0.00  0.00    +0.000 S 
BRANCH  15  16
ATOM     16  C   UNL     1       6.269   3.714  15.799  0.00  0.00    +0.000 C 
BRANCH  16  18
ATOM     17  N   UNL     1       7.531   5.502  14.658  0.00  0.00    +0.000 N 
ATOM     18  C   UNL     1       6.663   4.460  14.543  0.00  0.00    +0.000 C 
ATOM     19  O   UNL     1       6.315   4.081  13.426  0.00  0.00    +0.000 OA
ATOM     20  H   UNL     1       7.812   5.976  13.807  0.00  0.00    +0.000 HD
ATOM     21  H   UNL     1       7.788   5.907  15.548  0.00  0.00    +0.000 HD
ENDBRANCH  16  18
ENDBRANCH  15  16
ENDBRANCH   1  15
BRANCH  11  22
ATOM     22  C   UNL     1       2.145   8.500  17.552  0.00  0.00    +0.000 C 
BRANCH  22  23
ATOM     23  C   UNL     1       1.397   9.355  18.539  0.00  0.00    +0.000 C 
ATOM     24  O   UNL     1       1.426   9.188  19.751  0.00  0.00    +0.000 OA
ATOM     25  N   UNL     1       0.677  10.353  17.908  0.00  0.00    +0.000 N 
ATOM     26  H   UNL     1       0.761  10.503  16.921  0.00  0.00    +0.000 HD
BRANCH  25  27
ATOM     27  C   UNL     1      -0.232  11.206  18.648  0.00  0.00    +0.000 C 
BRANCH  27  28
ATOM     28  C   UNL     1      -1.618  10.911  18.197  0.00  0.00    +0.000 A 
ATOM     29  C   UNL     1      -2.034   9.934  17.316  0.00  0.00    +0.000 A 
ATOM     30  C   UNL     1      -3.444   9.955  17.116  0.00  0.00    +0.000 A 
ATOM     31  C   UNL     1      -4.055  10.939  17.860  0.00  0.00    +0.000 A 
ATOM     32  S   UNL     1      -2.936  11.834  18.788  0.00  0.00    +0.000 S 
ENDBRANCH  27  28
ENDBRANCH  25  27
ENDBRANCH  22  23
ENDBRANCH  11  22
TORSDOF 7
ENDMDL
MODEL 2
REMARK VINA RESULT:      -8.5      2.502      4.220
REMARK  Name = 
REMARK  7 active torsions:
REMARK  status: ('A' for Active; 'I' for Inactive)
REMARK    1  A    between atoms: C_2  and  C_4
REMARK    2  A    between atoms: C_4  and  S_5
REMARK    3  A    between atoms: S_5  and  C_6
REMARK    4  A    between atoms: C_16  and  C_17
REMARK    5  A    between atoms: C_17  and  C_18
REMARK    6  A    between atoms: N_20  and  C_21
REMARK    7  A    between atoms: C_21  and  C_22
REMARK                            x       y       z     vdW  Elec       q    Type
REMARK                         _______ _______ _______ _____ _____    ______ ____
ROOT
ATOM      1  C   UNL     1       3.243   4.859  19.254  0.00  0.00    +0.000 C 
ATOM      2  N   UNL     1       4.019   4.030  18.602  0.00  0.00    +0.000 NA
ATOM      3  C   UNL     1       4.652   4.478  17.419  0.00  0.00    +0.000 A 
ATOM      4  C   UNL     1       5.365   3.628  16.572  0.00  0.00    +0.000 A 
ATOM      5  C   UNL     1       5.892   4.101  15.347  0.00  0.00    +0.000 A 
ATOM      6  C   UNL     1       5.725   5.425  14.953  0.00  0.00    +0.000 A 
ATOM      7  C   UNL     1       5.072   6.288  15.804  0.00  0.00    +0.000 A 
ATOM      8  C   UNL     1       4.568   5.795  17.016  0.00  0.00    +0.000 A 
ATOM      9  C   UNL     1       3.716   6.659  17.785  0.00  0.00    +0.000 C 
ATOM     10  N   UNL     1       3.565   7.884  17.416  0.00  0.00    +0.000 NA
ATOM     11  C   UNL     1       2.285   8.245  18.025  0.00  0.00    +0.000 C 
ATOM     12  C   UNL     1       2.205   7.270  19.226  0.00  0.00    +0.000 C 
ATOM     13  O   UNL     1       1.525   7.418  20.227  0.00  0.00    +0.000 OA
ATOM     14  N   UNL     1       3.005   6.183  18.831  0.00  0.00    +0.000 N 
ENDROOT
BRANCH   1  15
ATOM     15  S   UNL     1       2.683   4.294  20.810  0.00  0.00    +0.000 S 
BRANCH  15  16
ATOM     16  C   UNL     1       1.327   3.148  20.527  0.00  0.00    +0.000 C 
BRANCH  16  18
ATOM     17  N   UNL     1       2.159   1.476  18.913  0.00  0.00    +0.000 N 
ATOM     18  C   UNL     1       1.264   2.466  19.178  0.00  0.00    +0.000 C 
ATOM     19  O   UNL     1       0.365   2.702  18.372  0.00  0.00    +0.000 OA
ATOM     20  H   UNL     1       2.088   1.005  18.019  0.00  0.00    +0.000 HD
ATOM     21  H   UNL     1       2.962   1.292  19.499  0.00  0.00    +0.000 HD
ENDBRANCH  16  18
ENDBRANCH  15  16
ENDBRANCH   1  15
BRANCH  11  22
ATOM     22  C   UNL     1       2.282   9.752  18.088  0.00  0.00    +0.000 C 
BRANCH  22  23
ATOM     23  C   UNL     1       1.079  10.277  18.822  0.00  0.00    +0.000 C 
ATOM     24  O   UNL     1       1.128  10.831  19.913  0.00  0.00    +0.000 OA
ATOM     25  N   UNL     1      -0.087  10.061  18.111  0.00  0.00    +0.000 N 
ATOM     26  H   UNL     1      -0.063   9.688  17.182  0.00  0.00    +0.000 HD
BRANCH  25  27
ATOM     27  C   UNL     1      -1.385  10.355  18.689  0.00  0.00    +0.000 C 
BRANCH  27  28
ATOM     28  C   UNL     1      -2.363  10.512  17.580  0.00  0.00    +0.000 A 
ATOM     29  C   UNL     1      -2.293   9.987  16.305  0.00  0.00    +0.000 A 
ATOM     30  C   UNL     1      -3.415  10.357  15.510  0.00  0.00    +0.000 A 
ATOM     31  C   UNL     1      -4.306  11.141  16.207  0.00  0.00    +0.000 A 
ATOM     32  S   UNL     1      -3.790  11.433  17.809  0.00  0.00    +0.000 S 
ENDBRANCH  27  28
ENDBRANCH  25  27
ENDBRANCH  22  23
ENDBRANCH  11  22
TORSDOF 7
ENDMDL
MODEL 3
REMARK VINA RESULT:      -8.5      2.156      2.438
REMARK  Name = 
REMARK  7 active torsions:
REMARK  status: ('A' for Active; 'I' for Inactive)
REMARK    1  A    between atoms: C_2  and  C_4
REMARK    2  A    between atoms: C_4  and  S_5
REMARK    3  A    between atoms: S_5  and  C_6
REMARK    4  A    between atoms: C_16  and  C_17
REMARK    5  A    between atoms: C_17  and  C_18
REMARK    6  A    between atoms: N_20  and  C_21
REMARK    7  A    between atoms: C_21  and  C_22
REMARK                            x       y       z     vdW  Elec       q    Type
REMARK                         _______ _______ _______ _____ _____    ______ ____
ROOT
ATOM      1  C   UNL     1       5.112   4.596  18.240  0.00  0.00    +0.000 C 
ATOM      2  N   UNL     1       4.974   3.550  19.016  0.00  0.00    +0.000 NA
ATOM      3  C   UNL     1       3.802   3.432  19.799  0.00  0.00    +0.000 A 
ATOM      4  C   UNL     1       3.634   2.443  20.770  0.00  0.00    +0.000 A 
ATOM      5  C   UNL     1       2.489   2.430  21.600  0.00  0.00    +0.000 A 
ATOM      6  C   UNL     1       1.492   3.392  21.470  0.00  0.00    +0.000 A 
ATOM      7  C   UNL     1       1.618   4.340  20.480  0.00  0.00    +0.000 A 
ATOM      8  C   UNL     1       2.759   4.325  19.665  0.00  0.00    +0.000 A 
ATOM      9  C   UNL     1       2.964   5.440  18.785  0.00  0.00    +0.000 C 
ATOM     10  N   UNL     1       2.038   6.329  18.668  0.00  0.00    +0.000 NA
ATOM     11  C   UNL     1       2.778   7.501  18.202  0.00  0.00    +0.000 C 
ATOM     12  C   UNL     1       4.008   6.863  17.510  0.00  0.00    +0.000 C 
ATOM     13  O   UNL     1       4.713   7.391  16.668  0.00  0.00    +0.000 OA
ATOM     14  N   UNL     1       4.144   5.617  18.149  0.00  0.00    +0.000 N 
ENDROOT
BRANCH   1  15
ATOM     15  S   UNL     1       6.479   4.547  17.153  0.00  0.00    +0.000 S 
BRANCH  15  16
ATOM     16  C   UNL     1       5.859   4.215  15.499  0.00  0.00    +0.000 C 
BRANCH  16  18
ATOM     17  N   UNL     1       6.638   3.730  13.207  0.00  0.00    +0.000 N 
ATOM     18  C   UNL     1       6.800   4.466  14.341  0.00  0.00    +0.000 C 
ATOM     19  O   UNL     1       7.619   5.383  14.356  0.00  0.00    +0.000 OA
ATOM     20  H   UNL     1       7.253   3.927  12.426  0.00  0.00    +0.000 HD
ATOM     21  H   UNL     1       6.039   2.917  13.162  0.00  0.00    +0.000 HD
ENDBRANCH  16  18
ENDBRANCH  15  16
ENDBRANCH   1  15
BRANCH  11  22
ATOM     22  C   UNL     1       1.747   8.396  17.559  0.00  0.00    +0.000 C 
BRANCH  22  23
ATOM     23  C   UNL     1       1.824   9.803  18.085  0.00  0.00    +0.000 C 
ATOM     24  O   UNL     1       2.529  10.679  17.602  0.00  0.00    +0.000 OA
ATOM     25  N   UNL     1       0.997   9.985  19.179  0.00  0.00    +0.000 N 
ATOM     26  H   UNL     1       0.371   9.262  19.478  0.00  0.00    +0.000 HD
BRANCH  25  27
ATOM     27  C   UNL     1       1.016  11.221  19.937  0.00  0.00    +0.000 C 
BRANCH  27  28
ATOM     28  C   UNL     1       0.233  11.013  21.185  0.00  0.00    +0.000 A 
ATOM     29  C   UNL     1      -0.567  11.923  21.846  0.00  0.00    +0.000 A 
ATOM     30  C   UNL     1      -1.157  11.369  23.017  0.00  0.00    +0.000 A 
ATOM     31  C   UNL     1      -0.797  10.053  23.202  0.00  0.00    +0.000 A 
ATOM     32  S   UNL     1       0.250   9.493  21.975  0.00  0.00    +0.000 S 
ENDBRANCH  27  28
ENDBRANCH  25  27
ENDBRANCH  22  23
ENDBRANCH  11  22
TORSDOF 7
ENDMDL
MODEL 4
REMARK VINA RESULT:      -8.4      1.532      1.686
REMARK  Name = 
REMARK  7 active torsions:
REMARK  status: ('A' for Active; 'I' for Inactive)
REMARK    1  A    between atoms: C_2  and  C_4
REMARK    2  A    between atoms: C_4  and  S_5
REMARK    3  A    between atoms: S_5  and  C_6
REMARK    4  A    between atoms: C_16  and  C_17
REMARK    5  A    between atoms: C_17  and  C_18
REMARK    6  A    between atoms: N_20  and  C_21
REMARK    7  A    between atoms: C_21  and  C_22
REMARK                            x       y       z     vdW  Elec       q    Type
REMARK                         _______ _______ _______ _____ _____    ______ ____
ROOT
ATOM      1  C   UNL     1       4.433   4.273  17.042  0.00  0.00    +0.000 C 
ATOM      2  N   UNL     1       4.068   3.195  17.691  0.00  0.00    +0.000 NA
ATOM      3  C   UNL     1       3.056   3.302  18.673  0.00  0.00    +0.000 A 
ATOM      4  C   UNL     1       2.711   2.251  19.525  0.00  0.00    +0.000 A 
ATOM      5  C   UNL     1       1.766   2.438  20.560  0.00  0.00    +0.000 A 
ATOM      6  C   UNL     1       1.144   3.667  20.756  0.00  0.00    +0.000 A 
ATOM      7  C   UNL     1       1.432   4.697  19.889  0.00  0.00    +0.000 A 
ATOM      8  C   UNL     1       2.367   4.482  18.866  0.00  0.00    +0.000 A 
ATOM      9  C   UNL     1       2.802   5.622  18.110  0.00  0.00    +0.000 C 
ATOM     10  N   UNL     1       2.223   6.758  18.295  0.00  0.00    +0.000 NA
ATOM     11  C   UNL     1       3.236   7.711  17.842  0.00  0.00    +0.000 C 
ATOM     12  C   UNL     1       4.062   6.863  16.842  0.00  0.00    +0.000 C 
ATOM     13  O   UNL     1       4.770   7.295  15.948  0.00  0.00    +0.000 OA
ATOM     14  N   UNL     1       3.863   5.541  17.277  0.00  0.00    +0.000 N 
ENDROOT
BRANCH   1  15
ATOM     15  S   UNL     1       5.525   4.007  15.704  0.00  0.00    +0.000 S 
BRANCH  15  16
ATOM     16  C   UNL     1       7.115   4.727  16.137  0.00  0.00    +0.000 C 
BRANCH  16  18
ATOM     17  N   UNL     1       7.189   4.369  18.578  0.00  0.00    +0.000 N 
ATOM     18  C   UNL     1       7.279   5.252  17.546  0.00  0.00    +0.000 C 
ATOM     19  O   UNL     1       7.601   6.418  17.772  0.00  0.00    +0.000 OA
ATOM     20  H   UNL     1       7.331   4.726  19.516  0.00  0.00    +0.000 HD
ATOM     21  H   UNL     1       6.853   3.423  18.462  0.00  0.00    +0.000 HD
ENDBRANCH  16  18
ENDBRANCH  15  16
ENDBRANCH   1  15
BRANCH  11  22
ATOM     22  C   UNL     1       2.484   8.982  17.538  0.00  0.00    +0.000 C 
BRANCH  22  23
ATOM     23  C   UNL     1       1.415   9.256  18.561  0.00  0.00    +0.000 C 
ATOM     24  O   UNL     1       1.530   9.011  19.755  0.00  0.00    +0.000 OA
ATOM     25  N   UNL     1       0.292   9.823  17.987  0.00  0.00    +0.000 N 
ATOM     26  H   UNL     1       0.285  10.089  17.022  0.00  0.00    +0.000 HD
BRANCH  25  27
ATOM     27  C   UNL     1      -0.917  10.040  18.759  0.00  0.00    +0.000 C 
BRANCH  27  28
ATOM     28  C   UNL     1      -2.015  10.382  17.815  0.00  0.00    +0.000 A 
ATOM     29  C   UNL     1      -2.243   9.867  16.556  0.00  0.00    +0.000 A 
ATOM     30  C   UNL     1      -3.392  10.440  15.940  0.00  0.00    +0.000 A 
ATOM     31  C   UNL     1      -4.007  11.363  16.756  0.00  0.00    +0.000 A 
ATOM     32  S   UNL     1      -3.200  11.541  18.251  0.00  0.00    +0.000 S 
ENDBRANCH  27  28
ENDBRANCH  25  27
ENDBRANCH  22  23
ENDBRANCH  11  22
TORSDOF 7
ENDMDL
MODEL 5
REMARK VINA RESULT:      -8.3      1.326      1.618
REMARK  Name = 
REMARK  7 active torsions:
REMARK  status: ('A' for Active; 'I' for Inactive)
REMARK    1  A    between atoms: C_2  and  C_4
REMARK    2  A    between atoms: C_4  and  S_5
REMARK    3  A    between atoms: S_5  and  C_6
REMARK    4  A    between atoms: C_16  and  C_17
REMARK    5  A    between atoms: C_17  and  C_18
REMARK    6  A    between atoms: N_20  and  C_21
REMARK    7  A    between atoms: C_21  and  C_22
REMARK                            x       y       z     vdW  Elec       q    Type
REMARK                         _______ _______ _______ _____ _____    ______ ____
ROOT
ATOM      1  C   UNL     1       4.797   4.381  17.808  0.00  0.00    +0.000 C 
ATOM      2  N   UNL     1       4.580   3.342  18.575  0.00  0.00    +0.000 NA
ATOM      3  C   UNL     1       3.486   3.372  19.470  0.00  0.00    +0.000 A 
ATOM      4  C   UNL     1       3.267   2.388  20.435  0.00  0.00    +0.000 A 
ATOM      5  C   UNL     1       2.218   2.516  21.375  0.00  0.00    +0.000 A 
ATOM      6  C   UNL     1       1.368   3.617  21.362  0.00  0.00    +0.000 A 
ATOM      7  C   UNL     1       1.537   4.568  20.382  0.00  0.00    +0.000 A 
ATOM      8  C   UNL     1       2.578   4.412  19.456  0.00  0.00    +0.000 A 
ATOM      9  C   UNL     1       2.862   5.513  18.579  0.00  0.00    +0.000 C 
ATOM     10  N   UNL     1       2.071   6.530  18.571  0.00  0.00    +0.000 NA
ATOM     11  C   UNL     1       2.928   7.597  18.054  0.00  0.00    +0.000 C 
ATOM     12  C   UNL     1       3.977   6.807  17.231  0.00  0.00    +0.000 C 
ATOM     13  O   UNL     1       4.668   7.253  16.332  0.00  0.00    +0.000 OA
ATOM     14  N   UNL     1       3.987   5.535  17.831  0.00  0.00    +0.000 N 
ENDROOT
BRANCH   1  15
ATOM     15  S   UNL     1       6.030   4.167  16.588  0.00  0.00    +0.000 S 
BRANCH  15  16
ATOM     16  C   UNL     1       7.599   4.696  17.289  0.00  0.00    +0.000 C 
BRANCH  16  18
ATOM     17  N   UNL     1       7.514   7.160  17.172  0.00  0.00    +0.000 N 
ATOM     18  C   UNL     1       7.640   6.054  17.955  0.00  0.00    +0.000 C 
ATOM     19  O   UNL     1       7.667   6.177  19.179  0.00  0.00    +0.000 OA
ATOM     20  H   UNL     1       7.512   8.063  17.632  0.00  0.00    +0.000 HD
ATOM     21  H   UNL     1       7.566   7.127  16.163  0.00  0.00    +0.000 HD
ENDBRANCH  16  18
ENDBRANCH  15  16
ENDBRANCH   1  15
BRANCH  11  22
ATOM     22  C   UNL     1       1.985   8.652  17.532  0.00  0.00    +0.000 C 
BRANCH  22  23
ATOM     23  C   UNL     1       1.347   9.431  18.651  0.00  0.00    +0.000 C 
ATOM     24  O   UNL     1       1.370   9.088  19.826  0.00  0.00    +0.000 OA
ATOM     25  N   UNL     1       0.737  10.582  18.187  0.00  0.00    +0.000 N 
ATOM     26  H   UNL     1       0.827  10.865  17.230  0.00  0.00    +0.000 HD
BRANCH  25  27
ATOM     27  C   UNL     1      -0.063  11.414  19.066  0.00  0.00    +0.000 C 
BRANCH  27  28
ATOM     28  C   UNL     1      -1.487  11.293  18.651  0.00  0.00    +0.000 A 
ATOM     29  C   UNL     1      -2.015  10.501  17.653  0.00  0.00    +0.000 A 
ATOM     30  C   UNL     1      -3.426  10.652  17.537  0.00  0.00    +0.000 A 
ATOM     31  C   UNL     1      -3.926  11.545  18.457  0.00  0.00    +0.000 A 
ATOM     32  S   UNL     1      -2.701  12.200  19.451  0.00  0.00    +0.000 S 
ENDBRANCH  27  28
ENDBRANCH  25  27
ENDBRANCH  22  23
ENDBRANCH  11  22
TORSDOF 7
ENDMDL
MODEL 6
REMARK VINA RESULT:      -8.3      2.307      3.175
REMARK  Name = 
REMARK  7 active torsions:
REMARK  status: ('A' for Active; 'I' for Inactive)
REMARK    1  A    between atoms: C_2  and  C_4
REMARK    2  A    between atoms: C_4  and  S_5
REMARK    3  A    between atoms: S_5  and  C_6
REMARK    4  A    between atoms: C_16  and  C_17
REMARK    5  A    between atoms: C_17  and  C_18
REMARK    6  A    between atoms: N_20  and  C_21
REMARK    7  A    between atoms: C_21  and  C_22
REMARK                            x       y       z     vdW  Elec       q    Type
REMARK                         _______ _______ _______ _____ _____    ______ ____
ROOT
ATOM      1  C   UNL     1       4.896   4.472  18.042  0.00  0.00    +0.000 C 
ATOM      2  N   UNL     1       4.684   3.419  18.791  0.00  0.00    +0.000 NA
ATOM      3  C   UNL     1       3.540   3.394  19.622  0.00  0.00    +0.000 A 
ATOM      4  C   UNL     1       3.312   2.394  20.569  0.00  0.00    +0.000 A 
ATOM      5  C   UNL     1       2.206   2.468  21.449  0.00  0.00    +0.000 A 
ATOM      6  C   UNL     1       1.309   3.529  21.392  0.00  0.00    +0.000 A 
ATOM      7  C   UNL     1       1.490   4.494  20.427  0.00  0.00    +0.000 A 
ATOM      8  C   UNL     1       2.588   4.392  19.562  0.00  0.00    +0.000 A 
ATOM      9  C   UNL     1       2.871   5.510  18.707  0.00  0.00    +0.000 C 
ATOM     10  N   UNL     1       2.036   6.491  18.658  0.00  0.00    +0.000 NA
ATOM     11  C   UNL     1       2.872   7.598  18.195  0.00  0.00    +0.000 C 
ATOM     12  C   UNL     1       4.001   6.863  17.430  0.00  0.00    +0.000 C 
ATOM     13  O   UNL     1       4.721   7.346  16.574  0.00  0.00    +0.000 OA
ATOM     14  N   UNL     1       4.035   5.589  18.025  0.00  0.00    +0.000 N 
ENDROOT
BRANCH   1  15
ATOM     15  S   UNL     1       6.205   4.323  16.894  0.00  0.00    +0.000 S 
BRANCH  15  16
ATOM     16  C   UNL     1       7.746   4.630  17.768  0.00  0.00    +0.000 C 
BRANCH  16  18
ATOM     17  N   UNL     1       7.908   6.999  18.441  0.00  0.00    +0.000 N 
ATOM     18  C   UNL     1       7.738   5.707  18.832  0.00  0.00    +0.000 C 
ATOM     19  O   UNL     1       7.472   5.458  20.006  0.00  0.00    +0.000 OA
ATOM     20  H   UNL     1       7.871   7.716  19.157  0.00  0.00    +0.000 HD
ATOM     21  H   UNL     1       8.205   7.257  17.510  0.00  0.00    +0.000 HD
ENDBRANCH  16  18
ENDBRANCH  15  16
ENDBRANCH   1  15
BRANCH  11  22
ATOM     22  C   UNL     1       1.913   8.614  17.625  0.00  0.00    +0.000 C 
BRANCH  22  23
ATOM     23  C   UNL     1       1.417   9.565  18.680  0.00  0.00    +0.000 C 
ATOM     24  O   UNL     1       1.165   9.240  19.833  0.00  0.00    +0.000 OA
ATOM     25  N   UNL     1       1.286  10.851  18.187  0.00  0.00    +0.000 N 
ATOM     26  H   UNL     1       1.594  11.082  17.263  0.00  0.00    +0.000 HD
BRANCH  25  27
ATOM     27  C   UNL     1       0.688  11.903  18.986  0.00  0.00    +0.000 C 
BRANCH  27  28
ATOM     28  C   UNL     1       1.439  13.162  18.733  0.00  0.00    +0.000 A 
ATOM     29  C   UNL     1       2.695  13.305  18.181  0.00  0.00    +0.000 A 
ATOM     30  C   UNL     1       3.095  14.669  18.100  0.00  0.00    +0.000 A 
ATOM     31  C   UNL     1       2.127  15.520  18.582  0.00  0.00    +0.000 A 
ATOM     32  S   UNL     1       0.746  14.678  19.133  0.00  0.00    +0.000 S 
ENDBRANCH  27  28
ENDBRANCH  25  27
ENDBRANCH  22  23
ENDBRANCH  11  22
TORSDOF 7
ENDMDL
MODEL 7
REMARK VINA RESULT:      -8.3      2.890      4.697
REMARK  Name = 
REMARK  7 active torsions:
REMARK  status: ('A' for Active; 'I' for Inactive)
REMARK    1  A    between atoms: C_2  and  C_4
REMARK    2  A    between atoms: C_4  and  S_5
REMARK    3  A    between atoms: S_5  and  C_6
REMARK    4  A    between atoms: C_16  and  C_17
REMARK    5  A    between atoms: C_17  and  C_18
REMARK    6  A    between atoms: N_20  and  C_21
REMARK    7  A    between atoms: C_21  and  C_22
REMARK                            x       y       z     vdW  Elec       q    Type
REMARK                         _______ _______ _______ _____ _____    ______ ____
ROOT
ATOM      1  C   UNL     1       3.322   4.726  19.160  0.00  0.00    +0.000 C 
ATOM      2  N   UNL     1       4.108   3.929  18.481  0.00  0.00    +0.000 NA
ATOM      3  C   UNL     1       4.732   4.422  17.312  0.00  0.00    +0.000 A 
ATOM      4  C   UNL     1       5.456   3.609  16.438  0.00  0.00    +0.000 A 
ATOM      5  C   UNL     1       5.973   4.127  15.228  0.00  0.00    +0.000 A 
ATOM      6  C   UNL     1       5.787   5.460  14.875  0.00  0.00    +0.000 A 
ATOM      7  C   UNL     1       5.123   6.286  15.753  0.00  0.00    +0.000 A 
ATOM      8  C   UNL     1       4.628   5.750  16.950  0.00  0.00    +0.000 A 
ATOM      9  C   UNL     1       3.766   6.577  17.746  0.00  0.00    +0.000 C 
ATOM     10  N   UNL     1       3.597   7.810  17.415  0.00  0.00    +0.000 NA
ATOM     11  C   UNL     1       2.313   8.135  18.037  0.00  0.00    +0.000 C 
ATOM     12  C   UNL     1       2.249   7.121  19.208  0.00  0.00    +0.000 C 
ATOM     13  O   UNL     1       1.569   7.229  20.214  0.00  0.00    +0.000 OA
ATOM     14  N   UNL     1       3.064   6.059  18.779  0.00  0.00    +0.000 N 
ENDROOT
BRANCH   1  15
ATOM     15  S   UNL     1       2.773   4.105  20.699  0.00  0.00    +0.000 S 
BRANCH  15  16
ATOM     16  C   UNL     1       1.240   3.208  20.418  0.00  0.00    +0.000 C 
BRANCH  16  18
ATOM     17  N   UNL     1       2.194   1.507  18.905  0.00  0.00    +0.000 N 
ATOM     18  C   UNL     1       1.157   2.346  19.178  0.00  0.00    +0.000 C 
ATOM     19  O   UNL     1       0.142   2.301  18.484  0.00  0.00    +0.000 OA
ATOM     20  H   UNL     1       2.115   0.912  18.089  0.00  0.00    +0.000 HD
ATOM     21  H   UNL     1       3.080   1.554  19.389  0.00  0.00    +0.000 HD
ENDBRANCH  16  18
ENDBRANCH  15  16
ENDBRANCH   1  15
BRANCH  11  22
ATOM     22  C   UNL     1       2.289   9.639  18.147  0.00  0.00    +0.000 C 
BRANCH  22  23
ATOM     23  C   UNL     1       0.898  10.158  18.389  0.00  0.00    +0.000 C 
ATOM     24  O   UNL     1      -0.101   9.733  17.823  0.00  0.00    +0.000 OA
ATOM     25  N   UNL     1       0.887  11.169  19.333  0.00  0.00    +0.000 N 
ATOM     26  H   UNL     1       1.719  11.415  19.834  0.00  0.00    +0.000 HD
BRANCH  25  27
ATOM     27  C   UNL     1      -0.323  11.915  19.620  0.00  0.00    +0.000 C 
BRANCH  27  28
ATOM     28  C   UNL     1      -0.756  11.584  21.004  0.00  0.00    +0.000 A 
ATOM     29  C   UNL     1      -0.282  10.580  21.824  0.00  0.00    +0.000 A 
ATOM     30  C   UNL     1      -0.943  10.561  23.086  0.00  0.00    +0.000 A 
ATOM     31  C   UNL     1      -1.888  11.556  23.188  0.00  0.00    +0.000 A 
ATOM     32  S   UNL     1      -1.982  12.504  21.770  0.00  0.00    +0.000 S 
ENDBRANCH  27  28
ENDBRANCH  25  27
ENDBRANCH  22  23
ENDBRANCH  11  22
TORSDOF 7
ENDMDL
MODEL 8
REMARK VINA RESULT:      -8.3      1.213      1.356
REMARK  Name = 
REMARK  7 active torsions:
REMARK  status: ('A' for Active; 'I' for Inactive)
REMARK    1  A    between atoms: C_2  and  C_4
REMARK    2  A    between atoms: C_4  and  S_5
REMARK    3  A    between atoms: S_5  and  C_6
REMARK    4  A    between atoms: C_16  and  C_17
REMARK    5  A    between atoms: C_17  and  C_18
REMARK    6  A    between atoms: N_20  and  C_21
REMARK    7  A    between atoms: C_21  and  C_22
REMARK                            x       y       z     vdW  Elec       q    Type
REMARK                         _______ _______ _______ _____ _____    ______ ____
ROOT
ATOM      1  C   UNL     1       5.202   4.544  18.324  0.00  0.00    +0.000 C 
ATOM      2  N   UNL     1       4.980   3.509  19.095  0.00  0.00    +0.000 NA
ATOM      3  C   UNL     1       3.762   3.441  19.809  0.00  0.00    +0.000 A 
ATOM      4  C   UNL     1       3.500   2.465  20.772  0.00  0.00    +0.000 A 
ATOM      5  C   UNL     1       2.309   2.501  21.535  0.00  0.00    +0.000 A 
ATOM      6  C   UNL     1       1.359   3.499  21.343  0.00  0.00    +0.000 A 
ATOM      7  C   UNL     1       1.578   4.436  20.359  0.00  0.00    +0.000 A 
ATOM      8  C   UNL     1       2.762   4.373  19.611  0.00  0.00    +0.000 A 
ATOM      9  C   UNL     1       3.061   5.474  18.739  0.00  0.00    +0.000 C 
ATOM     10  N   UNL     1       2.178   6.396  18.565  0.00  0.00    +0.000 NA
ATOM     11  C   UNL     1       2.988   7.536  18.139  0.00  0.00    +0.000 C 
ATOM     12  C   UNL     1       4.231   6.847  17.522  0.00  0.00    +0.000 C 
ATOM     13  O   UNL     1       5.003   7.342  16.720  0.00  0.00    +0.000 OA
ATOM     14  N   UNL     1       4.282   5.601  18.173  0.00  0.00    +0.000 N 
ENDROOT
BRANCH   1  15
ATOM     15  S   UNL     1       6.628   4.437  17.318  0.00  0.00    +0.000 S 
BRANCH  15  16
ATOM     16  C   UNL     1       6.155   3.653  15.771  0.00  0.00    +0.000 C 
BRANCH  16  18
ATOM     17  N   UNL     1       6.284   3.728  13.307  0.00  0.00    +0.000 N 
ATOM     18  C   UNL     1       6.587   4.331  14.489  0.00  0.00    +0.000 C 
ATOM     19  O   UNL     1       7.095   5.452  14.485  0.00  0.00    +0.000 OA
ATOM     20  H   UNL     1       6.550   4.206  12.453  0.00  0.00    +0.000 HD
ATOM     21  H   UNL     1       5.940   2.780  13.247  0.00  0.00    +0.000 HD
ENDBRANCH  16  18
ENDBRANCH  15  16
ENDBRANCH   1  15
BRANCH  11  22
ATOM     22  C   UNL     1       2.032   8.465  17.433  0.00  0.00    +0.000 C 
BRANCH  22  23
ATOM     23  C   UNL     1       1.770   9.711  18.236  0.00  0.00    +0.000 C 
ATOM     24  O   UNL     1       2.270  10.801  17.993  0.00  0.00    +0.000 OA
ATOM     25  N   UNL     1       0.892   9.472  19.277  0.00  0.00    +0.000 N 
ATOM     26  H   UNL     1       0.439   8.584  19.376  0.00  0.00    +0.000 HD
BRANCH  25  27
ATOM     27  C   UNL     1       0.606  10.492  20.268  0.00  0.00    +0.000 C 
BRANCH  27  28
ATOM     28  C   UNL     1      -0.697  11.122  19.924  0.00  0.00    +0.000 A 
ATOM     29  C   UNL     1      -1.486  10.890  18.816  0.00  0.00    +0.000 A 
ATOM     30  C   UNL     1      -2.666  11.686  18.821  0.00  0.00    +0.000 A 
ATOM     31  C   UNL     1      -2.743  12.489  19.936  0.00  0.00    +0.000 A 
ATOM     32  S   UNL     1      -1.396  12.287  20.968  0.00  0.00    +0.000 S 
ENDBRANCH  27  28
ENDBRANCH  25  27
ENDBRANCH  22  23
ENDBRANCH  11  22
TORSDOF 7
ENDMDL
MODEL 9
REMARK VINA RESULT:      -8.2      1.885      2.791
REMARK  Name = 
REMARK  7 active torsions:
REMARK  status: ('A' for Active; 'I' for Inactive)
REMARK    1  A    between atoms: C_2  and  C_4
REMARK    2  A    between atoms: C_4  and  S_5
REMARK    3  A    between atoms: S_5  and  C_6
REMARK    4  A    between atoms: C_16  and  C_17
REMARK    5  A    between atoms: C_17  and  C_18
REMARK    6  A    between atoms: N_20  and  C_21
REMARK    7  A    between atoms: C_21  and  C_22
REMARK                            x       y       z     vdW  Elec       q    Type
REMARK                         _______ _______ _______ _____ _____    ______ ____
ROOT
ATOM      1  C   UNL     1       5.147   4.508  18.288  0.00  0.00    +0.000 C 
ATOM      2  N   UNL     1       4.970   3.452  19.041  0.00  0.00    +0.000 NA
ATOM      3  C   UNL     1       3.791   3.360  19.818  0.00  0.00    +0.000 A 
ATOM      4  C   UNL     1       3.585   2.358  20.767  0.00  0.00    +0.000 A 
ATOM      5  C   UNL     1       2.436   2.368  21.592  0.00  0.00    +0.000 A 
ATOM      6  C   UNL     1       1.473   3.365  21.477  0.00  0.00    +0.000 A 
ATOM      7  C   UNL     1       1.636   4.328  20.507  0.00  0.00    +0.000 A 
ATOM      8  C   UNL     1       2.779   4.290  19.697  0.00  0.00    +0.000 A 
ATOM      9  C   UNL     1       3.027   5.415  18.839  0.00  0.00    +0.000 C 
ATOM     10  N   UNL     1       2.133   6.336  18.736  0.00  0.00    +0.000 NA
ATOM     11  C   UNL     1       2.914   7.492  18.297  0.00  0.00    +0.000 C 
ATOM     12  C   UNL     1       4.125   6.825  17.598  0.00  0.00    +0.000 C 
ATOM     13  O   UNL     1       4.852   7.345  16.769  0.00  0.00    +0.000 OA
ATOM     14  N   UNL     1       4.215   5.564  18.212  0.00  0.00    +0.000 N 
ENDROOT
BRANCH   1  15
ATOM     15  S   UNL     1       6.517   4.434  17.205  0.00  0.00    +0.000 S 
BRANCH  15  16
ATOM     16  C   UNL     1       5.909   3.988  15.573  0.00  0.00    +0.000 C 
BRANCH  16  18
ATOM     17  N   UNL     1       6.581   3.698  13.215  0.00  0.00    +0.000 N 
ATOM     18  C   UNL     1       6.766   4.369  14.385  0.00  0.00    +0.000 C 
ATOM     19  O   UNL     1       7.531   5.331  14.417  0.00  0.00    +0.000 OA
ATOM     20  H   UNL     1       7.138   3.982  12.417  0.00  0.00    +0.000 HD
ATOM     21  H   UNL     1       6.028   2.855  13.148  0.00  0.00    +0.000 HD
ENDBRANCH  16  18
ENDBRANCH  15  16
ENDBRANCH   1  15
BRANCH  11  22
ATOM     22  C   UNL     1       1.918   8.434  17.667  0.00  0.00    +0.000 C 
BRANCH  22  23
ATOM     23  C   UNL     1       1.364   9.410  18.669  0.00  0.00    +0.000 C 
ATOM     24  O   UNL     1       1.206   9.160  19.857  0.00  0.00    +0.000 OA
ATOM     25  N   UNL     1       1.060  10.626  18.082  0.00  0.00    +0.000 N 
ATOM     26  H   UNL     1       1.295  10.810  17.126  0.00  0.00    +0.000 HD
BRANCH  25  27
ATOM     27  C   UNL     1       0.381  11.669  18.826  0.00  0.00    +0.000 C 
BRANCH  27  28
ATOM     28  C   UNL     1       1.408  12.607  19.354  0.00  0.00    +0.000 A 
ATOM     29  C   UNL     1       1.591  13.018  20.659  0.00  0.00    +0.000 A 
ATOM     30  C   UNL     1       2.675  13.933  20.787  0.00  0.00    +0.000 A 
ATOM     31  C   UNL     1       3.288  14.179  19.579  0.00  0.00    +0.000 A 
ATOM     32  S   UNL     1       2.557  13.317  18.299  0.00  0.00    +0.000 S 
ENDBRANCH  27  28
ENDBRANCH  25  27
ENDBRANCH  22  23
ENDBRANCH  11  22
TORSDOF 7
ENDMDL
