MODEL 1
REMARK VINA RESULT:      -7.5      0.000      0.000
REMARK  Name = 
REMARK  4 active torsions:
REMARK  status: ('A' for Active; 'I' for Inactive)
REMARK    1  A    between atoms: N_6  and  C_7
REMARK    2  A    between atoms: C_7  and  C_8
REMARK    3  A    between atoms: C_10  and  O_11
REMARK    4  A    between atoms: C_13  and  O_14
REMARK                            x       y       z     vdW  Elec       q    Type
REMARK                         _______ _______ _______ _____ _____    ______ ____
ROOT
ATOM      1  C   UNL     1       5.738   5.034  18.226  0.00  0.00    +0.000 A 
ATOM      2  N   UNL     1       6.497   4.759  19.331  0.00  0.00    +0.000 NA
ATOM      3  C   UNL     1       7.522   5.586  19.563  0.00  0.00    +0.000 A 
ATOM      4  N   UNL     1       7.947   6.562  18.772  0.00  0.00    +0.000 NA
ATOM      5  C   UNL     1       7.195   6.769  17.682  0.00  0.00    +0.000 A 
ATOM      6  C   UNL     1       6.059   6.056  17.347  0.00  0.00    +0.000 A 
ATOM      7 CL   UNL     1       5.168   6.375  15.914  0.00  0.00    +0.000 Cl
ENDROOT
BRANCH   3   8
ATOM      8  O   UNL     1       8.235   5.329  20.687  0.00  0.00    +0.000 OA
ATOM      9  H   UNL     1       8.871   6.062  20.701  0.00  0.00    +0.000 HD
ENDBRANCH   3   8
BRANCH   5  10
ATOM     10  O   UNL     1       7.687   7.745  16.877  0.00  0.00    +0.000 OA
ATOM     11  H   UNL     1       7.149   8.516  17.139  0.00  0.00    +0.000 HD
ENDBRANCH   5  10
BRANCH   1  12
ATOM     12  C   UNL     1       4.614   4.064  17.954  0.00  0.00    +0.000 C 
BRANCH  12  18
ATOM     13  N   UNL     1       5.008   1.756  19.950  0.00  0.00    +0.000 N 
ATOM     14  C   UNL     1       4.059   2.682  19.992  0.00  0.00    +0.000 A 
ATOM     15  N   UNL     1       3.112   2.705  20.909  0.00  0.00    +0.000 N 
ATOM     16  C   UNL     1       2.338   3.829  20.776  0.00  0.00    +0.000 A 
ATOM     17  C   UNL     1       2.823   4.487  19.683  0.00  0.00    +0.000 A 
ATOM     18  N   UNL     1       3.871   3.715  19.177  0.00  0.00    +0.000 N 
ATOM     19  H   UNL     1       5.010   0.980  20.596  0.00  0.00    +0.000 HD
ATOM     20  H   UNL     1       5.777   1.825  19.293  0.00  0.00    +0.000 HD
ATOM     21  H   UNL     1       2.993   2.007  21.633  0.00  0.00    +0.000 HD
ENDBRANCH  12  18
ENDBRANCH   1  12
TORSDOF 4
ENDMDL
MODEL 2
REMARK VINA RESULT:      -7.3      1.219      1.514
REMARK  Name = 
REMARK  4 active torsions:
REMARK  status: ('A' for Active; 'I' for Inactive)
REMARK    1  A    between atoms: N_6  and  C_7
REMARK    2  A    between atoms: C_7  and  C_8
REMARK    3  A    between atoms: C_10  and  O_11
REMARK    4  A    between atoms: C_13  and  O_14
REMARK                            x       y       z     vdW  Elec       q    Type
REMARK                         _______ _______ _______ _____ _____    ______ ____
ROOT
ATOM      1  C   UNL     1       5.347   5.471  18.962  0.00  0.00    +0.000 A 
ATOM      2  N   UNL     1       6.271   5.188  19.931  0.00  0.00    +0.000 NA
ATOM      3  C   UNL     1       7.534   5.538  19.661  0.00  0.00    +0.000 A 
ATOM      4  N   UNL     1       7.995   6.016  18.514  0.00  0.00    +0.000 NA
ATOM      5  C   UNL     1       7.058   6.241  17.582  0.00  0.00    +0.000 A 
ATOM      6  C   UNL     1       5.704   6.011  17.737  0.00  0.00    +0.000 A 
ATOM      7 CL   UNL     1       4.576   6.307  16.477  0.00  0.00    +0.000 Cl
ENDROOT
BRANCH   3   8
ATOM      8  O   UNL     1       8.429   5.295  20.649  0.00  0.00    +0.000 OA
ATOM      9  H   UNL     1       9.094   4.752  20.197  0.00  0.00    +0.000 HD
ENDBRANCH   3   8
BRANCH   5  10
ATOM     10  O   UNL     1       7.575   6.687  16.408  0.00  0.00    +0.000 OA
ATOM     11  H   UNL     1       8.408   7.104  16.697  0.00  0.00    +0.000 HD
ENDBRANCH   5  10
BRANCH   1  12
ATOM     12  C   UNL     1       3.936   5.028  19.265  0.00  0.00    +0.000 C 
BRANCH  12  18
ATOM     13  N   UNL     1       5.027   2.264  20.062  0.00  0.00    +0.000 N 
ATOM     14  C   UNL     1       4.171   2.522  19.083  0.00  0.00    +0.000 A 
ATOM     15  N   UNL     1       3.693   1.592  18.277  0.00  0.00    +0.000 N 
ATOM     16  C   UNL     1       2.749   2.122  17.435  0.00  0.00    +0.000 A 
ATOM     17  C   UNL     1       2.700   3.455  17.723  0.00  0.00    +0.000 A 
ATOM     18  N   UNL     1       3.644   3.689  18.725  0.00  0.00    +0.000 N 
ATOM     19  H   UNL     1       5.404   1.337  20.197  0.00  0.00    +0.000 HD
ATOM     20  H   UNL     1       5.297   2.984  20.723  0.00  0.00    +0.000 HD
ATOM     21  H   UNL     1       3.961   0.616  18.300  0.00  0.00    +0.000 HD
ENDBRANCH  12  18
ENDBRANCH   1  12
TORSDOF 4
ENDMDL
MODEL 3
REMARK VINA RESULT:      -7.3      1.653      1.750
REMARK  Name = 
REMARK  4 active torsions:
REMARK  status: ('A' for Active; 'I' for Inactive)
REMARK    1  A    between atoms: N_6  and  C_7
REMARK    2  A    between atoms: C_7  and  C_8
REMARK    3  A    between atoms: C_10  and  O_11
REMARK    4  A    between atoms: C_13  and  O_14
REMARK                            x       y       z     vdW  Elec       q    Type
REMARK                         _______ _______ _______ _____ _____    ______ ____
ROOT
ATOM      1  C   UNL     1       5.339   5.056  18.687  0.00  0.00    +0.000 A 
ATOM      2  N   UNL     1       6.134   5.217  19.788  0.00  0.00    +0.000 NA
ATOM      3  C   UNL     1       7.454   5.228  19.566  0.00  0.00    +0.000 A 
ATOM      4  N   UNL     1       8.065   4.979  18.417  0.00  0.00    +0.000 NA
ATOM      5  C   UNL     1       7.245   4.789  17.374  0.00  0.00    +0.000 A 
ATOM      6  C   UNL     1       5.864   4.831  17.424  0.00  0.00    +0.000 A 
ATOM      7 CL   UNL     1       4.889   4.552  16.039  0.00  0.00    +0.000 Cl
ENDROOT
BRANCH   3   8
ATOM      8  O   UNL     1       8.227   5.435  20.660  0.00  0.00    +0.000 OA
ATOM      9  H   UNL     1       8.398   6.389  20.615  0.00  0.00    +0.000 HD
ENDBRANCH   3   8
BRANCH   5  10
ATOM     10  O   UNL     1       7.907   4.494  16.226  0.00  0.00    +0.000 OA
ATOM     11  H   UNL     1       7.863   5.339  15.742  0.00  0.00    +0.000 HD
ENDBRANCH   5  10
BRANCH   1  12
ATOM     12  C   UNL     1       3.856   5.001  18.962  0.00  0.00    +0.000 C 
BRANCH  12  18
ATOM     13  N   UNL     1       4.877   2.255  19.900  0.00  0.00    +0.000 N 
ATOM     14  C   UNL     1       3.801   2.485  19.159  0.00  0.00    +0.000 A 
ATOM     15  N   UNL     1       3.029   1.526  18.687  0.00  0.00    +0.000 N 
ATOM     16  C   UNL     1       1.934   2.055  18.053  0.00  0.00    +0.000 A 
ATOM     17  C   UNL     1       2.091   3.409  18.108  0.00  0.00    +0.000 A 
ATOM     18  N   UNL     1       3.301   3.652  18.762  0.00  0.00    +0.000 N 
ATOM     19  H   UNL     1       5.191   1.313  20.086  0.00  0.00    +0.000 HD
ATOM     20  H   UNL     1       5.390   3.017  20.329  0.00  0.00    +0.000 HD
ATOM     21  H   UNL     1       3.203   0.535  18.805  0.00  0.00    +0.000 HD
ENDBRANCH  12  18
ENDBRANCH   1  12
TORSDOF 4
ENDMDL
MODEL 4
REMARK VINA RESULT:      -7.2      1.849      1.969
REMARK  Name = 
REMARK  4 active torsions:
REMARK  status: ('A' for Active; 'I' for Inactive)
REMARK    1  A    between atoms: N_6  and  C_7
REMARK    2  A    between atoms: C_7  and  C_8
REMARK    3  A    between atoms: C_10  and  O_11
REMARK    4  A    between atoms: C_13  and  O_14
REMARK                            x       y       z     vdW  Elec       q    Type
REMARK                         _______ _______ _______ _____ _____    ______ ____
ROOT
ATOM      1  C   UNL     1       5.104   5.112  18.613  0.00  0.00    +0.000 A 
ATOM      2  N   UNL     1       6.276   4.407  18.618  0.00  0.00    +0.000 NA
ATOM      3  C   UNL     1       7.150   4.710  17.651  0.00  0.00    +0.000 A 
ATOM      4  N   UNL     1       6.947   5.528  16.628  0.00  0.00    +0.000 NA
ATOM      5  C   UNL     1       5.768   6.167  16.646  0.00  0.00    +0.000 A 
ATOM      6  C   UNL     1       4.796   6.027  17.618  0.00  0.00    +0.000 A 
ATOM      7 CL   UNL     1       3.302   6.869  17.548  0.00  0.00    +0.000 Cl
ENDROOT
BRANCH   3   8
ATOM      8  O   UNL     1       8.326   4.037  17.697  0.00  0.00    +0.000 OA
ATOM      9  H   UNL     1       8.237   3.414  16.959  0.00  0.00    +0.000 HD
ENDBRANCH   3   8
BRANCH   5  10
ATOM     10  O   UNL     1       5.580   6.961  15.561  0.00  0.00    +0.000 OA
ATOM     11  H   UNL     1       5.694   6.331  14.825  0.00  0.00    +0.000 HD
ENDBRANCH   5  10
BRANCH   1  12
ATOM     12  C   UNL     1       4.111   4.725  19.684  0.00  0.00    +0.000 C 
BRANCH  12  18
ATOM     13  N   UNL     1       4.813   1.730  19.673  0.00  0.00    +0.000 N 
ATOM     14  C   UNL     1       3.668   2.274  19.280  0.00  0.00    +0.000 A 
ATOM     15  N   UNL     1       2.667   1.572  18.785  0.00  0.00    +0.000 N 
ATOM     16  C   UNL     1       1.576   2.375  18.569  0.00  0.00    +0.000 A 
ATOM     17  C   UNL     1       1.969   3.636  18.908  0.00  0.00    +0.000 A 
ATOM     18  N   UNL     1       3.307   3.553  19.301  0.00  0.00    +0.000 N 
ATOM     19  H   UNL     1       4.992   0.744  19.550  0.00  0.00    +0.000 HD
ATOM     20  H   UNL     1       5.521   2.283  20.140  0.00  0.00    +0.000 HD
ATOM     21  H   UNL     1       2.689   0.574  18.619  0.00  0.00    +0.000 HD
ENDBRANCH  12  18
ENDBRANCH   1  12
TORSDOF 4
ENDMDL
MODEL 5
REMARK VINA RESULT:      -7.1      2.958      5.070
REMARK  Name = 
REMARK  4 active torsions:
REMARK  status: ('A' for Active; 'I' for Inactive)
REMARK    1  A    between atoms: N_6  and  C_7
REMARK    2  A    between atoms: C_7  and  C_8
REMARK    3  A    between atoms: C_10  and  O_11
REMARK    4  A    between atoms: C_13  and  O_14
REMARK                            x       y       z     vdW  Elec       q    Type
REMARK                         _______ _______ _______ _____ _____    ______ ____
ROOT
ATOM      1  C   UNL     1       4.441   4.500  18.735  0.00  0.00    +0.000 A 
ATOM      2  N   UNL     1       5.168   3.522  19.358  0.00  0.00    +0.000 NA
ATOM      3  C   UNL     1       4.467   2.511  19.883  0.00  0.00    +0.000 A 
ATOM      4  N   UNL     1       3.148   2.422  19.968  0.00  0.00    +0.000 NA
ATOM      5  C   UNL     1       2.478   3.423  19.377  0.00  0.00    +0.000 A 
ATOM      6  C   UNL     1       3.055   4.493  18.721  0.00  0.00    +0.000 A 
ATOM      7 CL   UNL     1       2.119   5.745  18.012  0.00  0.00    +0.000 Cl
ENDROOT
BRANCH   3   8
ATOM      8  O   UNL     1       5.204   1.527  20.455  0.00  0.00    +0.000 OA
ATOM      9  H   UNL     1       5.872   2.028  20.948  0.00  0.00    +0.000 HD
ENDBRANCH   3   8
BRANCH   5  10
ATOM     10  O   UNL     1       1.133   3.319  19.524  0.00  0.00    +0.000 OA
ATOM     11  H   UNL     1       0.814   4.110  19.051  0.00  0.00    +0.000 HD
ENDBRANCH   5  10
BRANCH   1  12
ATOM     12  C   UNL     1       5.245   5.655  18.189  0.00  0.00    +0.000 C 
BRANCH  12  18
ATOM     13  N   UNL     1       7.975   4.301  17.769  0.00  0.00    +0.000 N 
ATOM     14  C   UNL     1       7.161   4.745  16.821  0.00  0.00    +0.000 A 
ATOM     15  N   UNL     1       7.450   4.690  15.535  0.00  0.00    +0.000 N 
ATOM     16  C   UNL     1       6.385   5.115  14.782  0.00  0.00    +0.000 A 
ATOM     17  C   UNL     1       5.426   5.493  15.675  0.00  0.00    +0.000 A 
ATOM     18  N   UNL     1       5.960   5.301  16.951  0.00  0.00    +0.000 N 
ATOM     19  H   UNL     1       8.895   3.950  17.545  0.00  0.00    +0.000 HD
ATOM     20  H   UNL     1       7.680   4.267  18.738  0.00  0.00    +0.000 HD
ATOM     21  H   UNL     1       8.324   4.348  15.155  0.00  0.00    +0.000 HD
ENDBRANCH  12  18
ENDBRANCH   1  12
TORSDOF 4
ENDMDL
MODEL 6
REMARK VINA RESULT:      -7.1      1.388      1.412
REMARK  Name = 
REMARK  4 active torsions:
REMARK  status: ('A' for Active; 'I' for Inactive)
REMARK    1  A    between atoms: N_6  and  C_7
REMARK    2  A    between atoms: C_7  and  C_8
REMARK    3  A    between atoms: C_10  and  O_11
REMARK    4  A    between atoms: C_13  and  O_14
REMARK                            x       y       z     vdW  Elec       q    Type
REMARK                         _______ _______ _______ _____ _____    ______ ____
ROOT
ATOM      1  C   UNL     1       5.197   4.966  18.484  0.00  0.00    +0.000 A 
ATOM      2  N   UNL     1       5.903   5.192  19.634  0.00  0.00    +0.000 NA
ATOM      3  C   UNL     1       7.234   5.235  19.509  0.00  0.00    +0.000 A 
ATOM      4  N   UNL     1       7.936   4.963  18.418  0.00  0.00    +0.000 NA
ATOM      5  C   UNL     1       7.201   4.710  17.326  0.00  0.00    +0.000 A 
ATOM      6  C   UNL     1       5.820   4.711  17.273  0.00  0.00    +0.000 A 
ATOM      7 CL   UNL     1       4.959   4.352  15.833  0.00  0.00    +0.000 Cl
ENDROOT
BRANCH   3   8
ATOM      8  O   UNL     1       7.918   5.506  20.648  0.00  0.00    +0.000 OA
ATOM      9  H   UNL     1       7.502   6.330  20.948  0.00  0.00    +0.000 HD
ENDBRANCH   3   8
BRANCH   5  10
ATOM     10  O   UNL     1       7.955   4.393  16.242  0.00  0.00    +0.000 OA
ATOM     11  H   UNL     1       8.534   5.173  16.161  0.00  0.00    +0.000 HD
ENDBRANCH   5  10
BRANCH   1  12
ATOM     12  C   UNL     1       3.699   4.875  18.652  0.00  0.00    +0.000 C 
BRANCH  12  18
ATOM     13  N   UNL     1       4.739   2.143  19.608  0.00  0.00    +0.000 N 
ATOM     14  C   UNL     1       3.774   2.859  20.168  0.00  0.00    +0.000 A 
ATOM     15  N   UNL     1       3.091   2.455  21.223  0.00  0.00    +0.000 N 
ATOM     16  C   UNL     1       2.237   3.439  21.651  0.00  0.00    +0.000 A 
ATOM     17  C   UNL     1       2.384   4.469  20.769  0.00  0.00    +0.000 A 
ATOM     18  N   UNL     1       3.317   4.057  19.815  0.00  0.00    +0.000 N 
ATOM     19  H   UNL     1       4.956   1.212  19.935  0.00  0.00    +0.000 HD
ATOM     20  H   UNL     1       5.309   2.526  18.863  0.00  0.00    +0.000 HD
ATOM     21  H   UNL     1       3.207   1.556  21.674  0.00  0.00    +0.000 HD
ENDBRANCH  12  18
ENDBRANCH   1  12
TORSDOF 4
ENDMDL
MODEL 7
REMARK VINA RESULT:      -7.1      1.269      1.890
REMARK  Name = 
REMARK  4 active torsions:
REMARK  status: ('A' for Active; 'I' for Inactive)
REMARK    1  A    between atoms: N_6  and  C_7
REMARK    2  A    between atoms: C_7  and  C_8
REMARK    3  A    between atoms: C_10  and  O_11
REMARK    4  A    between atoms: C_13  and  O_14
REMARK                            x       y       z     vdW  Elec       q    Type
REMARK                         _______ _______ _______ _____ _____    ______ ____
ROOT
ATOM      1  C   UNL     1       5.559   5.228  18.381  0.00  0.00    +0.000 A 
ATOM      2  N   UNL     1       6.308   4.963  19.494  0.00  0.00    +0.000 NA
ATOM      3  C   UNL     1       7.457   5.640  19.606  0.00  0.00    +0.000 A 
ATOM      4  N   UNL     1       7.995   6.442  18.698  0.00  0.00    +0.000 NA
ATOM      5  C   UNL     1       7.242   6.640  17.607  0.00  0.00    +0.000 A 
ATOM      6  C   UNL     1       5.997   6.082  17.381  0.00  0.00    +0.000 A 
ATOM      7 CL   UNL     1       5.110   6.373  15.941  0.00  0.00    +0.000 Cl
ENDROOT
BRANCH   3   8
ATOM      8  O   UNL     1       8.166   5.402  20.737  0.00  0.00    +0.000 OA
ATOM      9  H   UNL     1       8.242   6.289  21.124  0.00  0.00    +0.000 HD
ENDBRANCH   3   8
BRANCH   5  10
ATOM     10  O   UNL     1       7.845   7.430  16.682  0.00  0.00    +0.000 OA
ATOM     11  H   UNL     1       7.086   7.893  16.282  0.00  0.00    +0.000 HD
ENDBRANCH   5  10
BRANCH   1  12
ATOM     12  C   UNL     1       4.289   4.422  18.250  0.00  0.00    +0.000 C 
BRANCH  12  18
ATOM     13  N   UNL     1       2.693   6.932  19.037  0.00  0.00    +0.000 N 
ATOM     14  C   UNL     1       2.719   5.777  19.688  0.00  0.00    +0.000 A 
ATOM     15  N   UNL     1       2.067   5.567  20.816  0.00  0.00    +0.000 N 
ATOM     16  C   UNL     1       2.183   4.257  21.204  0.00  0.00    +0.000 A 
ATOM     17  C   UNL     1       2.994   3.665  20.281  0.00  0.00    +0.000 A 
ATOM     18  N   UNL     1       3.361   4.657  19.368  0.00  0.00    +0.000 N 
ATOM     19  H   UNL     1       2.213   7.735  19.416  0.00  0.00    +0.000 HD
ATOM     20  H   UNL     1       3.124   7.027  18.124  0.00  0.00    +0.000 HD
ATOM     21  H   UNL     1       1.527   6.268  21.308  0.00  0.00    +0.000 HD
ENDBRANCH  12  18
ENDBRANCH   1  12
TORSDOF 4
ENDMDL
MODEL 8
REMARK VINA RESULT:      -7.0      0.866      1.069
REMARK  Name = 
REMARK  4 active torsions:
REMARK  status: ('A' for Active; 'I' for Inactive)
REMARK    1  A    between atoms: N_6  and  C_7
REMARK    2  A    between atoms: C_7  and  C_8
REMARK    3  A    between atoms: C_10  and  O_11
REMARK    4  A    between atoms: C_13  and  O_14
REMARK                            x       y       z     vdW  Elec       q    Type
REMARK                         _______ _______ _______ _____ _____    ______ ____
ROOT
ATOM      1  C   UNL     1       5.598   5.240  18.437  0.00  0.00    +0.000 A 
ATOM      2  N   UNL     1       6.385   4.940  19.515  0.00  0.00    +0.000 NA
ATOM      3  C   UNL     1       7.508   5.655  19.642  0.00  0.00    +0.000 A 
ATOM      4  N   UNL     1       7.992   6.531  18.772  0.00  0.00    +0.000 NA
ATOM      5  C   UNL     1       7.204   6.763  17.712  0.00  0.00    +0.000 A 
ATOM      6  C   UNL     1       5.978   6.169  17.482  0.00  0.00    +0.000 A 
ATOM      7 CL   UNL     1       5.045   6.510  16.082  0.00  0.00    +0.000 Cl
ENDROOT
BRANCH   3   8
ATOM      8  O   UNL     1       8.254   5.380  20.740  0.00  0.00    +0.000 OA
ATOM      9  H   UNL     1       8.445   6.265  21.088  0.00  0.00    +0.000 HD
ENDBRANCH   3   8
BRANCH   5  10
ATOM     10  O   UNL     1       7.753   7.631  16.824  0.00  0.00    +0.000 OA
ATOM     11  H   UNL     1       8.284   7.037  16.260  0.00  0.00    +0.000 HD
ENDBRANCH   5  10
BRANCH   1  12
ATOM     12  C   UNL     1       4.357   4.392  18.286  0.00  0.00    +0.000 C 
BRANCH  12  18
ATOM     13  N   UNL     1       3.364   2.592  20.574  0.00  0.00    +0.000 N 
ATOM     14  C   UNL     1       2.950   3.822  20.301  0.00  0.00    +0.000 A 
ATOM     15  N   UNL     1       1.999   4.433  20.982  0.00  0.00    +0.000 N 
ATOM     16  C   UNL     1       1.854   5.728  20.554  0.00  0.00    +0.000 A 
ATOM     17  C   UNL     1       2.735   5.880  19.524  0.00  0.00    +0.000 A 
ATOM     18  N   UNL     1       3.373   4.649  19.350  0.00  0.00    +0.000 N 
ATOM     19  H   UNL     1       2.919   2.038  21.291  0.00  0.00    +0.000 HD
ATOM     20  H   UNL     1       4.163   2.192  20.096  0.00  0.00    +0.000 HD
ATOM     21  H   UNL     1       1.472   4.014  21.739  0.00  0.00    +0.000 HD
ENDBRANCH  12  18
ENDBRANCH   1  12
TORSDOF 4
ENDMDL
MODEL 9
REMARK VINA RESULT:      -6.9      1.078      1.093
REMARK  Name = 
REMARK  4 active torsions:
REMARK  status: ('A' for Active; 'I' for Inactive)
REMARK    1  A    between atoms: N_6  and  C_7
REMARK    2  A    between atoms: C_7  and  C_8
REMARK    3  A    between atoms: C_10  and  O_11
REMARK    4  A    between atoms: C_13  and  O_14
REMARK                            x       y       z     vdW  Elec       q    Type
REMARK                         _______ _______ _______ _____ _____    ______ ____
ROOT
ATOM      1  C   UNL     1       5.404   4.293  17.770  0.00  0.00    +0.000 A 
ATOM      2  N   UNL     1       6.027   4.511  18.968  0.00  0.00    +0.000 NA
ATOM      3  C   UNL     1       7.098   5.313  18.939  0.00  0.00    +0.000 A 
ATOM      4  N   UNL     1       7.682   5.815  17.860  0.00  0.00    +0.000 NA
ATOM      5  C   UNL     1       7.057   5.542  16.705  0.00  0.00    +0.000 A 
ATOM      6  C   UNL     1       5.898   4.801  16.578  0.00  0.00    +0.000 A 
ATOM      7 CL   UNL     1       5.178   4.481  15.053  0.00  0.00    +0.000 Cl
ENDROOT
BRANCH   3   8
ATOM      8  O   UNL     1       7.676   5.557  20.140  0.00  0.00    +0.000 OA
ATOM      9  H   UNL     1       7.109   6.255  20.505  0.00  0.00    +0.000 HD
ENDBRANCH   3   8
BRANCH   5  10
ATOM     10  O   UNL     1       7.709   6.035  15.621  0.00  0.00    +0.000 OA
ATOM     11  H   UNL     1       7.981   5.221  15.158  0.00  0.00    +0.000 HD
ENDBRANCH   5  10
BRANCH   1  12
ATOM     12  C   UNL     1       4.226   3.349  17.815  0.00  0.00    +0.000 C 
BRANCH  12  18
ATOM     13  N   UNL     1       5.082   1.658  20.238  0.00  0.00    +0.000 N 
ATOM     14  C   UNL     1       4.034   2.469  20.172  0.00  0.00    +0.000 A 
ATOM     15  N   UNL     1       3.179   2.627  21.164  0.00  0.00    +0.000 N 
ATOM     16  C   UNL     1       2.264   3.603  20.861  0.00  0.00    +0.000 A 
ATOM     17  C   UNL     1       2.563   4.013  19.595  0.00  0.00    +0.000 A 
ATOM     18  N   UNL     1       3.647   3.245  19.164  0.00  0.00    +0.000 N 
ATOM     19  H   UNL     1       5.237   1.070  21.044  0.00  0.00    +0.000 HD
ATOM     20  H   UNL     1       5.773   1.635  19.497  0.00  0.00    +0.000 HD
ATOM     21  H   UNL     1       3.213   2.122  22.041  0.00  0.00    +0.000 HD
ENDBRANCH  12  18
ENDBRANCH   1  12
TORSDOF 4
ENDMDL
