MODEL 1
REMARK VINA RESULT:      -5.4      0.000      0.000
REMARK  Name = 
REMARK  10 active torsions:
REMARK  status: ('A' for Active; 'I' for Inactive)
REMARK    1  A    between atoms: C_1  and  C_2
REMARK    2  A    between atoms: C_2  and  C_3
REMARK    3  A    between atoms: C_3  and  C_4
REMARK    4  A    between atoms: C_4  and  C_5
REMARK    5  A    between atoms: C_4  and  C_8
REMARK    6  A    between atoms: C_4  and  C_11
REMARK    7  A    between atoms: C_5  and  C_6
REMARK    8  A    between atoms: C_6  and  C_7
REMARK    9  A    between atoms: C_8  and  C_9
REMARK   10  A    between atoms: C_9  and  C_10
REMARK                            x       y       z     vdW  Elec       q    Type
REMARK                         _______ _______ _______ _____ _____    ______ ____
ROOT
ATOM      1  C   UNL     1       4.258   4.796  17.732  0.00  0.00    +0.000 C 
ENDROOT
BRANCH   1   2
ATOM      2  C   UNL     1       5.205   4.174  18.790  0.00  0.00    +0.000 C 
ATOM      3  N   UNL     1       4.962   2.913  19.234  0.00  0.00    +0.000 N 
ATOM      4  O   UNL     1       6.123   4.806  19.312  0.00  0.00    +0.000 OA
ATOM      5  H   UNL     1       4.345   2.259  18.776  0.00  0.00    +0.000 HD
ATOM      6  H   UNL     1       5.645   2.535  19.880  0.00  0.00    +0.000 HD
ENDBRANCH   1   2
BRANCH   1   7
ATOM      7  C   UNL     1       4.976   5.292  16.444  0.00  0.00    +0.000 C 
BRANCH   7   9
ATOM      8  C   UNL     1       6.885   4.582  14.958  0.00  0.00    +0.000 C 
ATOM      9  C   UNL     1       5.518   4.199  15.513  0.00  0.00    +0.000 C 
ENDBRANCH   7   9
ENDBRANCH   1   7
BRANCH   1  10
ATOM     10  C   UNL     1       3.526   5.968  18.469  0.00  0.00    +0.000 C 
BRANCH  10  11
ATOM     11  C   UNL     1       3.552   7.336  17.776  0.00  0.00    +0.000 C 
ATOM     12  C   UNL     1       2.215   8.048  17.928  0.00  0.00    +0.000 C 
ENDBRANCH  10  11
ENDBRANCH   1  10
BRANCH   1  13
ATOM     13  C   UNL     1       3.199   3.705  17.359  0.00  0.00    +0.000 C 
BRANCH  13  14
ATOM     14  C   UNL     1       1.740   4.037  17.701  0.00  0.00    +0.000 C 
ATOM     15  C   UNL     1       1.155   3.003  18.655  0.00  0.00    +0.000 C 
ENDBRANCH  13  14
ENDBRANCH   1  13
TORSDOF 7
ENDMDL
MODEL 2
REMARK VINA RESULT:      -5.3      0.413      3.864
REMARK  Name = 
REMARK  10 active torsions:
REMARK  status: ('A' for Active; 'I' for Inactive)
REMARK    1  A    between atoms: C_1  and  C_2
REMARK    2  A    between atoms: C_2  and  C_3
REMARK    3  A    between atoms: C_3  and  C_4
REMARK    4  A    between atoms: C_4  and  C_5
REMARK    5  A    between atoms: C_4  and  C_8
REMARK    6  A    between atoms: C_4  and  C_11
REMARK    7  A    between atoms: C_5  and  C_6
REMARK    8  A    between atoms: C_6  and  C_7
REMARK    9  A    between atoms: C_8  and  C_9
REMARK   10  A    between atoms: C_9  and  C_10
REMARK                            x       y       z     vdW  Elec       q    Type
REMARK                         _______ _______ _______ _____ _____    ______ ____
ROOT
ATOM      1  C   UNL     1       4.018   5.035  17.877  0.00  0.00    +0.000 C 
ENDROOT
BRANCH   1   2
ATOM      2  C   UNL     1       5.043   4.575  18.945  0.00  0.00    +0.000 C 
ATOM      3  N   UNL     1       5.177   3.247  19.204  0.00  0.00    +0.000 N 
ATOM      4  O   UNL     1       5.684   5.368  19.634  0.00  0.00    +0.000 OA
ATOM      5  H   UNL     1       4.825   2.515  18.606  0.00  0.00    +0.000 HD
ATOM      6  H   UNL     1       5.902   3.000  19.867  0.00  0.00    +0.000 HD
ENDBRANCH   1   2
BRANCH   1   7
ATOM      7  C   UNL     1       3.121   6.227  18.322  0.00  0.00    +0.000 C 
BRANCH   7   9
ATOM      8  C   UNL     1       2.222   8.531  17.839  0.00  0.00    +0.000 C 
ATOM      9  C   UNL     1       3.376   7.563  17.613  0.00  0.00    +0.000 C 
ENDBRANCH   7   9
ENDBRANCH   1   7
BRANCH   1  10
ATOM     10  C   UNL     1       3.164   3.764  17.548  0.00  0.00    +0.000 C 
BRANCH  10  11
ATOM     11  C   UNL     1       1.655   3.869  17.802  0.00  0.00    +0.000 C 
ATOM     12  C   UNL     1       1.191   2.796  18.777  0.00  0.00    +0.000 C 
ENDBRANCH  10  11
ENDBRANCH   1  10
BRANCH   1  13
ATOM     13  C   UNL     1       4.828   5.434  16.598  0.00  0.00    +0.000 C 
BRANCH  13  14
ATOM     14  C   UNL     1       5.271   4.277  15.693  0.00  0.00    +0.000 C 
ATOM     15  C   UNL     1       6.480   4.673  14.854  0.00  0.00    +0.000 C 
ENDBRANCH  13  14
ENDBRANCH   1  13
TORSDOF 7
ENDMDL
MODEL 3
REMARK VINA RESULT:      -5.2      0.904      3.948
REMARK  Name = 
REMARK  10 active torsions:
REMARK  status: ('A' for Active; 'I' for Inactive)
REMARK    1  A    between atoms: C_1  and  C_2
REMARK    2  A    between atoms: C_2  and  C_3
REMARK    3  A    between atoms: C_3  and  C_4
REMARK    4  A    between atoms: C_4  and  C_5
REMARK    5  A    between atoms: C_4  and  C_8
REMARK    6  A    between atoms: C_4  and  C_11
REMARK    7  A    between atoms: C_5  and  C_6
REMARK    8  A    between atoms: C_6  and  C_7
REMARK    9  A    between atoms: C_8  and  C_9
REMARK   10  A    between atoms: C_9  and  C_10
REMARK                            x       y       z     vdW  Elec       q    Type
REMARK                         _______ _______ _______ _____ _____    ______ ____
ROOT
ATOM      1  C   UNL     1       4.077   4.835  17.906  0.00  0.00    +0.000 C 
ENDROOT
BRANCH   1   2
ATOM      2  C   UNL     1       5.092   4.295  18.946  0.00  0.00    +0.000 C 
ATOM      3  N   UNL     1       6.215   5.016  19.209  0.00  0.00    +0.000 N 
ATOM      4  O   UNL     1       4.969   3.197  19.486  0.00  0.00    +0.000 OA
ATOM      5  H   UNL     1       6.343   5.982  18.948  0.00  0.00    +0.000 HD
ATOM      6  H   UNL     1       6.814   4.647  19.938  0.00  0.00    +0.000 HD
ENDBRANCH   1   2
BRANCH   1   7
ATOM      7  C   UNL     1       3.023   3.789  17.440  0.00  0.00    +0.000 C 
BRANCH   7   9
ATOM      8  C   UNL     1       1.108   2.947  18.847  0.00  0.00    +0.000 C 
ATOM      9  C   UNL     1       1.579   4.040  17.896  0.00  0.00    +0.000 C 
ENDBRANCH   7   9
ENDBRANCH   1   7
BRANCH   1  10
ATOM     10  C   UNL     1       4.945   5.349  16.708  0.00  0.00    +0.000 C 
BRANCH  10  11
ATOM     11  C   UNL     1       5.335   4.311  15.649  0.00  0.00    +0.000 C 
ATOM     12  C   UNL     1       6.824   4.383  15.339  0.00  0.00    +0.000 C 
ENDBRANCH  10  11
ENDBRANCH   1  10
BRANCH   1  13
ATOM     13  C   UNL     1       3.352   6.060  18.558  0.00  0.00    +0.000 C 
BRANCH  13  14
ATOM     14  C   UNL     1       3.418   7.377  17.773  0.00  0.00    +0.000 C 
ATOM     15  C   UNL     1       2.144   8.190  17.963  0.00  0.00    +0.000 C 
ENDBRANCH  13  14
ENDBRANCH   1  13
TORSDOF 7
ENDMDL
MODEL 4
REMARK VINA RESULT:      -5.1      2.785      4.570
REMARK  Name = 
REMARK  10 active torsions:
REMARK  status: ('A' for Active; 'I' for Inactive)
REMARK    1  A    between atoms: C_1  and  C_2
REMARK    2  A    between atoms: C_2  and  C_3
REMARK    3  A    between atoms: C_3  and  C_4
REMARK    4  A    between atoms: C_4  and  C_5
REMARK    5  A    between atoms: C_4  and  C_8
REMARK    6  A    between atoms: C_4  and  C_11
REMARK    7  A    between atoms: C_5  and  C_6
REMARK    8  A    between atoms: C_6  and  C_7
REMARK    9  A    between atoms: C_8  and  C_9
REMARK   10  A    between atoms: C_9  and  C_10
REMARK                            x       y       z     vdW  Elec       q    Type
REMARK                         _______ _______ _______ _____ _____    ______ ____
ROOT
ATOM      1  C   UNL     1       2.438   5.659  19.410  0.00  0.00    +0.000 C 
ENDROOT
BRANCH   1   2
ATOM      2  C   UNL     1       2.259   7.182  19.634  0.00  0.00    +0.000 C 
ATOM      3  N   UNL     1       1.923   7.633  20.872  0.00  0.00    +0.000 N 
ATOM      4  O   UNL     1       2.323   7.999  18.717  0.00  0.00    +0.000 OA
ATOM      5  H   UNL     1       1.994   7.083  21.715  0.00  0.00    +0.000 HD
ATOM      6  H   UNL     1       1.876   8.640  20.975  0.00  0.00    +0.000 HD
ENDBRANCH   1   2
BRANCH   1   7
ATOM      7  C   UNL     1       2.054   5.172  17.983  0.00  0.00    +0.000 C 
BRANCH   7   9
ATOM      8  C   UNL     1       2.495   2.729  17.544  0.00  0.00    +0.000 C 
ATOM      9  C   UNL     1       1.438   3.770  17.893  0.00  0.00    +0.000 C 
ENDBRANCH   7   9
ENDBRANCH   1   7
BRANCH   1  10
ATOM     10  C   UNL     1       1.558   4.972  20.508  0.00  0.00    +0.000 C 
BRANCH  10  11
ATOM     11  C   UNL     1       2.266   3.967  21.424  0.00  0.00    +0.000 C 
ATOM     12  C   UNL     1       1.499   2.652  21.486  0.00  0.00    +0.000 C 
ENDBRANCH  10  11
ENDBRANCH   1  10
BRANCH   1  13
ATOM     13  C   UNL     1       3.941   5.322  19.696  0.00  0.00    +0.000 C 
BRANCH  13  14
ATOM     14  C   UNL     1       4.926   5.626  18.560  0.00  0.00    +0.000 C 
ATOM     15  C   UNL     1       5.883   4.461  18.340  0.00  0.00    +0.000 C 
ENDBRANCH  13  14
ENDBRANCH   1  13
TORSDOF 7
ENDMDL
MODEL 5
REMARK VINA RESULT:      -5.1      1.344      3.852
REMARK  Name = 
REMARK  10 active torsions:
REMARK  status: ('A' for Active; 'I' for Inactive)
REMARK    1  A    between atoms: C_1  and  C_2
REMARK    2  A    between atoms: C_2  and  C_3
REMARK    3  A    between atoms: C_3  and  C_4
REMARK    4  A    between atoms: C_4  and  C_5
REMARK    5  A    between atoms: C_4  and  C_8
REMARK    6  A    between atoms: C_4  and  C_11
REMARK    7  A    between atoms: C_5  and  C_6
REMARK    8  A    between atoms: C_6  and  C_7
REMARK    9  A    between atoms: C_8  and  C_9
REMARK   10  A    between atoms: C_9  and  C_10
REMARK                            x       y       z     vdW  Elec       q    Type
REMARK                         _______ _______ _______ _____ _____    ______ ____
ROOT
ATOM      1  C   UNL     1       5.148   4.304  17.002  0.00  0.00    +0.000 C 
ENDROOT
BRANCH   1   2
ATOM      2  C   UNL     1       6.190   4.378  18.148  0.00  0.00    +0.000 C 
ATOM      3  N   UNL     1       7.513   4.401  17.837  0.00  0.00    +0.000 N 
ATOM      4  O   UNL     1       5.874   4.330  19.336  0.00  0.00    +0.000 OA
ATOM      5  H   UNL     1       7.876   4.597  16.917  0.00  0.00    +0.000 HD
ATOM      6  H   UNL     1       8.147   4.509  18.621  0.00  0.00    +0.000 HD
ENDBRANCH   1   2
BRANCH   1   7
ATOM      7  C   UNL     1       4.507   5.674  16.632  0.00  0.00    +0.000 C 
BRANCH   7   9
ATOM      8  C   UNL     1       3.062   7.185  18.040  0.00  0.00    +0.000 C 
ATOM      9  C   UNL     1       4.486   6.730  17.745  0.00  0.00    +0.000 C 
ENDBRANCH   7   9
ENDBRANCH   1   7
BRANCH   1  10
ATOM     10  C   UNL     1       4.070   3.278  17.487  0.00  0.00    +0.000 C 
BRANCH  10  11
ATOM     11  C   UNL     1       2.624   3.546  17.052  0.00  0.00    +0.000 C 
ATOM     12  C   UNL     1       1.711   3.697  18.261  0.00  0.00    +0.000 C 
ENDBRANCH  10  11
ENDBRANCH   1  10
BRANCH   1  13
ATOM     13  C   UNL     1       5.876   3.707  15.751  0.00  0.00    +0.000 C 
BRANCH  13  14
ATOM     14  C   UNL     1       5.785   4.533  14.461  0.00  0.00    +0.000 C 
ATOM     15  C   UNL     1       6.160   3.692  13.247  0.00  0.00    +0.000 C 
ENDBRANCH  13  14
ENDBRANCH   1  13
TORSDOF 7
ENDMDL
MODEL 6
REMARK VINA RESULT:      -5.1      0.848      3.882
REMARK  Name = 
REMARK  10 active torsions:
REMARK  status: ('A' for Active; 'I' for Inactive)
REMARK    1  A    between atoms: C_1  and  C_2
REMARK    2  A    between atoms: C_2  and  C_3
REMARK    3  A    between atoms: C_3  and  C_4
REMARK    4  A    between atoms: C_4  and  C_5
REMARK    5  A    between atoms: C_4  and  C_8
REMARK    6  A    between atoms: C_4  and  C_11
REMARK    7  A    between atoms: C_5  and  C_6
REMARK    8  A    between atoms: C_6  and  C_7
REMARK    9  A    between atoms: C_8  and  C_9
REMARK   10  A    between atoms: C_9  and  C_10
REMARK                            x       y       z     vdW  Elec       q    Type
REMARK                         _______ _______ _______ _____ _____    ______ ____
ROOT
ATOM      1  C   UNL     1       3.985   4.631  18.136  0.00  0.00    +0.000 C 
ENDROOT
BRANCH   1   2
ATOM      2  C   UNL     1       5.149   4.162  19.046  0.00  0.00    +0.000 C 
ATOM      3  N   UNL     1       5.161   2.879  19.494  0.00  0.00    +0.000 N 
ATOM      4  O   UNL     1       6.023   4.927  19.452  0.00  0.00    +0.000 OA
ATOM      5  H   UNL     1       4.594   2.138  19.110  0.00  0.00    +0.000 HD
ATOM      6  H   UNL     1       5.975   2.610  20.036  0.00  0.00    +0.000 HD
ENDBRANCH   1   2
BRANCH   1   7
ATOM      7  C   UNL     1       2.570   4.238  18.654  0.00  0.00    +0.000 C 
BRANCH   7   9
ATOM      8  C   UNL     1       0.877   2.375  18.775  0.00  0.00    +0.000 C 
ATOM      9  C   UNL     1       1.857   3.121  17.879  0.00  0.00    +0.000 C 
ENDBRANCH   7   9
ENDBRANCH   1   7
BRANCH   1  10
ATOM     10  C   UNL     1       4.277   4.004  16.731  0.00  0.00    +0.000 C 
BRANCH  10  11
ATOM     11  C   UNL     1       5.625   4.358  16.091  0.00  0.00    +0.000 C 
ATOM     12  C   UNL     1       5.522   4.355  14.571  0.00  0.00    +0.000 C 
ENDBRANCH  10  11
ENDBRANCH   1  10
BRANCH   1  13
ATOM     13  C   UNL     1       4.088   6.189  18.017  0.00  0.00    +0.000 C 
BRANCH  13  14
ATOM     14  C   UNL     1       2.893   6.986  18.558  0.00  0.00    +0.000 C 
ATOM     15  C   UNL     1       2.646   8.234  17.719  0.00  0.00    +0.000 C 
ENDBRANCH  13  14
ENDBRANCH   1  13
TORSDOF 7
ENDMDL
MODEL 7
REMARK VINA RESULT:      -5.1      1.323      4.171
REMARK  Name = 
REMARK  10 active torsions:
REMARK  status: ('A' for Active; 'I' for Inactive)
REMARK    1  A    between atoms: C_1  and  C_2
REMARK    2  A    between atoms: C_2  and  C_3
REMARK    3  A    between atoms: C_3  and  C_4
REMARK    4  A    between atoms: C_4  and  C_5
REMARK    5  A    between atoms: C_4  and  C_8
REMARK    6  A    between atoms: C_4  and  C_11
REMARK    7  A    between atoms: C_5  and  C_6
REMARK    8  A    between atoms: C_6  and  C_7
REMARK    9  A    between atoms: C_8  and  C_9
REMARK   10  A    between atoms: C_9  and  C_10
REMARK                            x       y       z     vdW  Elec       q    Type
REMARK                         _______ _______ _______ _____ _____    ______ ____
ROOT
ATOM      1  C   UNL     1       3.635   4.345  18.610  0.00  0.00    +0.000 C 
ENDROOT
BRANCH   1   2
ATOM      2  C   UNL     1       4.937   3.791  19.244  0.00  0.00    +0.000 C 
ATOM      3  N   UNL     1       4.993   2.479  19.598  0.00  0.00    +0.000 N 
ATOM      4  O   UNL     1       5.897   4.508  19.522  0.00  0.00    +0.000 OA
ATOM      5  H   UNL     1       4.339   1.778  19.284  0.00  0.00    +0.000 HD
ATOM      6  H   UNL     1       5.886   2.158  19.953  0.00  0.00    +0.000 HD
ENDBRANCH   1   2
BRANCH   1   7
ATOM      7  C   UNL     1       2.327   3.763  19.223  0.00  0.00    +0.000 C 
BRANCH   7   9
ATOM      8  C   UNL     1       1.808   2.911  21.537  0.00  0.00    +0.000 C 
ATOM      9  C   UNL     1       2.037   4.149  20.679  0.00  0.00    +0.000 C 
ENDBRANCH   7   9
ENDBRANCH   1   7
BRANCH   1  10
ATOM     10  C   UNL     1       3.748   4.021  17.082  0.00  0.00    +0.000 C 
BRANCH  10  11
ATOM     11  C   UNL     1       4.828   4.778  16.300  0.00  0.00    +0.000 C 
ATOM     12  C   UNL     1       5.823   3.811  15.673  0.00  0.00    +0.000 C 
ENDBRANCH  10  11
ENDBRANCH   1  10
BRANCH   1  13
ATOM     13  C   UNL     1       3.656   5.900  18.792  0.00  0.00    +0.000 C 
BRANCH  13  14
ATOM     14  C   UNL     1       2.441   6.659  18.242  0.00  0.00    +0.000 C 
ATOM     15  C   UNL     1       2.819   8.080  17.844  0.00  0.00    +0.000 C 
ENDBRANCH  13  14
ENDBRANCH   1  13
TORSDOF 7
ENDMDL
MODEL 8
REMARK VINA RESULT:      -5.1      2.370      4.417
REMARK  Name = 
REMARK  10 active torsions:
REMARK  status: ('A' for Active; 'I' for Inactive)
REMARK    1  A    between atoms: C_1  and  C_2
REMARK    2  A    between atoms: C_2  and  C_3
REMARK    3  A    between atoms: C_3  and  C_4
REMARK    4  A    between atoms: C_4  and  C_5
REMARK    5  A    between atoms: C_4  and  C_8
REMARK    6  A    between atoms: C_4  and  C_11
REMARK    7  A    between atoms: C_5  and  C_6
REMARK    8  A    between atoms: C_6  and  C_7
REMARK    9  A    between atoms: C_8  and  C_9
REMARK   10  A    between atoms: C_9  and  C_10
REMARK                            x       y       z     vdW  Elec       q    Type
REMARK                         _______ _______ _______ _____ _____    ______ ____
ROOT
ATOM      1  C   UNL     1       2.531   4.247  18.874  0.00  0.00    +0.000 C 
ENDROOT
BRANCH   1   2
ATOM      2  C   UNL     1       2.275   3.099  17.864  0.00  0.00    +0.000 C 
ATOM      3  N   UNL     1       2.242   1.817  18.316  0.00  0.00    +0.000 N 
ATOM      4  O   UNL     1       2.185   3.289  16.652  0.00  0.00    +0.000 OA
ATOM      5  H   UNL     1       2.151   1.560  19.288  0.00  0.00    +0.000 HD
ATOM      6  H   UNL     1       2.013   1.113  17.624  0.00  0.00    +0.000 HD
ENDBRANCH   1   2
BRANCH   1   7
ATOM      7  C   UNL     1       1.505   4.312  20.042  0.00  0.00    +0.000 C 
BRANCH   7   9
ATOM      8  C   UNL     1       1.531   2.498  21.792  0.00  0.00    +0.000 C 
ATOM      9  C   UNL     1       2.029   3.889  21.422  0.00  0.00    +0.000 C 
ENDBRANCH   7   9
ENDBRANCH   1   7
BRANCH   1  10
ATOM     10  C   UNL     1       2.515   5.560  18.021  0.00  0.00    +0.000 C 
BRANCH  10  11
ATOM     11  C   UNL     1       2.553   6.882  18.798  0.00  0.00    +0.000 C 
ATOM     12  C   UNL     1       2.724   8.064  17.853  0.00  0.00    +0.000 C 
ENDBRANCH  10  11
ENDBRANCH   1  10
BRANCH   1  13
ATOM     13  C   UNL     1       3.974   4.046  19.449  0.00  0.00    +0.000 C 
BRANCH  13  14
ATOM     14  C   UNL     1       5.130   4.294  18.471  0.00  0.00    +0.000 C 
ATOM     15  C   UNL     1       6.135   5.280  19.053  0.00  0.00    +0.000 C 
ENDBRANCH  13  14
ENDBRANCH   1  13
TORSDOF 7
ENDMDL
MODEL 9
REMARK VINA RESULT:      -5.1      1.740      3.127
REMARK  Name = 
REMARK  10 active torsions:
REMARK  status: ('A' for Active; 'I' for Inactive)
REMARK    1  A    between atoms: C_1  and  C_2
REMARK    2  A    between atoms: C_2  and  C_3
REMARK    3  A    between atoms: C_3  and  C_4
REMARK    4  A    between atoms: C_4  and  C_5
REMARK    5  A    between atoms: C_4  and  C_8
REMARK    6  A    between atoms: C_4  and  C_11
REMARK    7  A    between atoms: C_5  and  C_6
REMARK    8  A    between atoms: C_6  and  C_7
REMARK    9  A    between atoms: C_8  and  C_9
REMARK   10  A    between atoms: C_9  and  C_10
REMARK                            x       y       z     vdW  Elec       q    Type
REMARK                         _______ _______ _______ _____ _____    ______ ____
ROOT
ATOM      1  C   UNL     1       5.040   4.640  17.968  0.00  0.00    +0.000 C 
ENDROOT
BRANCH   1   2
ATOM      2  C   UNL     1       4.377   3.471  18.742  0.00  0.00    +0.000 C 
ATOM      3  N   UNL     1       5.147   2.690  19.546  0.00  0.00    +0.000 N 
ATOM      4  O   UNL     1       3.195   3.164  18.595  0.00  0.00    +0.000 OA
ATOM      5  H   UNL     1       6.074   2.937  19.857  0.00  0.00    +0.000 HD
ATOM      6  H   UNL     1       4.652   1.980  20.072  0.00  0.00    +0.000 HD
ENDBRANCH   1   2
BRANCH   1   7
ATOM      7  C   UNL     1       5.984   5.525  18.833  0.00  0.00    +0.000 C 
BRANCH   7   9
ATOM      8  C   UNL     1       7.599   7.117  17.732  0.00  0.00    +0.000 C 
ATOM      9  C   UNL     1       7.409   5.714  18.295  0.00  0.00    +0.000 C 
ENDBRANCH   7   9
ENDBRANCH   1   7
BRANCH   1  10
ATOM     10  C   UNL     1       3.853   5.473  17.378  0.00  0.00    +0.000 C 
BRANCH  10  11
ATOM     11  C   UNL     1       3.931   6.994  17.551  0.00  0.00    +0.000 C 
ATOM     12  C   UNL     1       2.625   7.547  18.105  0.00  0.00    +0.000 C 
ENDBRANCH  10  11
ENDBRANCH   1  10
BRANCH   1  13
ATOM     13  C   UNL     1       5.846   4.012  16.782  0.00  0.00    +0.000 C 
BRANCH  13  14
ATOM     14  C   UNL     1       5.379   4.397  15.372  0.00  0.00    +0.000 C 
ATOM     15  C   UNL     1       6.549   4.875  14.521  0.00  0.00    +0.000 C 
ENDBRANCH  13  14
ENDBRANCH   1  13
TORSDOF 7
ENDMDL
