MODEL 1
REMARK VINA RESULT:      -6.9      0.000      0.000
REMARK  Name = 
REMARK  5 active torsions:
REMARK  status: ('A' for Active; 'I' for Inactive)
REMARK    1  A    between atoms: C_1  and  N_2
REMARK    2  A    between atoms: N_5  and  N_6
REMARK    3  A    between atoms: N_6  and  C_7
REMARK    4  A    between atoms: N_11  and  C_12
REMARK    5  A    between atoms: N_15  and  C_16
REMARK                            x       y       z     vdW  Elec       q    Type
REMARK                         _______ _______ _______ _____ _____    ______ ____
ROOT
ATOM      1  C   UNL     1       3.975   3.991  16.831  0.00  0.00    +0.000 C 
ATOM      2  C   UNL     1       3.658   3.950  18.137  0.00  0.00    +0.000 C 
ATOM      3  C   UNL     1       2.291   4.289  18.574  0.00  0.00    +0.000 C 
ATOM      4  O   UNL     1       1.520   4.918  17.855  0.00  0.00    +0.000 OA
ATOM      5  N   UNL     1       1.974   3.812  19.841  0.00  0.00    +0.000 N 
ATOM      6  C   UNL     1       0.669   4.130  20.392  0.00  0.00    +0.000 C 
ATOM      7  C   UNL     1       2.728   2.875  20.541  0.00  0.00    +0.000 C 
ATOM      8  O   UNL     1       2.263   2.257  21.500  0.00  0.00    +0.000 OA
ATOM      9  N   UNL     1       4.029   2.684  20.104  0.00  0.00    +0.000 N 
ATOM     10  C   UNL     1       4.893   1.763  20.819  0.00  0.00    +0.000 C 
ATOM     11  C   UNL     1       4.615   3.490  19.151  0.00  0.00    +0.000 C 
ATOM     12  O   UNL     1       5.800   3.805  19.149  0.00  0.00    +0.000 OA
ENDROOT
BRANCH   1  13
ATOM     13  N   UNL     1       5.152   3.631  16.178  0.00  0.00    +0.000 N 
ATOM     14  H   UNL     1       5.863   3.456  16.900  0.00  0.00    +0.000 HD
BRANCH  13  19
ATOM     15  C   UNL     1       7.834   6.947  18.108  0.00  0.00    +0.000 C 
ATOM     16  N   UNL     1       7.297   6.505  16.821  0.00  0.00    +0.000 NA
ATOM     17  C   UNL     1       5.821   6.561  16.823  0.00  0.00    +0.000 C 
ATOM     18  C   UNL     1       5.179   5.946  15.552  0.00  0.00    +0.000 C 
ATOM     19  N   UNL     1       5.639   4.575  15.204  0.00  0.00    +0.000 NA
ATOM     20  C   UNL     1       7.122   4.610  15.215  0.00  0.00    +0.000 C 
ATOM     21  C   UNL     1       7.730   5.123  16.537  0.00  0.00    +0.000 C 
ENDBRANCH  13  19
ENDBRANCH   1  13
TORSDOF 2
ENDMDL
MODEL 2
REMARK VINA RESULT:      -6.5      1.884      3.042
REMARK  Name = 
REMARK  5 active torsions:
REMARK  status: ('A' for Active; 'I' for Inactive)
REMARK    1  A    between atoms: C_1  and  N_2
REMARK    2  A    between atoms: N_5  and  N_6
REMARK    3  A    between atoms: N_6  and  C_7
REMARK    4  A    between atoms: N_11  and  C_12
REMARK    5  A    between atoms: N_15  and  C_16
REMARK                            x       y       z     vdW  Elec       q    Type
REMARK                         _______ _______ _______ _____ _____    ______ ____
ROOT
ATOM      1  C   UNL     1       5.532   4.141  19.170  0.00  0.00    +0.000 C 
ATOM      2  C   UNL     1       4.194   4.202  19.047  0.00  0.00    +0.000 C 
ATOM      3  C   UNL     1       3.423   2.974  18.783  0.00  0.00    +0.000 C 
ATOM      4  O   UNL     1       3.954   1.957  18.347  0.00  0.00    +0.000 OA
ATOM      5  N   UNL     1       2.072   3.083  19.096  0.00  0.00    +0.000 N 
ATOM      6  C   UNL     1       1.207   1.948  18.829  0.00  0.00    +0.000 C 
ATOM      7  C   UNL     1       1.518   4.120  19.840  0.00  0.00    +0.000 C 
ATOM      8  O   UNL     1       0.401   4.024  20.352  0.00  0.00    +0.000 OA
ATOM      9  N   UNL     1       2.288   5.266  19.966  0.00  0.00    +0.000 N 
ATOM     10  C   UNL     1       1.753   6.409  20.681  0.00  0.00    +0.000 C 
ATOM     11  C   UNL     1       3.455   5.453  19.256  0.00  0.00    +0.000 C 
ATOM     12  O   UNL     1       3.836   6.538  18.831  0.00  0.00    +0.000 OA
ENDROOT
BRANCH   1  13
ATOM     13  N   UNL     1       6.452   5.132  19.506  0.00  0.00    +0.000 N 
ATOM     14  H   UNL     1       5.940   6.022  19.558  0.00  0.00    +0.000 HD
BRANCH  13  19
ATOM     15  C   UNL     1       5.258   6.711  15.264  0.00  0.00    +0.000 C 
ATOM     16  N   UNL     1       6.416   6.284  16.049  0.00  0.00    +0.000 NA
ATOM     17  C   UNL     1       6.285   4.868  16.448  0.00  0.00    +0.000 C 
ATOM     18  C   UNL     1       7.393   4.398  17.425  0.00  0.00    +0.000 C 
ATOM     19  N   UNL     1       7.589   5.252  18.628  0.00  0.00    +0.000 NA
ATOM     20  C   UNL     1       7.720   6.647  18.140  0.00  0.00    +0.000 C 
ATOM     21  C   UNL     1       6.545   7.119  17.260  0.00  0.00    +0.000 C 
ENDBRANCH  13  19
ENDBRANCH   1  13
TORSDOF 2
ENDMDL
MODEL 3
REMARK VINA RESULT:      -6.4      1.037      1.037
REMARK  Name = 
REMARK  5 active torsions:
REMARK  status: ('A' for Active; 'I' for Inactive)
REMARK    1  A    between atoms: C_1  and  N_2
REMARK    2  A    between atoms: N_5  and  N_6
REMARK    3  A    between atoms: N_6  and  C_7
REMARK    4  A    between atoms: N_11  and  C_12
REMARK    5  A    between atoms: N_15  and  C_16
REMARK                            x       y       z     vdW  Elec       q    Type
REMARK                         _______ _______ _______ _____ _____    ______ ____
ROOT
ATOM      1  C   UNL     1       3.882   4.811  17.042  0.00  0.00    +0.000 C 
ATOM      2  C   UNL     1       3.676   4.809  18.371  0.00  0.00    +0.000 C 
ATOM      3  C   UNL     1       2.660   5.700  18.960  0.00  0.00    +0.000 C 
ATOM      4  O   UNL     1       2.221   6.672  18.352  0.00  0.00    +0.000 OA
ATOM      5  N   UNL     1       2.247   5.316  20.231  0.00  0.00    +0.000 N 
ATOM      6  C   UNL     1       1.284   6.150  20.927  0.00  0.00    +0.000 C 
ATOM      7  C   UNL     1       2.525   4.081  20.809  0.00  0.00    +0.000 C 
ATOM      8  O   UNL     1       1.896   3.667  21.784  0.00  0.00    +0.000 OA
ATOM      9  N   UNL     1       3.553   3.351  20.233  0.00  0.00    +0.000 N 
ATOM     10  C   UNL     1       3.937   2.078  20.816  0.00  0.00    +0.000 C 
ATOM     11  C   UNL     1       4.378   3.876  19.261  0.00  0.00    +0.000 C 
ATOM     12  O   UNL     1       5.570   3.609  19.150  0.00  0.00    +0.000 OA
ENDROOT
BRANCH   1  13
ATOM     13  N   UNL     1       4.706   4.007  16.257  0.00  0.00    +0.000 N 
ATOM     14  H   UNL     1       5.311   3.473  16.894  0.00  0.00    +0.000 HD
BRANCH  13  19
ATOM     15  C   UNL     1       7.873   6.860  18.193  0.00  0.00    +0.000 C 
ATOM     16  N   UNL     1       7.381   6.398  16.895  0.00  0.00    +0.000 NA
ATOM     17  C   UNL     1       5.965   6.775  16.707  0.00  0.00    +0.000 C 
ATOM     18  C   UNL     1       5.331   6.169  15.428  0.00  0.00    +0.000 C 
ATOM     19  N   UNL     1       5.494   4.699  15.268  0.00  0.00    +0.000 NA
ATOM     20  C   UNL     1       6.936   4.410  15.462  0.00  0.00    +0.000 C 
ATOM     21  C   UNL     1       7.509   4.931  16.796  0.00  0.00    +0.000 C 
ENDBRANCH  13  19
ENDBRANCH   1  13
TORSDOF 2
ENDMDL
MODEL 4
REMARK VINA RESULT:      -6.3      1.804      5.764
REMARK  Name = 
REMARK  5 active torsions:
REMARK  status: ('A' for Active; 'I' for Inactive)
REMARK    1  A    between atoms: C_1  and  N_2
REMARK    2  A    between atoms: N_5  and  N_6
REMARK    3  A    between atoms: N_6  and  C_7
REMARK    4  A    between atoms: N_11  and  C_12
REMARK    5  A    between atoms: N_15  and  C_16
REMARK                            x       y       z     vdW  Elec       q    Type
REMARK                         _______ _______ _______ _____ _____    ______ ____
ROOT
ATOM      1  C   UNL     1       4.666   3.195  18.949  0.00  0.00    +0.000 C 
ATOM      2  C   UNL     1       5.135   4.187  18.170  0.00  0.00    +0.000 C 
ATOM      3  C   UNL     1       6.136   5.129  18.702  0.00  0.00    +0.000 C 
ATOM      4  O   UNL     1       6.324   5.261  19.908  0.00  0.00    +0.000 OA
ATOM      5  N   UNL     1       6.839   5.814  17.716  0.00  0.00    +0.000 N 
ATOM      6  C   UNL     1       7.817   6.805  18.127  0.00  0.00    +0.000 C 
ATOM      7  C   UNL     1       6.832   5.476  16.366  0.00  0.00    +0.000 C 
ATOM      8  O   UNL     1       7.690   5.899  15.589  0.00  0.00    +0.000 OA
ATOM      9  N   UNL     1       5.803   4.648  15.945  0.00  0.00    +0.000 N 
ATOM     10  C   UNL     1       5.699   4.298  14.541  0.00  0.00    +0.000 C 
ATOM     11  C   UNL     1       4.743   4.314  16.761  0.00  0.00    +0.000 C 
ATOM     12  O   UNL     1       3.593   4.152  16.365  0.00  0.00    +0.000 OA
ENDROOT
BRANCH   1  13
ATOM     13  N   UNL     1       3.801   2.145  18.646  0.00  0.00    +0.000 N 
ATOM     14  H   UNL     1       3.377   2.349  17.733  0.00  0.00    +0.000 HD
BRANCH  13  19
ATOM     15  C   UNL     1       1.708   6.048  20.160  0.00  0.00    +0.000 C 
ATOM     16  N   UNL     1       1.695   4.596  20.330  0.00  0.00    +0.000 NA
ATOM     17  C   UNL     1       2.989   4.119  20.858  0.00  0.00    +0.000 C 
ATOM     18  C   UNL     1       3.106   2.573  20.902  0.00  0.00    +0.000 C 
ATOM     19  N   UNL     1       2.783   1.873  19.630  0.00  0.00    +0.000 NA
ATOM     20  C   UNL     1       1.473   2.400  19.176  0.00  0.00    +0.000 C 
ATOM     21  C   UNL     1       1.426   3.935  19.038  0.00  0.00    +0.000 C 
ENDBRANCH  13  19
ENDBRANCH   1  13
TORSDOF 2
ENDMDL
MODEL 5
REMARK VINA RESULT:      -6.3      2.152      5.988
REMARK  Name = 
REMARK  5 active torsions:
REMARK  status: ('A' for Active; 'I' for Inactive)
REMARK    1  A    between atoms: C_1  and  N_2
REMARK    2  A    between atoms: N_5  and  N_6
REMARK    3  A    between atoms: N_6  and  C_7
REMARK    4  A    between atoms: N_11  and  C_12
REMARK    5  A    between atoms: N_15  and  C_16
REMARK                            x       y       z     vdW  Elec       q    Type
REMARK                         _______ _______ _______ _____ _____    ______ ____
ROOT
ATOM      1  C   UNL     1       3.501   3.908  16.506  0.00  0.00    +0.000 C 
ATOM      2  C   UNL     1       4.811   4.210  16.460  0.00  0.00    +0.000 C 
ATOM      3  C   UNL     1       5.488   4.358  15.159  0.00  0.00    +0.000 C 
ATOM      4  O   UNL     1       5.006   3.905  14.124  0.00  0.00    +0.000 OA
ATOM      5  N   UNL     1       6.682   5.067  15.226  0.00  0.00    +0.000 N 
ATOM      6  C   UNL     1       7.458   5.231  14.010  0.00  0.00    +0.000 C 
ATOM      7  C   UNL     1       7.093   5.815  16.326  0.00  0.00    +0.000 C 
ATOM      8  O   UNL     1       7.983   6.661  16.236  0.00  0.00    +0.000 OA
ATOM      9  N   UNL     1       6.451   5.546  17.525  0.00  0.00    +0.000 N 
ATOM     10  C   UNL     1       6.865   6.247  18.726  0.00  0.00    +0.000 C 
ATOM     11  C   UNL     1       5.584   4.485  17.678  0.00  0.00    +0.000 C 
ATOM     12  O   UNL     1       5.472   3.830  18.708  0.00  0.00    +0.000 OA
ENDROOT
BRANCH   1  13
ATOM     13  N   UNL     1       2.637   3.810  17.595  0.00  0.00    +0.000 N 
ATOM     14  H   UNL     1       3.151   4.129  18.425  0.00  0.00    +0.000 HD
BRANCH  13  19
ATOM     15  C   UNL     1       1.902   2.961  22.139  0.00  0.00    +0.000 C 
ATOM     16  N   UNL     1       1.750   2.356  20.816  0.00  0.00    +0.000 NA
ATOM     17  C   UNL     1       3.065   2.181  20.166  0.00  0.00    +0.000 C 
ATOM     18  C   UNL     1       2.966   1.703  18.694  0.00  0.00    +0.000 C 
ATOM     19  N   UNL     1       2.067   2.505  17.822  0.00  0.00    +0.000 NA
ATOM     20  C   UNL     1       0.775   2.625  18.540  0.00  0.00    +0.000 C 
ATOM     21  C   UNL     1       0.897   3.207  19.963  0.00  0.00    +0.000 C 
ENDBRANCH  13  19
ENDBRANCH   1  13
TORSDOF 2
ENDMDL
MODEL 6
REMARK VINA RESULT:      -6.2      2.217      2.876
REMARK  Name = 
REMARK  5 active torsions:
REMARK  status: ('A' for Active; 'I' for Inactive)
REMARK    1  A    between atoms: C_1  and  N_2
REMARK    2  A    between atoms: N_5  and  N_6
REMARK    3  A    between atoms: N_6  and  C_7
REMARK    4  A    between atoms: N_11  and  C_12
REMARK    5  A    between atoms: N_15  and  C_16
REMARK                            x       y       z     vdW  Elec       q    Type
REMARK                         _______ _______ _______ _____ _____    ______ ____
ROOT
ATOM      1  C   UNL     1       4.401   5.471  16.921  0.00  0.00    +0.000 C 
ATOM      2  C   UNL     1       3.252   5.275  17.593  0.00  0.00    +0.000 C 
ATOM      3  C   UNL     1       2.643   3.933  17.634  0.00  0.00    +0.000 C 
ATOM      4  O   UNL     1       2.947   3.060  16.826  0.00  0.00    +0.000 OA
ATOM      5  N   UNL     1       1.734   3.762  18.672  0.00  0.00    +0.000 N 
ATOM      6  C   UNL     1       1.037   2.493  18.778  0.00  0.00    +0.000 C 
ATOM      7  C   UNL     1       1.591   4.636  19.745  0.00  0.00    +0.000 C 
ATOM      8  O   UNL     1       1.011   4.301  20.780  0.00  0.00    +0.000 OA
ATOM      9  N   UNL     1       2.127   5.904  19.580  0.00  0.00    +0.000 N 
ATOM     10  C   UNL     1       1.968   6.888  20.635  0.00  0.00    +0.000 C 
ATOM     11  C   UNL     1       2.618   6.347  18.371  0.00  0.00    +0.000 C 
ATOM     12  O   UNL     1       2.528   7.504  17.972  0.00  0.00    +0.000 OA
ENDROOT
BRANCH   1  13
ATOM     13  N   UNL     1       5.200   6.608  16.819  0.00  0.00    +0.000 N 
ATOM     14  H   UNL     1       4.691   7.292  16.245  0.00  0.00    +0.000 HD
BRANCH  13  19
ATOM     15  C   UNL     1       8.252   5.387  20.152  0.00  0.00    +0.000 C 
ATOM     16  N   UNL     1       8.156   5.632  18.713  0.00  0.00    +0.000 NA
ATOM     17  C   UNL     1       7.774   7.033  18.445  0.00  0.00    +0.000 C 
ATOM     18  C   UNL     1       7.488   7.319  16.948  0.00  0.00    +0.000 C 
ATOM     19  N   UNL     1       6.526   6.392  16.294  0.00  0.00    +0.000 NA
ATOM     20  C   UNL     1       6.986   5.016  16.603  0.00  0.00    +0.000 C 
ATOM     21  C   UNL     1       7.154   4.732  18.110  0.00  0.00    +0.000 C 
ENDBRANCH  13  19
ENDBRANCH   1  13
TORSDOF 2
ENDMDL
MODEL 7
REMARK VINA RESULT:      -6.1      2.189      5.865
REMARK  Name = 
REMARK  5 active torsions:
REMARK  status: ('A' for Active; 'I' for Inactive)
REMARK    1  A    between atoms: C_1  and  N_2
REMARK    2  A    between atoms: N_5  and  N_6
REMARK    3  A    between atoms: N_6  and  C_7
REMARK    4  A    between atoms: N_11  and  C_12
REMARK    5  A    between atoms: N_15  and  C_16
REMARK                            x       y       z     vdW  Elec       q    Type
REMARK                         _______ _______ _______ _____ _____    ______ ____
ROOT
ATOM      1  C   UNL     1       3.883   3.411  16.582  0.00  0.00    +0.000 C 
ATOM      2  C   UNL     1       5.127   3.919  16.539  0.00  0.00    +0.000 C 
ATOM      3  C   UNL     1       5.753   4.227  15.240  0.00  0.00    +0.000 C 
ATOM      4  O   UNL     1       5.335   3.746  14.191  0.00  0.00    +0.000 OA
ATOM      5  N   UNL     1       6.820   5.114  15.329  0.00  0.00    +0.000 N 
ATOM      6  C   UNL     1       7.542   5.450  14.115  0.00  0.00    +0.000 C 
ATOM      7  C   UNL     1       7.123   5.872  16.456  0.00  0.00    +0.000 C 
ATOM      8  O   UNL     1       7.865   6.853  16.396  0.00  0.00    +0.000 OA
ATOM      9  N   UNL     1       6.549   5.456  17.648  0.00  0.00    +0.000 N 
ATOM     10  C   UNL     1       6.863   6.164  18.875  0.00  0.00    +0.000 C 
ATOM     11  C   UNL     1       5.864   4.265  17.762  0.00  0.00    +0.000 C 
ATOM     12  O   UNL     1       5.873   3.558  18.764  0.00  0.00    +0.000 OA
ENDROOT
BRANCH   1  13
ATOM     13  N   UNL     1       3.062   3.131  17.672  0.00  0.00    +0.000 N 
ATOM     14  H   UNL     1       2.596   2.234  17.485  0.00  0.00    +0.000 HD
BRANCH  13  19
ATOM     15  C   UNL     1       1.492   2.735  22.064  0.00  0.00    +0.000 C 
ATOM     16  N   UNL     1       1.351   3.555  20.861  0.00  0.00    +0.000 NA
ATOM     17  C   UNL     1       0.820   2.752  19.741  0.00  0.00    +0.000 C 
ATOM     18  C   UNL     1       0.805   3.513  18.390  0.00  0.00    +0.000 C 
ATOM     19  N   UNL     1       2.093   4.147  18.000  0.00  0.00    +0.000 NA
ATOM     20  C   UNL     1       2.549   4.936  19.171  0.00  0.00    +0.000 C 
ATOM     21  C   UNL     1       2.658   4.121  20.476  0.00  0.00    +0.000 C 
ENDBRANCH  13  19
ENDBRANCH   1  13
TORSDOF 2
ENDMDL
MODEL 8
REMARK VINA RESULT:      -6.1      1.626      2.549
REMARK  Name = 
REMARK  5 active torsions:
REMARK  status: ('A' for Active; 'I' for Inactive)
REMARK    1  A    between atoms: C_1  and  N_2
REMARK    2  A    between atoms: N_5  and  N_6
REMARK    3  A    between atoms: N_6  and  C_7
REMARK    4  A    between atoms: N_11  and  C_12
REMARK    5  A    between atoms: N_15  and  C_16
REMARK                            x       y       z     vdW  Elec       q    Type
REMARK                         _______ _______ _______ _____ _____    ______ ____
ROOT
ATOM      1  C   UNL     1       4.641   5.713  19.175  0.00  0.00    +0.000 C 
ATOM      2  C   UNL     1       3.845   4.679  19.501  0.00  0.00    +0.000 C 
ATOM      3  C   UNL     1       2.462   4.926  19.947  0.00  0.00    +0.000 C 
ATOM      4  O   UNL     1       2.099   6.028  20.349  0.00  0.00    +0.000 OA
ATOM      5  N   UNL     1       1.632   3.815  19.843  0.00  0.00    +0.000 N 
ATOM      6  C   UNL     1       0.260   3.932  20.301  0.00  0.00    +0.000 C 
ATOM      7  C   UNL     1       1.951   2.658  19.139  0.00  0.00    +0.000 C 
ATOM      8  O   UNL     1       1.089   1.840  18.813  0.00  0.00    +0.000 OA
ATOM      9  N   UNL     1       3.291   2.474  18.834  0.00  0.00    +0.000 N 
ATOM     10  C   UNL     1       3.707   1.264  18.150  0.00  0.00    +0.000 C 
ATOM     11  C   UNL     1       4.283   3.286  19.343  0.00  0.00    +0.000 C 
ATOM     12  O   UNL     1       5.406   2.896  19.645  0.00  0.00    +0.000 OA
ENDROOT
BRANCH   1  13
ATOM     13  N   UNL     1       5.930   5.725  18.648  0.00  0.00    +0.000 N 
ATOM     14  H   UNL     1       6.585   5.803  19.436  0.00  0.00    +0.000 HD
BRANCH  13  19
ATOM     15  C   UNL     1       6.258   3.989  14.313  0.00  0.00    +0.000 C 
ATOM     16  N   UNL     1       6.324   5.247  15.057  0.00  0.00    +0.000 NA
ATOM     17  C   UNL     1       7.445   5.227  16.019  0.00  0.00    +0.000 C 
ATOM     18  C   UNL     1       7.470   6.459  16.961  0.00  0.00    +0.000 C 
ATOM     19  N   UNL     1       6.193   6.749  17.667  0.00  0.00    +0.000 NA
ATOM     20  C   UNL     1       5.129   6.759  16.634  0.00  0.00    +0.000 C 
ATOM     21  C   UNL     1       5.061   5.472  15.787  0.00  0.00    +0.000 C 
ENDBRANCH  13  19
ENDBRANCH   1  13
TORSDOF 2
ENDMDL
MODEL 9
REMARK VINA RESULT:      -6.1      2.150      2.871
REMARK  Name = 
REMARK  5 active torsions:
REMARK  status: ('A' for Active; 'I' for Inactive)
REMARK    1  A    between atoms: C_1  and  N_2
REMARK    2  A    between atoms: N_5  and  N_6
REMARK    3  A    between atoms: N_6  and  C_7
REMARK    4  A    between atoms: N_11  and  C_12
REMARK    5  A    between atoms: N_15  and  C_16
REMARK                            x       y       z     vdW  Elec       q    Type
REMARK                         _______ _______ _______ _____ _____    ______ ____
ROOT
ATOM      1  C   UNL     1       5.201   3.716  18.953  0.00  0.00    +0.000 C 
ATOM      2  C   UNL     1       3.874   3.930  18.888  0.00  0.00    +0.000 C 
ATOM      3  C   UNL     1       2.958   2.803  18.636  0.00  0.00    +0.000 C 
ATOM      4  O   UNL     1       3.353   1.742  18.161  0.00  0.00    +0.000 OA
ATOM      5  N   UNL     1       1.642   3.058  19.007  0.00  0.00    +0.000 N 
ATOM      6  C   UNL     1       0.644   2.033  18.757  0.00  0.00    +0.000 C 
ATOM      7  C   UNL     1       1.239   4.134  19.791  0.00  0.00    +0.000 C 
ATOM      8  O   UNL     1       0.140   4.154  20.347  0.00  0.00    +0.000 OA
ATOM      9  N   UNL     1       2.139   5.183  19.902  0.00  0.00    +0.000 N 
ATOM     10  C   UNL     1       1.766   6.364  20.659  0.00  0.00    +0.000 C 
ATOM     11  C   UNL     1       3.290   5.253  19.148  0.00  0.00    +0.000 C 
ATOM     12  O   UNL     1       3.775   6.297  18.724  0.00  0.00    +0.000 OA
ENDROOT
BRANCH   1  13
ATOM     13  N   UNL     1       6.239   4.591  19.266  0.00  0.00    +0.000 N 
ATOM     14  H   UNL     1       5.853   5.544  19.256  0.00  0.00    +0.000 HD
BRANCH  13  19
ATOM     15  C   UNL     1       7.519   8.767  17.581  0.00  0.00    +0.000 C 
ATOM     16  N   UNL     1       7.894   7.353  17.560  0.00  0.00    +0.000 NA
ATOM     17  C   UNL     1       6.821   6.535  16.958  0.00  0.00    +0.000 C 
ATOM     18  C   UNL     1       7.078   5.010  17.058  0.00  0.00    +0.000 C 
ATOM     19  N   UNL     1       7.403   4.505  18.420  0.00  0.00    +0.000 NA
ATOM     20  C   UNL     1       8.488   5.370  18.945  0.00  0.00    +0.000 C 
ATOM     21  C   UNL     1       8.155   6.876  18.932  0.00  0.00    +0.000 C 
ENDBRANCH  13  19
ENDBRANCH   1  13
TORSDOF 2
ENDMDL
