MODEL 1
REMARK VINA RESULT:      -8.4      0.000      0.000
REMARK  Name = 
REMARK  11 active torsions:
REMARK  status: ('A' for Active; 'I' for Inactive)
REMARK    1  A    between atoms: C_1  and  C_2
REMARK    2  A    between atoms: C_2  and  N_3
REMARK    3  A    between atoms: C_4  and  C_6
REMARK    4  A    between atoms: C_9  and  C_10
REMARK    5  A    between atoms: C_11  and  C_12
REMARK    6  A    between atoms: C_15  and  O_16
REMARK    7  A    between atoms: O_16  and  C_17
REMARK    8  A    between atoms: C_17  and  C_18
REMARK    9  A    between atoms: C_22  and  C_23
REMARK   10  A    between atoms: N_25  and  C_26
REMARK   11  A    between atoms: N_25  and  C_27
REMARK                            x       y       z     vdW  Elec       q    Type
REMARK                         _______ _______ _______ _____ _____    ______ ____
ROOT
ATOM      1  C   UNL     1       1.259   9.043  19.594  0.00  0.00    +0.000 A 
ATOM      2  C   UNL     1       0.627   9.179  20.828  0.00  0.00    +0.000 A 
ATOM      3  C   UNL     1       1.334   9.517  22.093  0.00  0.00    +0.000 C 
ATOM      4  N   UNL     1      -0.694   9.524  20.608  0.00  0.00    +0.000 NA
ATOM      5  C   UNL     1      -0.685  10.077  19.391  0.00  0.00    +0.000 A 
ATOM      6  C   UNL     1      -1.549  11.118  18.900  0.00  0.00    +0.000 A 
ATOM      7  C   UNL     1      -1.051  12.372  18.947  0.00  0.00    +0.000 A 
ATOM      8  C   UNL     1       0.365  12.578  19.235  0.00  0.00    +0.000 A 
ATOM      9  C   UNL     1       1.218  11.531  19.134  0.00  0.00    +0.000 A 
ATOM     10  N   UNL     1       0.688  10.205  19.047  0.00  0.00    +0.000 N 
ENDROOT
BRANCH   1  14
ATOM     11  C   UNL     1       3.940   5.996  18.168  0.00  0.00    +0.000 A 
ATOM     12  C   UNL     1       3.765   7.181  17.467  0.00  0.00    +0.000 A 
ATOM     13  C   UNL     1       2.849   8.102  17.963  0.00  0.00    +0.000 A 
ATOM     14  C   UNL     1       2.106   7.909  19.144  0.00  0.00    +0.000 A 
ATOM     15  C   UNL     1       2.351   6.685  19.761  0.00  0.00    +0.000 A 
ATOM     16  N   UNL     1       3.243   5.717  19.317  0.00  0.00    +0.000 NA
BRANCH  11  18
ATOM     17  N   UNL     1       5.736   5.421  16.549  0.00  0.00    +0.000 N 
ATOM     18  C   UNL     1       4.997   5.034  17.642  0.00  0.00    +0.000 C 
ATOM     19  O   UNL     1       5.139   3.951  18.184  0.00  0.00    +0.000 OA
ATOM     20  H   UNL     1       5.548   6.340  16.163  0.00  0.00    +0.000 HD
BRANCH  17  22
ATOM     21  C   UNL     1       6.103   3.941  14.571  0.00  0.00    +0.000 C 
ATOM     22  C   UNL     1       6.656   4.514  15.867  0.00  0.00    +0.000 C 
ENDBRANCH  17  22
ENDBRANCH  11  18
ENDBRANCH   1  14
BRANCH   6  23
ATOM     23  O   UNL     1      -2.793  10.731  18.474  0.00  0.00    +0.000 OA
BRANCH  23  24
ATOM     24  C   UNL     1      -3.364  11.494  17.394  0.00  0.00    +0.000 C 
BRANCH  24  25
ATOM     25  C   UNL     1      -4.815  11.728  17.738  0.00  0.00    +0.000 A 
ATOM     26  C   UNL     1      -5.676  12.423  16.880  0.00  0.00    +0.000 A 
ATOM     27  C   UNL     1      -6.958  12.770  17.307  0.00  0.00    +0.000 A 
ATOM     28  C   UNL     1      -7.360  12.478  18.612  0.00  0.00    +0.000 A 
ATOM     29  C   UNL     1      -6.507  11.784  19.484  0.00  0.00    +0.000 A 
ATOM     30  C   UNL     1      -5.285  11.324  18.998  0.00  0.00    +0.000 A 
BRANCH  29  31
ATOM     31  C   UNL     1      -6.952  11.585  20.894  0.00  0.00    +0.000 C 
ATOM     32  O   UNL     1      -7.423  10.477  21.163  0.00  0.00    +0.000 OA
ATOM     33  N   UNL     1      -6.898  12.619  21.839  0.00  0.00    +0.000 N 
ATOM     34  C   UNL     1      -6.336  13.954  21.659  0.00  0.00    +0.000 C 
ATOM     35  C   UNL     1      -7.375  12.335  23.184  0.00  0.00    +0.000 C 
ENDBRANCH  29  31
ENDBRANCH  24  25
ENDBRANCH  23  24
ENDBRANCH   6  23
TORSDOF 7
ENDMDL
MODEL 2
REMARK VINA RESULT:      -8.0      2.217     10.599
REMARK  Name = 
REMARK  11 active torsions:
REMARK  status: ('A' for Active; 'I' for Inactive)
REMARK    1  A    between atoms: C_1  and  C_2
REMARK    2  A    between atoms: C_2  and  N_3
REMARK    3  A    between atoms: C_4  and  C_6
REMARK    4  A    between atoms: C_9  and  C_10
REMARK    5  A    between atoms: C_11  and  C_12
REMARK    6  A    between atoms: C_15  and  O_16
REMARK    7  A    between atoms: O_16  and  C_17
REMARK    8  A    between atoms: C_17  and  C_18
REMARK    9  A    between atoms: C_22  and  C_23
REMARK   10  A    between atoms: N_25  and  C_26
REMARK   11  A    between atoms: N_25  and  C_27
REMARK                            x       y       z     vdW  Elec       q    Type
REMARK                         _______ _______ _______ _____ _____    ______ ____
ROOT
ATOM      1  C   UNL     1      -0.708  10.903  19.513  0.00  0.00    +0.000 A 
ATOM      2  C   UNL     1       0.493  11.607  19.571  0.00  0.00    +0.000 A 
ATOM      3  C   UNL     1       0.841  12.571  20.650  0.00  0.00    +0.000 C 
ATOM      4  N   UNL     1       1.455  10.888  18.887  0.00  0.00    +0.000 NA
ATOM      5  C   UNL     1       0.997   9.632  18.909  0.00  0.00    +0.000 A 
ATOM      6  C   UNL     1       1.773   8.421  18.924  0.00  0.00    +0.000 A 
ATOM      7  C   UNL     1       1.970   7.859  20.136  0.00  0.00    +0.000 A 
ATOM      8  C   UNL     1       1.210   8.336  21.287  0.00  0.00    +0.000 A 
ATOM      9  C   UNL     1       0.106   9.092  21.081  0.00  0.00    +0.000 A 
ATOM     10  N   UNL     1      -0.122   9.656  19.785  0.00  0.00    +0.000 N 
ENDROOT
BRANCH   1  14
ATOM     11  C   UNL     1      -4.636  12.148  18.275  0.00  0.00    +0.000 A 
ATOM     12  C   UNL     1      -3.870  11.302  17.485  0.00  0.00    +0.000 A 
ATOM     13  C   UNL     1      -2.593  10.977  17.926  0.00  0.00    +0.000 A 
ATOM     14  C   UNL     1      -2.041  11.441  19.136  0.00  0.00    +0.000 A 
ATOM     15  C   UNL     1      -2.888  12.290  19.844  0.00  0.00    +0.000 A 
ATOM     16  N   UNL     1      -4.170  12.663  19.459  0.00  0.00    +0.000 NA
BRANCH  11  18
ATOM     17  N   UNL     1      -6.330  13.686  17.303  0.00  0.00    +0.000 N 
ATOM     18  C   UNL     1      -6.056  12.435  17.804  0.00  0.00    +0.000 C 
ATOM     19  O   UNL     1      -6.904  11.566  17.907  0.00  0.00    +0.000 OA
ATOM     20  H   UNL     1      -5.562  14.346  17.256  0.00  0.00    +0.000 HD
BRANCH  17  22
ATOM     21  C   UNL     1      -7.744  15.405  16.171  0.00  0.00    +0.000 C 
ATOM     22  C   UNL     1      -7.687  14.116  16.978  0.00  0.00    +0.000 C 
ENDBRANCH  17  22
ENDBRANCH  11  18
ENDBRANCH   1  14
BRANCH   6  23
ATOM     23  O   UNL     1       2.258   7.989  17.717  0.00  0.00    +0.000 OA
BRANCH  23  24
ATOM     24  C   UNL     1       3.668   8.177  17.490  0.00  0.00    +0.000 C 
BRANCH  24  25
ATOM     25  C   UNL     1       4.273   6.806  17.306  0.00  0.00    +0.000 A 
ATOM     26  C   UNL     1       4.984   6.461  16.152  0.00  0.00    +0.000 A 
ATOM     27  C   UNL     1       5.377   5.138  15.943  0.00  0.00    +0.000 A 
ATOM     28  C   UNL     1       5.008   4.149  16.857  0.00  0.00    +0.000 A 
ATOM     29  C   UNL     1       4.293   4.481  18.018  0.00  0.00    +0.000 A 
ATOM     30  C   UNL     1       4.029   5.824  18.279  0.00  0.00    +0.000 A 
BRANCH  29  31
ATOM     31  C   UNL     1       3.842   3.372  18.908  0.00  0.00    +0.000 C 
ATOM     32  O   UNL     1       4.716   2.841  19.599  0.00  0.00    +0.000 OA
ATOM     33  N   UNL     1       2.516   2.918  18.910  0.00  0.00    +0.000 N 
ATOM     34  C   UNL     1       1.387   3.478  18.172  0.00  0.00    +0.000 C 
ATOM     35  C   UNL     1       2.177   1.816  19.798  0.00  0.00    +0.000 C 
ENDBRANCH  29  31
ENDBRANCH  24  25
ENDBRANCH  23  24
ENDBRANCH   6  23
TORSDOF 7
ENDMDL
MODEL 3
REMARK VINA RESULT:      -7.9      1.064      1.132
REMARK  Name = 
REMARK  11 active torsions:
REMARK  status: ('A' for Active; 'I' for Inactive)
REMARK    1  A    between atoms: C_1  and  C_2
REMARK    2  A    between atoms: C_2  and  N_3
REMARK    3  A    between atoms: C_4  and  C_6
REMARK    4  A    between atoms: C_9  and  C_10
REMARK    5  A    between atoms: C_11  and  C_12
REMARK    6  A    between atoms: C_15  and  O_16
REMARK    7  A    between atoms: O_16  and  C_17
REMARK    8  A    between atoms: C_17  and  C_18
REMARK    9  A    between atoms: C_22  and  C_23
REMARK   10  A    between atoms: N_25  and  C_26
REMARK   11  A    between atoms: N_25  and  C_27
REMARK                            x       y       z     vdW  Elec       q    Type
REMARK                         _______ _______ _______ _____ _____    ______ ____
ROOT
ATOM      1  C   UNL     1       1.137   9.469  19.305  0.00  0.00    +0.000 A 
ATOM      2  C   UNL     1       0.150   9.591  20.280  0.00  0.00    +0.000 A 
ATOM      3  C   UNL     1       0.431   9.742  21.735  0.00  0.00    +0.000 C 
ATOM      4  N   UNL     1      -0.985  10.116  19.691  0.00  0.00    +0.000 NA
ATOM      5  C   UNL     1      -0.523  10.753  18.610  0.00  0.00    +0.000 A 
ATOM      6  C   UNL     1      -1.074  11.927  17.989  0.00  0.00    +0.000 A 
ATOM      7  C   UNL     1      -0.502  13.101  18.330  0.00  0.00    +0.000 A 
ATOM      8  C   UNL     1       0.753  13.105  19.076  0.00  0.00    +0.000 A 
ATOM      9  C   UNL     1       1.488  11.969  19.136  0.00  0.00    +0.000 A 
ATOM     10  N   UNL     1       0.892  10.731  18.737  0.00  0.00    +0.000 N 
ENDROOT
BRANCH   1  14
ATOM     11  C   UNL     1       3.788   6.221  18.339  0.00  0.00    +0.000 A 
ATOM     12  C   UNL     1       3.623   7.293  17.473  0.00  0.00    +0.000 A 
ATOM     13  C   UNL     1       2.717   8.286  17.830  0.00  0.00    +0.000 A 
ATOM     14  C   UNL     1       1.973   8.273  19.025  0.00  0.00    +0.000 A 
ATOM     15  C   UNL     1       2.207   7.149  19.814  0.00  0.00    +0.000 A 
ATOM     16  N   UNL     1       3.089   6.119  19.516  0.00  0.00    +0.000 NA
BRANCH  11  18
ATOM     17  N   UNL     1       5.342   5.213  16.681  0.00  0.00    +0.000 N 
ATOM     18  C   UNL     1       4.835   5.182  17.959  0.00  0.00    +0.000 C 
ATOM     19  O   UNL     1       5.172   4.348  18.781  0.00  0.00    +0.000 OA
ATOM     20  H   UNL     1       5.001   5.943  16.064  0.00  0.00    +0.000 HD
BRANCH  17  22
ATOM     21  C   UNL     1       6.084   3.936  14.668  0.00  0.00    +0.000 C 
ATOM     22  C   UNL     1       6.223   4.169  16.165  0.00  0.00    +0.000 C 
ENDBRANCH  17  22
ENDBRANCH  11  18
ENDBRANCH   1  14
BRANCH   6  23
ATOM     23  O   UNL     1      -2.139  11.734  17.148  0.00  0.00    +0.000 OA
BRANCH  23  24
ATOM     24  C   UNL     1      -3.076  10.708  17.528  0.00  0.00    +0.000 C 
BRANCH  24  25
ATOM     25  C   UNL     1      -4.342  11.406  17.964  0.00  0.00    +0.000 A 
ATOM     26  C   UNL     1      -5.204  12.016  17.045  0.00  0.00    +0.000 A 
ATOM     27  C   UNL     1      -6.268  12.797  17.497  0.00  0.00    +0.000 A 
ATOM     28  C   UNL     1      -6.437  13.019  18.866  0.00  0.00    +0.000 A 
ATOM     29  C   UNL     1      -5.579  12.414  19.798  0.00  0.00    +0.000 A 
ATOM     30  C   UNL     1      -4.609  11.528  19.337  0.00  0.00    +0.000 A 
BRANCH  29  31
ATOM     31  C   UNL     1      -5.748  12.764  21.238  0.00  0.00    +0.000 C 
ATOM     32  O   UNL     1      -6.528  12.056  21.881  0.00  0.00    +0.000 OA
ATOM     33  N   UNL     1      -5.107  13.872  21.810  0.00  0.00    +0.000 N 
ATOM     34  C   UNL     1      -4.141  14.762  21.173  0.00  0.00    +0.000 C 
ATOM     35  C   UNL     1      -5.350  14.144  23.218  0.00  0.00    +0.000 C 
ENDBRANCH  29  31
ENDBRANCH  24  25
ENDBRANCH  23  24
ENDBRANCH   6  23
TORSDOF 7
ENDMDL
MODEL 4
REMARK VINA RESULT:      -7.9      1.259      1.389
REMARK  Name = 
REMARK  11 active torsions:
REMARK  status: ('A' for Active; 'I' for Inactive)
REMARK    1  A    between atoms: C_1  and  C_2
REMARK    2  A    between atoms: C_2  and  N_3
REMARK    3  A    between atoms: C_4  and  C_6
REMARK    4  A    between atoms: C_9  and  C_10
REMARK    5  A    between atoms: C_11  and  C_12
REMARK    6  A    between atoms: C_15  and  O_16
REMARK    7  A    between atoms: O_16  and  C_17
REMARK    8  A    between atoms: C_17  and  C_18
REMARK    9  A    between atoms: C_22  and  C_23
REMARK   10  A    between atoms: N_25  and  C_26
REMARK   11  A    between atoms: N_25  and  C_27
REMARK                            x       y       z     vdW  Elec       q    Type
REMARK                         _______ _______ _______ _____ _____    ______ ____
ROOT
ATOM      1  C   UNL     1       1.121   9.491  19.317  0.00  0.00    +0.000 A 
ATOM      2  C   UNL     1       0.172   9.628  20.328  0.00  0.00    +0.000 A 
ATOM      3  C   UNL     1       0.509   9.791  21.769  0.00  0.00    +0.000 C 
ATOM      4  N   UNL     1      -0.982  10.153  19.778  0.00  0.00    +0.000 NA
ATOM      5  C   UNL     1      -0.559  10.776  18.673  0.00  0.00    +0.000 A 
ATOM      6  C   UNL     1      -1.126  11.948  18.062  0.00  0.00    +0.000 A 
ATOM      7  C   UNL     1      -0.536  13.122  18.370  0.00  0.00    +0.000 A 
ATOM      8  C   UNL     1       0.747  13.126  19.067  0.00  0.00    +0.000 A 
ATOM      9  C   UNL     1       1.477  11.987  19.111  0.00  0.00    +0.000 A 
ATOM     10  N   UNL     1       0.860  10.748  18.747  0.00  0.00    +0.000 N 
ENDROOT
BRANCH   1  14
ATOM     11  C   UNL     1       3.711   6.217  18.274  0.00  0.00    +0.000 A 
ATOM     12  C   UNL     1       3.491   7.267  17.392  0.00  0.00    +0.000 A 
ATOM     13  C   UNL     1       2.608   8.269  17.778  0.00  0.00    +0.000 A 
ATOM     14  C   UNL     1       1.940   8.288  19.017  0.00  0.00    +0.000 A 
ATOM     15  C   UNL     1       2.223   7.185  19.819  0.00  0.00    +0.000 A 
ATOM     16  N   UNL     1       3.087   6.147  19.494  0.00  0.00    +0.000 NA
BRANCH  11  18
ATOM     17  N   UNL     1       4.978   5.003  16.514  0.00  0.00    +0.000 N 
ATOM     18  C   UNL     1       4.734   5.169  17.857  0.00  0.00    +0.000 C 
ATOM     19  O   UNL     1       5.282   4.499  18.714  0.00  0.00    +0.000 OA
ATOM     20  H   UNL     1       4.473   5.605  15.873  0.00  0.00    +0.000 HD
BRANCH  17  22
ATOM     21  C   UNL     1       6.388   4.193  14.619  0.00  0.00    +0.000 C 
ATOM     22  C   UNL     1       5.812   3.920  16.000  0.00  0.00    +0.000 C 
ENDBRANCH  17  22
ENDBRANCH  11  18
ENDBRANCH   1  14
BRANCH   6  23
ATOM     23  O   UNL     1      -2.224  11.752  17.265  0.00  0.00    +0.000 OA
BRANCH  23  24
ATOM     24  C   UNL     1      -3.224  10.845  17.764  0.00  0.00    +0.000 C 
BRANCH  24  25
ATOM     25  C   UNL     1      -4.460  11.663  18.052  0.00  0.00    +0.000 A 
ATOM     26  C   UNL     1      -5.386  11.980  17.052  0.00  0.00    +0.000 A 
ATOM     27  C   UNL     1      -6.419  12.880  17.317  0.00  0.00    +0.000 A 
ATOM     28  C   UNL     1      -6.493  13.509  18.562  0.00  0.00    +0.000 A 
ATOM     29  C   UNL     1      -5.570  13.201  19.573  0.00  0.00    +0.000 A 
ATOM     30  C   UNL     1      -4.630  12.200  19.338  0.00  0.00    +0.000 A 
BRANCH  29  31
ATOM     31  C   UNL     1      -5.640  13.973  20.847  0.00  0.00    +0.000 C 
ATOM     32  O   UNL     1      -4.949  14.995  20.901  0.00  0.00    +0.000 OA
ATOM     33  N   UNL     1      -6.394  13.529  21.942  0.00  0.00    +0.000 N 
ATOM     34  C   UNL     1      -7.275  12.366  21.995  0.00  0.00    +0.000 C 
ATOM     35  C   UNL     1      -6.382  14.340  23.149  0.00  0.00    +0.000 C 
ENDBRANCH  29  31
ENDBRANCH  24  25
ENDBRANCH  23  24
ENDBRANCH   6  23
TORSDOF 7
ENDMDL
MODEL 5
REMARK VINA RESULT:      -7.9      1.259      1.504
REMARK  Name = 
REMARK  11 active torsions:
REMARK  status: ('A' for Active; 'I' for Inactive)
REMARK    1  A    between atoms: C_1  and  C_2
REMARK    2  A    between atoms: C_2  and  N_3
REMARK    3  A    between atoms: C_4  and  C_6
REMARK    4  A    between atoms: C_9  and  C_10
REMARK    5  A    between atoms: C_11  and  C_12
REMARK    6  A    between atoms: C_15  and  O_16
REMARK    7  A    between atoms: O_16  and  C_17
REMARK    8  A    between atoms: C_17  and  C_18
REMARK    9  A    between atoms: C_22  and  C_23
REMARK   10  A    between atoms: N_25  and  C_26
REMARK   11  A    between atoms: N_25  and  C_27
REMARK                            x       y       z     vdW  Elec       q    Type
REMARK                         _______ _______ _______ _____ _____    ______ ____
ROOT
ATOM      1  C   UNL     1       1.132   9.231  19.381  0.00  0.00    +0.000 A 
ATOM      2  C   UNL     1       0.452   9.392  20.586  0.00  0.00    +0.000 A 
ATOM      3  C   UNL     1       1.104   9.800  21.861  0.00  0.00    +0.000 C 
ATOM      4  N   UNL     1      -0.869   9.685  20.308  0.00  0.00    +0.000 NA
ATOM      5  C   UNL     1      -0.835  10.192  19.071  0.00  0.00    +0.000 A 
ATOM      6  C   UNL     1      -1.712  11.184  18.511  0.00  0.00    +0.000 A 
ATOM      7  C   UNL     1      -1.256  12.455  18.526  0.00  0.00    +0.000 A 
ATOM      8  C   UNL     1       0.142  12.718  18.855  0.00  0.00    +0.000 A 
ATOM      9  C   UNL     1       1.030  11.697  18.824  0.00  0.00    +0.000 A 
ATOM     10  N   UNL     1       0.545  10.351  18.770  0.00  0.00    +0.000 N 
ENDROOT
BRANCH   1  14
ATOM     11  C   UNL     1       3.945   6.218  18.146  0.00  0.00    +0.000 A 
ATOM     12  C   UNL     1       3.693   7.331  17.355  0.00  0.00    +0.000 A 
ATOM     13  C   UNL     1       2.739   8.242  17.796  0.00  0.00    +0.000 A 
ATOM     14  C   UNL     1       2.030   8.108  19.005  0.00  0.00    +0.000 A 
ATOM     15  C   UNL     1       2.352   6.953  19.714  0.00  0.00    +0.000 A 
ATOM     16  N   UNL     1       3.286   6.000  19.330  0.00  0.00    +0.000 NA
BRANCH  11  18
ATOM     17  N   UNL     1       4.985   4.810  16.381  0.00  0.00    +0.000 N 
ATOM     18  C   UNL     1       5.042   5.272  17.675  0.00  0.00    +0.000 C 
ATOM     19  O   UNL     1       5.914   4.936  18.457  0.00  0.00    +0.000 OA
ATOM     20  H   UNL     1       4.221   5.143  15.803  0.00  0.00    +0.000 HD
BRANCH  17  22
ATOM     21  C   UNL     1       6.247   3.937  14.411  0.00  0.00    +0.000 C 
ATOM     22  C   UNL     1       5.887   3.777  15.881  0.00  0.00    +0.000 C 
ENDBRANCH  17  22
ENDBRANCH  11  18
ENDBRANCH   1  14
BRANCH   6  23
ATOM     23  O   UNL     1      -2.928  10.741  18.058  0.00  0.00    +0.000 OA
BRANCH  23  24
ATOM     24  C   UNL     1      -3.905  11.755  17.755  0.00  0.00    +0.000 C 
BRANCH  24  25
ATOM     25  C   UNL     1      -4.993  11.645  18.796  0.00  0.00    +0.000 A 
ATOM     26  C   UNL     1      -5.994  10.670  18.720  0.00  0.00    +0.000 A 
ATOM     27  C   UNL     1      -7.076  10.709  19.601  0.00  0.00    +0.000 A 
ATOM     28  C   UNL     1      -7.190  11.757  20.518  0.00  0.00    +0.000 A 
ATOM     29  C   UNL     1      -6.194  12.742  20.603  0.00  0.00    +0.000 A 
ATOM     30  C   UNL     1      -5.055  12.611  19.813  0.00  0.00    +0.000 A 
BRANCH  29  31
ATOM     31  C   UNL     1      -6.417  13.888  21.532  0.00  0.00    +0.000 C 
ATOM     32  O   UNL     1      -7.130  14.801  21.107  0.00  0.00    +0.000 OA
ATOM     33  N   UNL     1      -5.799  13.952  22.789  0.00  0.00    +0.000 N 
ATOM     34  C   UNL     1      -4.967  12.931  23.419  0.00  0.00    +0.000 C 
ATOM     35  C   UNL     1      -6.061  15.120  23.615  0.00  0.00    +0.000 C 
ENDBRANCH  29  31
ENDBRANCH  24  25
ENDBRANCH  23  24
ENDBRANCH   6  23
TORSDOF 7
ENDMDL
MODEL 6
REMARK VINA RESULT:      -7.6      4.148      7.717
REMARK  Name = 
REMARK  11 active torsions:
REMARK  status: ('A' for Active; 'I' for Inactive)
REMARK    1  A    between atoms: C_1  and  C_2
REMARK    2  A    between atoms: C_2  and  N_3
REMARK    3  A    between atoms: C_4  and  C_6
REMARK    4  A    between atoms: C_9  and  C_10
REMARK    5  A    between atoms: C_11  and  C_12
REMARK    6  A    between atoms: C_15  and  O_16
REMARK    7  A    between atoms: O_16  and  C_17
REMARK    8  A    between atoms: C_17  and  C_18
REMARK    9  A    between atoms: C_22  and  C_23
REMARK   10  A    between atoms: N_25  and  C_26
REMARK   11  A    between atoms: N_25  and  C_27
REMARK                            x       y       z     vdW  Elec       q    Type
REMARK                         _______ _______ _______ _____ _____    ______ ____
ROOT
ATOM      1  C   UNL     1       0.663  10.061  19.616  0.00  0.00    +0.000 A 
ATOM      2  C   UNL     1      -0.262  10.782  18.865  0.00  0.00    +0.000 A 
ATOM      3  C   UNL     1      -1.557  10.227  18.382  0.00  0.00    +0.000 C 
ATOM      4  N   UNL     1      -0.095  12.127  19.136  0.00  0.00    +0.000 NA
ATOM      5  C   UNL     1       0.491  12.144  20.338  0.00  0.00    +0.000 A 
ATOM      6  C   UNL     1       0.359  13.150  21.357  0.00  0.00    +0.000 A 
ATOM      7  C   UNL     1      -0.538  12.891  22.332  0.00  0.00    +0.000 A 
ATOM      8  C   UNL     1      -1.119  11.556  22.446  0.00  0.00    +0.000 A 
ATOM      9  C   UNL     1      -0.528  10.524  21.800  0.00  0.00    +0.000 A 
ATOM     10  N   UNL     1       0.451  10.798  20.793  0.00  0.00    +0.000 N 
ENDROOT
BRANCH   1  14
ATOM     11  C   UNL     1       3.100   6.745  18.359  0.00  0.00    +0.000 A 
ATOM     12  C   UNL     1       2.489   6.754  19.606  0.00  0.00    +0.000 A 
ATOM     13  C   UNL     1       1.752   7.878  19.963  0.00  0.00    +0.000 A 
ATOM     14  C   UNL     1       1.576   8.996  19.126  0.00  0.00    +0.000 A 
ATOM     15  C   UNL     1       2.238   8.888  17.906  0.00  0.00    +0.000 A 
ATOM     16  N   UNL     1       2.996   7.801  17.488  0.00  0.00    +0.000 NA
BRANCH  11  18
ATOM     17  N   UNL     1       4.627   5.511  16.836  0.00  0.00    +0.000 N 
ATOM     18  C   UNL     1       3.843   5.476  17.965  0.00  0.00    +0.000 C 
ATOM     19  O   UNL     1       3.704   4.471  18.639  0.00  0.00    +0.000 OA
ATOM     20  H   UNL     1       4.682   6.392  16.336  0.00  0.00    +0.000 HD
BRANCH  17  22
ATOM     21  C   UNL     1       5.525   4.403  14.786  0.00  0.00    +0.000 C 
ATOM     22  C   UNL     1       5.249   4.313  16.279  0.00  0.00    +0.000 C 
ENDBRANCH  17  22
ENDBRANCH  11  18
ENDBRANCH   1  14
BRANCH   6  23
ATOM     23  O   UNL     1       1.129  14.275  21.211  0.00  0.00    +0.000 OA
BRANCH  23  24
ATOM     24  C   UNL     1       2.554  14.073  21.169  0.00  0.00    +0.000 C 
BRANCH  24  25
ATOM     25  C   UNL     1       3.067  14.799  19.948  0.00  0.00    +0.000 A 
ATOM     26  C   UNL     1       2.201  15.379  19.015  0.00  0.00    +0.000 A 
ATOM     27  C   UNL     1       2.704  15.887  17.816  0.00  0.00    +0.000 A 
ATOM     28  C   UNL     1       4.064  15.761  17.523  0.00  0.00    +0.000 A 
ATOM     29  C   UNL     1       4.943  15.180  18.450  0.00  0.00    +0.000 A 
ATOM     30  C   UNL     1       4.448  14.805  19.696  0.00  0.00    +0.000 A 
BRANCH  29  31
ATOM     31  C   UNL     1       6.365  14.985  18.043  0.00  0.00    +0.000 C 
ATOM     32  O   UNL     1       6.638  13.899  17.525  0.00  0.00    +0.000 OA
ATOM     33  N   UNL     1       7.346  15.955  18.295  0.00  0.00    +0.000 N 
ATOM     34  C   UNL     1       7.150  17.285  18.865  0.00  0.00    +0.000 C 
ATOM     35  C   UNL     1       8.710  15.665  17.880  0.00  0.00    +0.000 C 
ENDBRANCH  29  31
ENDBRANCH  24  25
ENDBRANCH  23  24
ENDBRANCH   6  23
TORSDOF 7
ENDMDL
MODEL 7
REMARK VINA RESULT:      -7.6      4.333      7.922
REMARK  Name = 
REMARK  11 active torsions:
REMARK  status: ('A' for Active; 'I' for Inactive)
REMARK    1  A    between atoms: C_1  and  C_2
REMARK    2  A    between atoms: C_2  and  N_3
REMARK    3  A    between atoms: C_4  and  C_6
REMARK    4  A    between atoms: C_9  and  C_10
REMARK    5  A    between atoms: C_11  and  C_12
REMARK    6  A    between atoms: C_15  and  O_16
REMARK    7  A    between atoms: O_16  and  C_17
REMARK    8  A    between atoms: C_17  and  C_18
REMARK    9  A    between atoms: C_22  and  C_23
REMARK   10  A    between atoms: N_25  and  C_26
REMARK   11  A    between atoms: N_25  and  C_27
REMARK                            x       y       z     vdW  Elec       q    Type
REMARK                         _______ _______ _______ _____ _____    ______ ____
ROOT
ATOM      1  C   UNL     1       0.318  10.482  20.031  0.00  0.00    +0.000 A 
ATOM      2  C   UNL     1      -0.480  11.291  19.225  0.00  0.00    +0.000 A 
ATOM      3  C   UNL     1      -1.839  10.911  18.750  0.00  0.00    +0.000 C 
ATOM      4  N   UNL     1      -0.112  12.608  19.425  0.00  0.00    +0.000 NA
ATOM      5  C   UNL     1       0.457  12.605  20.634  0.00  0.00    +0.000 A 
ATOM      6  C   UNL     1       0.470  13.676  21.595  0.00  0.00    +0.000 A 
ATOM      7  C   UNL     1      -0.466  13.611  22.566  0.00  0.00    +0.000 A 
ATOM      8  C   UNL     1      -1.243  12.388  22.742  0.00  0.00    +0.000 A 
ATOM      9  C   UNL     1      -0.811  11.243  22.164  0.00  0.00    +0.000 A 
ATOM     10  N   UNL     1       0.209  11.309  21.162  0.00  0.00    +0.000 N 
ENDROOT
BRANCH   1  14
ATOM     11  C   UNL     1       2.660   7.163  18.615  0.00  0.00    +0.000 A 
ATOM     12  C   UNL     1       2.285   8.191  17.761  0.00  0.00    +0.000 A 
ATOM     13  C   UNL     1       1.491   9.210  18.277  0.00  0.00    +0.000 A 
ATOM     14  C   UNL     1       1.063   9.265  19.617  0.00  0.00    +0.000 A 
ATOM     15  C   UNL     1       1.485   8.181  20.382  0.00  0.00    +0.000 A 
ATOM     16  N   UNL     1       2.271   7.128  19.931  0.00  0.00    +0.000 NA
BRANCH  11  18
ATOM     17  N   UNL     1       3.033   4.892  17.674  0.00  0.00    +0.000 N 
ATOM     18  C   UNL     1       3.585   6.096  18.045  0.00  0.00    +0.000 C 
ATOM     19  O   UNL     1       4.778   6.328  17.957  0.00  0.00    +0.000 OA
ATOM     20  H   UNL     1       2.030   4.789  17.785  0.00  0.00    +0.000 HD
BRANCH  17  22
ATOM     21  C   UNL     1       3.379   2.426  17.859  0.00  0.00    +0.000 C 
ATOM     22  C   UNL     1       3.848   3.749  17.273  0.00  0.00    +0.000 C 
ENDBRANCH  17  22
ENDBRANCH  11  18
ENDBRANCH   1  14
BRANCH   6  23
ATOM     23  O   UNL     1       1.403  14.661  21.401  0.00  0.00    +0.000 OA
BRANCH  23  24
ATOM     24  C   UNL     1       2.763  14.226  21.214  0.00  0.00    +0.000 C 
BRANCH  24  25
ATOM     25  C   UNL     1       3.261  14.871  19.942  0.00  0.00    +0.000 A 
ATOM     26  C   UNL     1       2.384  15.370  18.973  0.00  0.00    +0.000 A 
ATOM     27  C   UNL     1       2.876  15.798  17.739  0.00  0.00    +0.000 A 
ATOM     28  C   UNL     1       4.237  15.672  17.451  0.00  0.00    +0.000 A 
ATOM     29  C   UNL     1       5.127  15.171  18.412  0.00  0.00    +0.000 A 
ATOM     30  C   UNL     1       4.641  14.878  19.685  0.00  0.00    +0.000 A 
BRANCH  29  31
ATOM     31  C   UNL     1       6.550  14.968  18.015  0.00  0.00    +0.000 C 
ATOM     32  O   UNL     1       6.823  13.875  17.511  0.00  0.00    +0.000 OA
ATOM     33  N   UNL     1       7.532  15.938  18.260  0.00  0.00    +0.000 N 
ATOM     34  C   UNL     1       7.337  17.275  18.813  0.00  0.00    +0.000 C 
ATOM     35  C   UNL     1       8.897  15.640  17.855  0.00  0.00    +0.000 C 
ENDBRANCH  29  31
ENDBRANCH  24  25
ENDBRANCH  23  24
ENDBRANCH   6  23
TORSDOF 7
ENDMDL
MODEL 8
REMARK VINA RESULT:      -7.6      4.041      7.243
REMARK  Name = 
REMARK  11 active torsions:
REMARK  status: ('A' for Active; 'I' for Inactive)
REMARK    1  A    between atoms: C_1  and  C_2
REMARK    2  A    between atoms: C_2  and  N_3
REMARK    3  A    between atoms: C_4  and  C_6
REMARK    4  A    between atoms: C_9  and  C_10
REMARK    5  A    between atoms: C_11  and  C_12
REMARK    6  A    between atoms: C_15  and  O_16
REMARK    7  A    between atoms: O_16  and  C_17
REMARK    8  A    between atoms: C_17  and  C_18
REMARK    9  A    between atoms: C_22  and  C_23
REMARK   10  A    between atoms: N_25  and  C_26
REMARK   11  A    between atoms: N_25  and  C_27
REMARK                            x       y       z     vdW  Elec       q    Type
REMARK                         _______ _______ _______ _____ _____    ______ ____
ROOT
ATOM      1  C   UNL     1       1.057   9.498  19.457  0.00  0.00    +0.000 A 
ATOM      2  C   UNL     1       0.432  10.355  18.555  0.00  0.00    +0.000 A 
ATOM      3  C   UNL     1      -0.805  10.010  17.801  0.00  0.00    +0.000 C 
ATOM      4  N   UNL     1       0.748  11.657  18.895  0.00  0.00    +0.000 NA
ATOM      5  C   UNL     1       1.068  11.584  20.191  0.00  0.00    +0.000 A 
ATOM      6  C   UNL     1       0.887  12.600  21.192  0.00  0.00    +0.000 A 
ATOM      7  C   UNL     1      -0.222  12.491  21.954  0.00  0.00    +0.000 A 
ATOM      8  C   UNL     1      -1.015  11.265  21.907  0.00  0.00    +0.000 A 
ATOM      9  C   UNL     1      -0.472  10.150  21.365  0.00  0.00    +0.000 A 
ATOM     10  N   UNL     1       0.725  10.263  20.588  0.00  0.00    +0.000 N 
ENDROOT
BRANCH   1  14
ATOM     11  C   UNL     1       3.644   6.242  18.350  0.00  0.00    +0.000 A 
ATOM     12  C   UNL     1       3.434   7.315  17.493  0.00  0.00    +0.000 A 
ATOM     13  C   UNL     1       2.551   8.309  17.898  0.00  0.00    +0.000 A 
ATOM     14  C   UNL     1       1.874   8.300  19.133  0.00  0.00    +0.000 A 
ATOM     15  C   UNL     1       2.148   7.176  19.908  0.00  0.00    +0.000 A 
ATOM     16  N   UNL     1       3.010   6.143  19.564  0.00  0.00    +0.000 NA
BRANCH  11  18
ATOM     17  N   UNL     1       5.368   5.431  16.754  0.00  0.00    +0.000 N 
ATOM     18  C   UNL     1       4.666   5.201  17.914  0.00  0.00    +0.000 C 
ATOM     19  O   UNL     1       4.813   4.194  18.584  0.00  0.00    +0.000 OA
ATOM     20  H   UNL     1       5.178   6.297  16.260  0.00  0.00    +0.000 HD
BRANCH  17  22
ATOM     21  C   UNL     1       6.155   4.351  14.645  0.00  0.00    +0.000 C 
ATOM     22  C   UNL     1       6.247   4.428  16.162  0.00  0.00    +0.000 C 
ENDBRANCH  17  22
ENDBRANCH  11  18
ENDBRANCH   1  14
BRANCH   6  23
ATOM     23  O   UNL     1       1.836  13.588  21.241  0.00  0.00    +0.000 OA
BRANCH  23  24
ATOM     24  C   UNL     1       1.350  14.944  21.222  0.00  0.00    +0.000 C 
BRANCH  24  25
ATOM     25  C   UNL     1       2.029  15.641  20.068  0.00  0.00    +0.000 A 
ATOM     26  C   UNL     1       1.310  16.398  19.136  0.00  0.00    +0.000 A 
ATOM     27  C   UNL     1       1.945  16.881  17.990  0.00  0.00    +0.000 A 
ATOM     28  C   UNL     1       3.281  16.557  17.745  0.00  0.00    +0.000 A 
ATOM     29  C   UNL     1       4.012  15.797  18.670  0.00  0.00    +0.000 A 
ATOM     30  C   UNL     1       3.404  15.441  19.872  0.00  0.00    +0.000 A 
BRANCH  29  31
ATOM     31  C   UNL     1       5.405  15.400  18.310  0.00  0.00    +0.000 C 
ATOM     32  O   UNL     1       5.522  14.351  17.671  0.00  0.00    +0.000 OA
ATOM     33  N   UNL     1       6.517  16.143  18.731  0.00  0.00    +0.000 N 
ATOM     34  C   UNL     1       6.513  17.409  19.456  0.00  0.00    +0.000 C 
ATOM     35  C   UNL     1       7.836  15.664  18.347  0.00  0.00    +0.000 C 
ENDBRANCH  29  31
ENDBRANCH  24  25
ENDBRANCH  23  24
ENDBRANCH   6  23
TORSDOF 7
ENDMDL
MODEL 9
REMARK VINA RESULT:      -7.6      4.203      7.659
REMARK  Name = 
REMARK  11 active torsions:
REMARK  status: ('A' for Active; 'I' for Inactive)
REMARK    1  A    between atoms: C_1  and  C_2
REMARK    2  A    between atoms: C_2  and  N_3
REMARK    3  A    between atoms: C_4  and  C_6
REMARK    4  A    between atoms: C_9  and  C_10
REMARK    5  A    between atoms: C_11  and  C_12
REMARK    6  A    between atoms: C_15  and  O_16
REMARK    7  A    between atoms: O_16  and  C_17
REMARK    8  A    between atoms: C_17  and  C_18
REMARK    9  A    between atoms: C_22  and  C_23
REMARK   10  A    between atoms: N_25  and  C_26
REMARK   11  A    between atoms: N_25  and  C_27
REMARK                            x       y       z     vdW  Elec       q    Type
REMARK                         _______ _______ _______ _____ _____    ______ ____
ROOT
ATOM      1  C   UNL     1       0.670   9.958  19.668  0.00  0.00    +0.000 A 
ATOM      2  C   UNL     1      -0.242  10.708  18.930  0.00  0.00    +0.000 A 
ATOM      3  C   UNL     1      -1.527  10.172  18.402  0.00  0.00    +0.000 C 
ATOM      4  N   UNL     1      -0.079  12.041  19.257  0.00  0.00    +0.000 NA
ATOM      5  C   UNL     1       0.484  12.010  20.469  0.00  0.00    +0.000 A 
ATOM      6  C   UNL     1       0.333  12.975  21.525  0.00  0.00    +0.000 A 
ATOM      7  C   UNL     1      -0.582  12.678  22.472  0.00  0.00    +0.000 A 
ATOM      8  C   UNL     1      -1.163  11.340  22.523  0.00  0.00    +0.000 A 
ATOM      9  C   UNL     1      -0.561  10.333  21.847  0.00  0.00    +0.000 A 
ATOM     10  N   UNL     1       0.437  10.648  20.870  0.00  0.00    +0.000 N 
ENDROOT
BRANCH   1  14
ATOM     11  C   UNL     1       3.140   6.694  18.342  0.00  0.00    +0.000 A 
ATOM     12  C   UNL     1       2.552   6.683  19.599  0.00  0.00    +0.000 A 
ATOM     13  C   UNL     1       1.803   7.791  19.978  0.00  0.00    +0.000 A 
ATOM     14  C   UNL     1       1.592   8.912  19.153  0.00  0.00    +0.000 A 
ATOM     15  C   UNL     1       2.234   8.825  17.921  0.00  0.00    +0.000 A 
ATOM     16  N   UNL     1       3.003   7.755  17.481  0.00  0.00    +0.000 NA
BRANCH  11  18
ATOM     17  N   UNL     1       4.940   5.582  17.037  0.00  0.00    +0.000 N 
ATOM     18  C   UNL     1       3.899   5.442  17.924  0.00  0.00    +0.000 C 
ATOM     19  O   UNL     1       3.549   4.360  18.363  0.00  0.00    +0.000 OA
ATOM     20  H   UNL     1       5.159   6.522  16.723  0.00  0.00    +0.000 HD
BRANCH  17  22
ATOM     21  C   UNL     1       6.654   4.812  15.392  0.00  0.00    +0.000 C 
ATOM     22  C   UNL     1       5.624   4.435  16.447  0.00  0.00    +0.000 C 
ENDBRANCH  17  22
ENDBRANCH  11  18
ENDBRANCH   1  14
BRANCH   6  23
ATOM     23  O   UNL     1       1.105  14.104  21.438  0.00  0.00    +0.000 OA
BRANCH  23  24
ATOM     24  C   UNL     1       2.482  13.911  21.063  0.00  0.00    +0.000 C 
BRANCH  24  25
ATOM     25  C   UNL     1       2.813  14.968  20.037  0.00  0.00    +0.000 A 
ATOM     26  C   UNL     1       1.931  15.293  19.000  0.00  0.00    +0.000 A 
ATOM     27  C   UNL     1       2.343  16.146  17.974  0.00  0.00    +0.000 A 
ATOM     28  C   UNL     1       3.655  16.626  17.952  0.00  0.00    +0.000 A 
ATOM     29  C   UNL     1       4.549  16.305  18.984  0.00  0.00    +0.000 A 
ATOM     30  C   UNL     1       4.082  15.567  20.069  0.00  0.00    +0.000 A 
BRANCH  29  31
ATOM     31  C   UNL     1       5.963  16.765  18.858  0.00  0.00    +0.000 C 
ATOM     32  O   UNL     1       6.194  17.918  19.233  0.00  0.00    +0.000 OA
ATOM     33  N   UNL     1       6.955  15.957  18.286  0.00  0.00    +0.000 N 
ATOM     34  C   UNL     1       6.822  14.574  17.838  0.00  0.00    +0.000 C 
ATOM     35  C   UNL     1       8.300  16.502  18.187  0.00  0.00    +0.000 C 
ENDBRANCH  29  31
ENDBRANCH  24  25
ENDBRANCH  23  24
ENDBRANCH   6  23
TORSDOF 7
ENDMDL
