MODEL 1
REMARK VINA RESULT:      -6.8      0.000      0.000
REMARK  Name = 
REMARK  10 active torsions:
REMARK  status: ('A' for Active; 'I' for Inactive)
REMARK    1  A    between atoms: C_1  and  O_2
REMARK    2  A    between atoms: O_2  and  C_3
REMARK    3  A    between atoms: C_8  and  C_9
REMARK    4  A    between atoms: C_9  and  C_10
REMARK    5  A    between atoms: C_10  and  N_11
REMARK    6  A    between atoms: N_14  and  C_15
REMARK    7  A    between atoms: C_15  and  C_16
REMARK    8  A    between atoms: C_16  and  C_17
REMARK    9  A    between atoms: C_22  and  O_23
REMARK   10  A    between atoms: O_23  and  C_24
REMARK                            x       y       z     vdW  Elec       q    Type
REMARK                         _______ _______ _______ _____ _____    ______ ____
ROOT
ATOM      1  N   UNL     1       5.428   5.456  18.707  0.00  0.00    +0.000 NA
ATOM      2  C   UNL     1       6.707   5.403  19.447  0.00  0.00    +0.000 C 
ATOM      3  C   UNL     1       7.963   5.505  18.545  0.00  0.00    +0.000 C 
ATOM      4  N   UNL     1       7.989   6.711  17.687  0.00  0.00    +0.000 NA
ATOM      5  C   UNL     1       6.712   6.766  16.934  0.00  0.00    +0.000 C 
ATOM      6  C   UNL     1       5.440   6.639  17.814  0.00  0.00    +0.000 C 
ENDROOT
BRANCH   1   7
ATOM      7  C   UNL     1       5.182   4.245  17.903  0.00  0.00    +0.000 C 
BRANCH   7   8
ATOM      8  C   UNL     1       3.709   3.970  17.577  0.00  0.00    +0.000 C 
BRANCH   8  14
ATOM      9  C   UNL     1       2.050   4.778  19.339  0.00  0.00    +0.000 A 
ATOM     10  C   UNL     1       1.273   4.514  20.472  0.00  0.00    +0.000 A 
ATOM     11  C   UNL     1       1.459   3.339  21.195  0.00  0.00    +0.000 A 
ATOM     12  C   UNL     1       2.397   2.398  20.774  0.00  0.00    +0.000 A 
ATOM     13  C   UNL     1       3.104   2.612  19.596  0.00  0.00    +0.000 A 
ATOM     14  C   UNL     1       2.918   3.785  18.849  0.00  0.00    +0.000 A 
BRANCH   9  16
ATOM     15  C   UNL     1       2.300   7.126  19.424  0.00  0.00    +0.000 C 
ATOM     16  O   UNL     1       1.985   5.963  18.658  0.00  0.00    +0.000 OA
ENDBRANCH   9  16
ENDBRANCH   8  14
ENDBRANCH   7   8
ENDBRANCH   1   7
BRANCH   4  17
ATOM     17  C   UNL     1       8.159   7.955  18.464  0.00  0.00    +0.000 C 
BRANCH  17  18
ATOM     18  C   UNL     1       8.132   9.250  17.627  0.00  0.00    +0.000 C 
BRANCH  18  19
ATOM     19  C   UNL     1       8.763  10.393  18.388  0.00  0.00    +0.000 A 
ATOM     20  C   UNL     1       9.512  10.044  19.535  0.00  0.00    +0.000 A 
ATOM     21  C   UNL     1      10.109  11.008  20.344  0.00  0.00    +0.000 A 
ATOM     22  C   UNL     1       9.965  12.350  20.023  0.00  0.00    +0.000 A 
ATOM     23  C   UNL     1       9.225  12.717  18.898  0.00  0.00    +0.000 A 
ATOM     24  C   UNL     1       8.629  11.755  18.069  0.00  0.00    +0.000 A 
BRANCH  24  25
ATOM     25  O   UNL     1       7.834  12.293  17.093  0.00  0.00    +0.000 OA
ATOM     26  C   UNL     1       7.156  13.505  17.395  0.00  0.00    +0.000 C 
ENDBRANCH  24  25
ENDBRANCH  18  19
ENDBRANCH  17  18
ENDBRANCH   4  17
TORSDOF 8
ENDMDL
MODEL 2
REMARK VINA RESULT:      -6.7      4.014      6.752
REMARK  Name = 
REMARK  10 active torsions:
REMARK  status: ('A' for Active; 'I' for Inactive)
REMARK    1  A    between atoms: C_1  and  O_2
REMARK    2  A    between atoms: O_2  and  C_3
REMARK    3  A    between atoms: C_8  and  C_9
REMARK    4  A    between atoms: C_9  and  C_10
REMARK    5  A    between atoms: C_10  and  N_11
REMARK    6  A    between atoms: N_14  and  C_15
REMARK    7  A    between atoms: C_15  and  C_16
REMARK    8  A    between atoms: C_16  and  C_17
REMARK    9  A    between atoms: C_22  and  O_23
REMARK   10  A    between atoms: O_23  and  C_24
REMARK                            x       y       z     vdW  Elec       q    Type
REMARK                         _______ _______ _______ _____ _____    ______ ____
ROOT
ATOM      1  N   UNL     1       2.309   6.357  20.686  0.00  0.00    +0.000 NA
ATOM      2  C   UNL     1       2.036   4.931  20.965  0.00  0.00    +0.000 C 
ATOM      3  C   UNL     1       1.276   4.200  19.830  0.00  0.00    +0.000 C 
ATOM      4  N   UNL     1       1.944   4.280  18.511  0.00  0.00    +0.000 NA
ATOM      5  C   UNL     1       2.213   5.710  18.220  0.00  0.00    +0.000 C 
ATOM      6  C   UNL     1       2.950   6.471  19.355  0.00  0.00    +0.000 C 
ENDROOT
BRANCH   1   7
ATOM      7  C   UNL     1       1.092   7.188  20.709  0.00  0.00    +0.000 C 
BRANCH   7   8
ATOM      8  C   UNL     1       1.282   8.634  20.237  0.00  0.00    +0.000 C 
BRANCH   8  14
ATOM      9  C   UNL     1       0.472  10.964  20.887  0.00  0.00    +0.000 A 
ATOM     10  C   UNL     1      -0.312  11.780  21.709  0.00  0.00    +0.000 A 
ATOM     11  C   UNL     1      -0.911  11.259  22.853  0.00  0.00    +0.000 A 
ATOM     12  C   UNL     1      -0.763   9.910  23.170  0.00  0.00    +0.000 A 
ATOM     13  C   UNL     1      -0.063   9.075  22.306  0.00  0.00    +0.000 A 
ATOM     14  C   UNL     1       0.534   9.582  21.143  0.00  0.00    +0.000 A 
BRANCH   9  16
ATOM     15  C   UNL     1       1.695  12.767  19.973  0.00  0.00    +0.000 C 
ATOM     16  O   UNL     1       1.170  11.449  19.815  0.00  0.00    +0.000 OA
ENDBRANCH   9  16
ENDBRANCH   8  14
ENDBRANCH   7   8
ENDBRANCH   1   7
BRANCH   4  17
ATOM     17  C   UNL     1       3.210   3.522  18.470  0.00  0.00    +0.000 C 
BRANCH  17  18
ATOM     18  C   UNL     1       4.009   3.665  17.160  0.00  0.00    +0.000 C 
BRANCH  18  19
ATOM     19  C   UNL     1       5.263   4.480  17.383  0.00  0.00    +0.000 A 
ATOM     20  C   UNL     1       5.697   4.608  18.722  0.00  0.00    +0.000 A 
ATOM     21  C   UNL     1       6.814   5.365  19.063  0.00  0.00    +0.000 A 
ATOM     22  C   UNL     1       7.525   6.018  18.066  0.00  0.00    +0.000 A 
ATOM     23  C   UNL     1       7.111   5.909  16.737  0.00  0.00    +0.000 A 
ATOM     24  C   UNL     1       5.993   5.139  16.380  0.00  0.00    +0.000 A 
BRANCH  24  25
ATOM     25  O   UNL     1       5.653   5.253  15.059  0.00  0.00    +0.000 OA
ATOM     26  C   UNL     1       6.139   4.256  14.170  0.00  0.00    +0.000 C 
ENDBRANCH  24  25
ENDBRANCH  18  19
ENDBRANCH  17  18
ENDBRANCH   4  17
TORSDOF 8
ENDMDL
MODEL 3
REMARK VINA RESULT:      -6.6      1.506      2.140
REMARK  Name = 
REMARK  10 active torsions:
REMARK  status: ('A' for Active; 'I' for Inactive)
REMARK    1  A    between atoms: C_1  and  O_2
REMARK    2  A    between atoms: O_2  and  C_3
REMARK    3  A    between atoms: C_8  and  C_9
REMARK    4  A    between atoms: C_9  and  C_10
REMARK    5  A    between atoms: C_10  and  N_11
REMARK    6  A    between atoms: N_14  and  C_15
REMARK    7  A    between atoms: C_15  and  C_16
REMARK    8  A    between atoms: C_16  and  C_17
REMARK    9  A    between atoms: C_22  and  O_23
REMARK   10  A    between atoms: O_23  and  C_24
REMARK                            x       y       z     vdW  Elec       q    Type
REMARK                         _______ _______ _______ _____ _____    ______ ____
ROOT
ATOM      1  N   UNL     1       5.279   5.790  18.620  0.00  0.00    +0.000 NA
ATOM      2  C   UNL     1       6.578   5.516  19.271  0.00  0.00    +0.000 C 
ATOM      3  C   UNL     1       7.798   5.632  18.322  0.00  0.00    +0.000 C 
ATOM      4  N   UNL     1       7.904   6.941  17.639  0.00  0.00    +0.000 NA
ATOM      5  C   UNL     1       6.607   7.219  16.974  0.00  0.00    +0.000 C 
ATOM      6  C   UNL     1       5.367   7.082  17.899  0.00  0.00    +0.000 C 
ENDROOT
BRANCH   1   7
ATOM      7  C   UNL     1       4.882   4.733  17.671  0.00  0.00    +0.000 C 
BRANCH   7   8
ATOM      8  C   UNL     1       3.380   4.660  17.373  0.00  0.00    +0.000 C 
BRANCH   8  14
ATOM      9  C   UNL     1       2.461   2.834  18.900  0.00  0.00    +0.000 A 
ATOM     10  C   UNL     1       1.833   2.467  20.095  0.00  0.00    +0.000 A 
ATOM     11  C   UNL     1       1.249   3.434  20.910  0.00  0.00    +0.000 A 
ATOM     12  C   UNL     1       1.316   4.781  20.557  0.00  0.00    +0.000 A 
ATOM     13  C   UNL     1       2.020   5.159  19.420  0.00  0.00    +0.000 A 
ATOM     14  C   UNL     1       2.626   4.198  18.596  0.00  0.00    +0.000 A 
BRANCH   9  16
ATOM     15  C   UNL     1       3.913   1.005  18.545  0.00  0.00    +0.000 C 
ATOM     16  O   UNL     1       2.953   1.917  18.012  0.00  0.00    +0.000 OA
ENDBRANCH   9  16
ENDBRANCH   8  14
ENDBRANCH   7   8
ENDBRANCH   1   7
BRANCH   4  17
ATOM     17  C   UNL     1       8.227   8.041  18.568  0.00  0.00    +0.000 C 
BRANCH  17  18
ATOM     18  C   UNL     1       8.548   9.388  17.892  0.00  0.00    +0.000 C 
BRANCH  18  19
ATOM     19  C   UNL     1       9.247  10.320  18.855  0.00  0.00    +0.000 A 
ATOM     20  C   UNL     1       8.855  10.229  20.211  0.00  0.00    +0.000 A 
ATOM     21  C   UNL     1       9.395  11.060  21.188  0.00  0.00    +0.000 A 
ATOM     22  C   UNL     1      10.341  12.009  20.830  0.00  0.00    +0.000 A 
ATOM     23  C   UNL     1      10.738  12.120  19.497  0.00  0.00    +0.000 A 
ATOM     24  C   UNL     1      10.210  11.281  18.504  0.00  0.00    +0.000 A 
BRANCH  24  25
ATOM     25  O   UNL     1      10.609  11.616  17.238  0.00  0.00    +0.000 OA
ATOM     26  C   UNL     1      11.214  12.889  17.057  0.00  0.00    +0.000 C 
ENDBRANCH  24  25
ENDBRANCH  18  19
ENDBRANCH  17  18
ENDBRANCH   4  17
TORSDOF 8
ENDMDL
MODEL 4
REMARK VINA RESULT:      -6.6      3.905      7.151
REMARK  Name = 
REMARK  10 active torsions:
REMARK  status: ('A' for Active; 'I' for Inactive)
REMARK    1  A    between atoms: C_1  and  O_2
REMARK    2  A    between atoms: O_2  and  C_3
REMARK    3  A    between atoms: C_8  and  C_9
REMARK    4  A    between atoms: C_9  and  C_10
REMARK    5  A    between atoms: C_10  and  N_11
REMARK    6  A    between atoms: N_14  and  C_15
REMARK    7  A    between atoms: C_15  and  C_16
REMARK    8  A    between atoms: C_16  and  C_17
REMARK    9  A    between atoms: C_22  and  O_23
REMARK   10  A    between atoms: O_23  and  C_24
REMARK                            x       y       z     vdW  Elec       q    Type
REMARK                         _______ _______ _______ _____ _____    ______ ____
ROOT
ATOM      1  N   UNL     1       2.118   4.398  18.308  0.00  0.00    +0.000 NA
ATOM      2  C   UNL     1       1.479   4.161  19.620  0.00  0.00    +0.000 C 
ATOM      3  C   UNL     1       2.198   4.849  20.807  0.00  0.00    +0.000 C 
ATOM      4  N   UNL     1       2.361   6.311  20.644  0.00  0.00    +0.000 NA
ATOM      5  C   UNL     1       3.012   6.557  19.333  0.00  0.00    +0.000 C 
ATOM      6  C   UNL     1       2.324   5.854  18.131  0.00  0.00    +0.000 C 
ENDROOT
BRANCH   1   7
ATOM      7  C   UNL     1       3.413   3.706  18.170  0.00  0.00    +0.000 C 
BRANCH   7   8
ATOM      8  C   UNL     1       4.266   4.156  16.978  0.00  0.00    +0.000 C 
BRANCH   8  14
ATOM      9  C   UNL     1       6.257   5.703  16.591  0.00  0.00    +0.000 A 
ATOM     10  C   UNL     1       7.310   6.464  17.111  0.00  0.00    +0.000 A 
ATOM     11  C   UNL     1       7.674   6.340  18.449  0.00  0.00    +0.000 A 
ATOM     12  C   UNL     1       6.968   5.482  19.291  0.00  0.00    +0.000 A 
ATOM     13  C   UNL     1       5.863   4.796  18.802  0.00  0.00    +0.000 A 
ATOM     14  C   UNL     1       5.475   4.921  17.460  0.00  0.00    +0.000 A 
BRANCH   9  16
ATOM     15  C   UNL     1       6.777   4.918  14.424  0.00  0.00    +0.000 C 
ATOM     16  O   UNL     1       5.930   5.705  15.262  0.00  0.00    +0.000 OA
ENDBRANCH   9  16
ENDBRANCH   8  14
ENDBRANCH   7   8
ENDBRANCH   1   7
BRANCH   4  17
ATOM     17  C   UNL     1       1.076   7.034  20.700  0.00  0.00    +0.000 C 
BRANCH  17  18
ATOM     18  C   UNL     1       1.109   8.355  21.494  0.00  0.00    +0.000 C 
BRANCH  18  19
ATOM     19  C   UNL     1       0.415   9.459  20.729  0.00  0.00    +0.000 A 
ATOM     20  C   UNL     1       0.702   9.540  19.347  0.00  0.00    +0.000 A 
ATOM     21  C   UNL     1       0.157  10.537  18.542  0.00  0.00    +0.000 A 
ATOM     22  C   UNL     1      -0.688  11.481  19.104  0.00  0.00    +0.000 A 
ATOM     23  C   UNL     1      -0.981  11.423  20.468  0.00  0.00    +0.000 A 
ATOM     24  C   UNL     1      -0.448  10.417  21.288  0.00  0.00    +0.000 A 
BRANCH  24  25
ATOM     25  O   UNL     1      -0.730  10.590  22.616  0.00  0.00    +0.000 OA
ATOM     26  C   UNL     1      -1.397  11.787  22.994  0.00  0.00    +0.000 C 
ENDBRANCH  24  25
ENDBRANCH  18  19
ENDBRANCH  17  18
ENDBRANCH   4  17
TORSDOF 8
ENDMDL
MODEL 5
REMARK VINA RESULT:      -6.5      3.766      7.023
REMARK  Name = 
REMARK  10 active torsions:
REMARK  status: ('A' for Active; 'I' for Inactive)
REMARK    1  A    between atoms: C_1  and  O_2
REMARK    2  A    between atoms: O_2  and  C_3
REMARK    3  A    between atoms: C_8  and  C_9
REMARK    4  A    between atoms: C_9  and  C_10
REMARK    5  A    between atoms: C_10  and  N_11
REMARK    6  A    between atoms: N_14  and  C_15
REMARK    7  A    between atoms: C_15  and  C_16
REMARK    8  A    between atoms: C_16  and  C_17
REMARK    9  A    between atoms: C_22  and  O_23
REMARK   10  A    between atoms: O_23  and  C_24
REMARK                            x       y       z     vdW  Elec       q    Type
REMARK                         _______ _______ _______ _____ _____    ______ ____
ROOT
ATOM      1  N   UNL     1       2.499   4.550  17.910  0.00  0.00    +0.000 NA
ATOM      2  C   UNL     1       1.497   4.175  18.931  0.00  0.00    +0.000 C 
ATOM      3  C   UNL     1       1.931   4.485  20.386  0.00  0.00    +0.000 C 
ATOM      4  N   UNL     1       2.298   5.901  20.613  0.00  0.00    +0.000 NA
ATOM      5  C   UNL     1       3.311   6.282  19.598  0.00  0.00    +0.000 C 
ATOM      6  C   UNL     1       2.910   5.956  18.134  0.00  0.00    +0.000 C 
ENDROOT
BRANCH   1   7
ATOM      7  C   UNL     1       3.693   3.686  17.938  0.00  0.00    +0.000 C 
BRANCH   7   8
ATOM      8  C   UNL     1       4.719   3.960  16.832  0.00  0.00    +0.000 C 
BRANCH   8  14
ATOM      9  C   UNL     1       6.437   5.817  16.503  0.00  0.00    +0.000 A 
ATOM     10  C   UNL     1       7.368   6.707  17.051  0.00  0.00    +0.000 A 
ATOM     11  C   UNL     1       7.770   6.578  18.378  0.00  0.00    +0.000 A 
ATOM     12  C   UNL     1       7.221   5.580  19.182  0.00  0.00    +0.000 A 
ATOM     13  C   UNL     1       6.228   4.754  18.670  0.00  0.00    +0.000 A 
ATOM     14  C   UNL     1       5.802   4.881  17.340  0.00  0.00    +0.000 A 
BRANCH   9  16
ATOM     15  C   UNL     1       6.820   4.930  14.348  0.00  0.00    +0.000 C 
ATOM     16  O   UNL     1       6.091   5.832  15.180  0.00  0.00    +0.000 OA
ENDBRANCH   9  16
ENDBRANCH   8  14
ENDBRANCH   7   8
ENDBRANCH   1   7
BRANCH   4  17
ATOM     17  C   UNL     1       1.139   6.810  20.518  0.00  0.00    +0.000 C 
BRANCH  17  18
ATOM     18  C   UNL     1       1.485   8.266  20.150  0.00  0.00    +0.000 C 
BRANCH  18  19
ATOM     19  C   UNL     1       0.690   9.237  20.992  0.00  0.00    +0.000 A 
ATOM     20  C   UNL     1       0.529   8.898  22.355  0.00  0.00    +0.000 A 
ATOM     21  C   UNL     1      -0.216   9.689  23.225  0.00  0.00    +0.000 A 
ATOM     22  C   UNL     1      -0.823  10.840  22.749  0.00  0.00    +0.000 A 
ATOM     23  C   UNL     1      -0.683  11.192  21.405  0.00  0.00    +0.000 A 
ATOM     24  C   UNL     1       0.075  10.409  20.520  0.00  0.00    +0.000 A 
BRANCH  24  25
ATOM     25  O   UNL     1      -0.005  10.825  19.218  0.00  0.00    +0.000 OA
ATOM     26  C   UNL     1      -1.145  10.423  18.471  0.00  0.00    +0.000 C 
ENDBRANCH  24  25
ENDBRANCH  18  19
ENDBRANCH  17  18
ENDBRANCH   4  17
TORSDOF 8
ENDMDL
MODEL 6
REMARK VINA RESULT:      -6.5      1.477      8.725
REMARK  Name = 
REMARK  10 active torsions:
REMARK  status: ('A' for Active; 'I' for Inactive)
REMARK    1  A    between atoms: C_1  and  O_2
REMARK    2  A    between atoms: O_2  and  C_3
REMARK    3  A    between atoms: C_8  and  C_9
REMARK    4  A    between atoms: C_9  and  C_10
REMARK    5  A    between atoms: C_10  and  N_11
REMARK    6  A    between atoms: N_14  and  C_15
REMARK    7  A    between atoms: C_15  and  C_16
REMARK    8  A    between atoms: C_16  and  C_17
REMARK    9  A    between atoms: C_22  and  O_23
REMARK   10  A    between atoms: O_23  and  C_24
REMARK                            x       y       z     vdW  Elec       q    Type
REMARK                         _______ _______ _______ _____ _____    ______ ____
ROOT
ATOM      1  N   UNL     1       7.968   7.336  17.344  0.00  0.00    +0.000 NA
ATOM      2  C   UNL     1       8.016   6.270  18.367  0.00  0.00    +0.000 C 
ATOM      3  C   UNL     1       6.681   6.061  19.125  0.00  0.00    +0.000 C 
ATOM      4  N   UNL     1       5.526   5.784  18.242  0.00  0.00    +0.000 NA
ATOM      5  C   UNL     1       5.465   6.856  17.217  0.00  0.00    +0.000 C 
ATOM      6  C   UNL     1       6.800   7.102  16.463  0.00  0.00    +0.000 C 
ENDROOT
BRANCH   1   7
ATOM      7  C   UNL     1       7.870   8.686  17.928  0.00  0.00    +0.000 C 
BRANCH   7   8
ATOM      8  C   UNL     1       8.866   8.979  19.057  0.00  0.00    +0.000 C 
BRANCH   8  14
ATOM      9  C   UNL     1       9.366  11.241  20.126  0.00  0.00    +0.000 A 
ATOM     10  C   UNL     1       9.889  12.534  20.018  0.00  0.00    +0.000 A 
ATOM     11  C   UNL     1      10.233  13.054  18.773  0.00  0.00    +0.000 A 
ATOM     12  C   UNL     1      10.092  12.274  17.625  0.00  0.00    +0.000 A 
ATOM     13  C   UNL     1       9.663  10.957  17.738  0.00  0.00    +0.000 A 
ATOM     14  C   UNL     1       9.326  10.415  18.987  0.00  0.00    +0.000 A 
BRANCH   9  16
ATOM     15  C   UNL     1       8.484  11.687  22.272  0.00  0.00    +0.000 C 
ATOM     16  O   UNL     1       8.911  10.724  21.308  0.00  0.00    +0.000 OA
ENDBRANCH   9  16
ENDBRANCH   8  14
ENDBRANCH   7   8
ENDBRANCH   1   7
BRANCH   4  17
ATOM     17  C   UNL     1       5.624   4.471  17.577  0.00  0.00    +0.000 C 
BRANCH  17  18
ATOM     18  C   UNL     1       4.376   4.058  16.771  0.00  0.00    +0.000 C 
BRANCH  18  19
ATOM     19  C   UNL     1       3.251   3.649  17.694  0.00  0.00    +0.000 A 
ATOM     20  C   UNL     1       3.095   2.262  17.915  0.00  0.00    +0.000 A 
ATOM     21  C   UNL     1       2.072   1.757  18.712  0.00  0.00    +0.000 A 
ATOM     22  C   UNL     1       1.175   2.631  19.306  0.00  0.00    +0.000 A 
ATOM     23  C   UNL     1       1.307   4.006  19.097  0.00  0.00    +0.000 A 
ATOM     24  C   UNL     1       2.341   4.528  18.305  0.00  0.00    +0.000 A 
BRANCH  24  25
ATOM     25  O   UNL     1       2.241   5.878  18.099  0.00  0.00    +0.000 OA
ATOM     26  C   UNL     1       2.348   6.724  19.236  0.00  0.00    +0.000 C 
ENDBRANCH  24  25
ENDBRANCH  18  19
ENDBRANCH  17  18
ENDBRANCH   4  17
TORSDOF 8
ENDMDL
MODEL 7
REMARK VINA RESULT:      -6.4      1.365      8.768
REMARK  Name = 
REMARK  10 active torsions:
REMARK  status: ('A' for Active; 'I' for Inactive)
REMARK    1  A    between atoms: C_1  and  O_2
REMARK    2  A    between atoms: O_2  and  C_3
REMARK    3  A    between atoms: C_8  and  C_9
REMARK    4  A    between atoms: C_9  and  C_10
REMARK    5  A    between atoms: C_10  and  N_11
REMARK    6  A    between atoms: N_14  and  C_15
REMARK    7  A    between atoms: C_15  and  C_16
REMARK    8  A    between atoms: C_16  and  C_17
REMARK    9  A    between atoms: C_22  and  O_23
REMARK   10  A    between atoms: O_23  and  C_24
REMARK                            x       y       z     vdW  Elec       q    Type
REMARK                         _______ _______ _______ _____ _____    ______ ____
ROOT
ATOM      1  N   UNL     1       8.169   7.076  17.834  0.00  0.00    +0.000 NA
ATOM      2  C   UNL     1       8.090   5.835  18.633  0.00  0.00    +0.000 C 
ATOM      3  C   UNL     1       6.718   5.609  19.315  0.00  0.00    +0.000 C 
ATOM      4  N   UNL     1       5.573   5.612  18.376  0.00  0.00    +0.000 NA
ATOM      5  C   UNL     1       5.640   6.860  17.576  0.00  0.00    +0.000 C 
ATOM      6  C   UNL     1       7.015   7.123  16.905  0.00  0.00    +0.000 C 
ENDROOT
BRANCH   1   7
ATOM      7  C   UNL     1       8.169   8.293  18.666  0.00  0.00    +0.000 C 
BRANCH   7   8
ATOM      8  C   UNL     1       8.711   9.552  17.978  0.00  0.00    +0.000 C 
BRANCH   8  14
ATOM      9  C   UNL     1      10.177  11.528  18.654  0.00  0.00    +0.000 A 
ATOM     10  C   UNL     1      10.593  12.439  19.630  0.00  0.00    +0.000 A 
ATOM     11  C   UNL     1      10.236  12.256  20.963  0.00  0.00    +0.000 A 
ATOM     12  C   UNL     1       9.429  11.181  21.331  0.00  0.00    +0.000 A 
ATOM     13  C   UNL     1       8.935  10.327  20.352  0.00  0.00    +0.000 A 
ATOM     14  C   UNL     1       9.275  10.506  19.003  0.00  0.00    +0.000 A 
BRANCH   9  16
ATOM     15  C   UNL     1      11.391  12.735  17.026  0.00  0.00    +0.000 C 
ATOM     16  O   UNL     1      10.590  11.600  17.351  0.00  0.00    +0.000 OA
ENDBRANCH   9  16
ENDBRANCH   8  14
ENDBRANCH   7   8
ENDBRANCH   1   7
BRANCH   4  17
ATOM     17  C   UNL     1       5.579   4.446  17.471  0.00  0.00    +0.000 C 
BRANCH  17  18
ATOM     18  C   UNL     1       4.256   4.204  16.718  0.00  0.00    +0.000 C 
BRANCH  18  19
ATOM     19  C   UNL     1       3.163   3.782  17.673  0.00  0.00    +0.000 A 
ATOM     20  C   UNL     1       2.978   2.390  17.837  0.00  0.00    +0.000 A 
ATOM     21  C   UNL     1       1.978   1.874  18.657  0.00  0.00    +0.000 A 
ATOM     22  C   UNL     1       1.135   2.743  19.333  0.00  0.00    +0.000 A 
ATOM     23  C   UNL     1       1.296   4.121  19.181  0.00  0.00    +0.000 A 
ATOM     24  C   UNL     1       2.307   4.654  18.366  0.00  0.00    +0.000 A 
BRANCH  24  25
ATOM     25  O   UNL     1       2.236   6.014  18.228  0.00  0.00    +0.000 OA
ATOM     26  C   UNL     1       2.380   6.800  19.403  0.00  0.00    +0.000 C 
ENDBRANCH  24  25
ENDBRANCH  18  19
ENDBRANCH  17  18
ENDBRANCH   4  17
TORSDOF 8
ENDMDL
MODEL 8
REMARK VINA RESULT:      -6.4      0.847      8.637
REMARK  Name = 
REMARK  10 active torsions:
REMARK  status: ('A' for Active; 'I' for Inactive)
REMARK    1  A    between atoms: C_1  and  O_2
REMARK    2  A    between atoms: O_2  and  C_3
REMARK    3  A    between atoms: C_8  and  C_9
REMARK    4  A    between atoms: C_9  and  C_10
REMARK    5  A    between atoms: C_10  and  N_11
REMARK    6  A    between atoms: N_14  and  C_15
REMARK    7  A    between atoms: C_15  and  C_16
REMARK    8  A    between atoms: C_16  and  C_17
REMARK    9  A    between atoms: C_22  and  O_23
REMARK   10  A    between atoms: O_23  and  C_24
REMARK                            x       y       z     vdW  Elec       q    Type
REMARK                         _______ _______ _______ _____ _____    ______ ____
ROOT
ATOM      1  N   UNL     1       7.612   7.050  17.258  0.00  0.00    +0.000 NA
ATOM      2  C   UNL     1       7.754   5.715  17.879  0.00  0.00    +0.000 C 
ATOM      3  C   UNL     1       6.785   5.462  19.061  0.00  0.00    +0.000 C 
ATOM      4  N   UNL     1       5.358   5.648  18.717  0.00  0.00    +0.000 NA
ATOM      5  C   UNL     1       5.205   6.990  18.102  0.00  0.00    +0.000 C 
ATOM      6  C   UNL     1       6.184   7.277  16.933  0.00  0.00    +0.000 C 
ENDROOT
BRANCH   1   7
ATOM      7  C   UNL     1       8.089   8.139  18.130  0.00  0.00    +0.000 C 
BRANCH   7   8
ATOM      8  C   UNL     1       7.889   9.553  17.571  0.00  0.00    +0.000 C 
BRANCH   8  14
ATOM      9  C   UNL     1       8.660  11.927  18.099  0.00  0.00    +0.000 A 
ATOM     10  C   UNL     1       9.381  12.806  18.915  0.00  0.00    +0.000 A 
ATOM     11  C   UNL     1      10.261  12.313  19.875  0.00  0.00    +0.000 A 
ATOM     12  C   UNL     1      10.404  10.939  20.055  0.00  0.00    +0.000 A 
ATOM     13  C   UNL     1       9.620  10.063  19.312  0.00  0.00    +0.000 A 
ATOM     14  C   UNL     1       8.719  10.544  18.351  0.00  0.00    +0.000 A 
BRANCH   9  16
ATOM     15  C   UNL     1       7.105  13.534  17.336  0.00  0.00    +0.000 C 
ATOM     16  O   UNL     1       7.867  12.357  17.069  0.00  0.00    +0.000 OA
ENDBRANCH   9  16
ENDBRANCH   8  14
ENDBRANCH   7   8
ENDBRANCH   1   7
BRANCH   4  17
ATOM     17  C   UNL     1       4.860   4.618  17.784  0.00  0.00    +0.000 C 
BRANCH  17  18
ATOM     18  C   UNL     1       3.392   4.793  17.348  0.00  0.00    +0.000 C 
BRANCH  18  19
ATOM     19  C   UNL     1       2.453   4.221  18.386  0.00  0.00    +0.000 A 
ATOM     20  C   UNL     1       1.831   2.994  18.059  0.00  0.00    +0.000 A 
ATOM     21  C   UNL     1       0.915   2.386  18.912  0.00  0.00    +0.000 A 
ATOM     22  C   UNL     1       0.595   2.995  20.116  0.00  0.00    +0.000 A 
ATOM     23  C   UNL     1       1.194   4.209  20.457  0.00  0.00    +0.000 A 
ATOM     24  C   UNL     1       2.127   4.827  19.610  0.00  0.00    +0.000 A 
BRANCH  24  25
ATOM     25  O   UNL     1       2.510   6.071  20.036  0.00  0.00    +0.000 OA
ATOM     26  C   UNL     1       1.511   6.903  20.610  0.00  0.00    +0.000 C 
ENDBRANCH  24  25
ENDBRANCH  18  19
ENDBRANCH  17  18
ENDBRANCH   4  17
TORSDOF 8
ENDMDL
MODEL 9
REMARK VINA RESULT:      -6.4      4.150      6.809
REMARK  Name = 
REMARK  10 active torsions:
REMARK  status: ('A' for Active; 'I' for Inactive)
REMARK    1  A    between atoms: C_1  and  O_2
REMARK    2  A    between atoms: O_2  and  C_3
REMARK    3  A    between atoms: C_8  and  C_9
REMARK    4  A    between atoms: C_9  and  C_10
REMARK    5  A    between atoms: C_10  and  N_11
REMARK    6  A    between atoms: N_14  and  C_15
REMARK    7  A    between atoms: C_15  and  C_16
REMARK    8  A    between atoms: C_16  and  C_17
REMARK    9  A    between atoms: C_22  and  O_23
REMARK   10  A    between atoms: O_23  and  C_24
REMARK                            x       y       z     vdW  Elec       q    Type
REMARK                         _______ _______ _______ _____ _____    ______ ____
ROOT
ATOM      1  N   UNL     1       2.933   6.702  19.029  0.00  0.00    +0.000 NA
ATOM      2  C   UNL     1       3.729   5.695  19.762  0.00  0.00    +0.000 C 
ATOM      3  C   UNL     1       2.948   4.403  20.110  0.00  0.00    +0.000 C 
ATOM      4  N   UNL     1       2.345   3.732  18.937  0.00  0.00    +0.000 NA
ATOM      5  C   UNL     1       1.536   4.734  18.200  0.00  0.00    +0.000 C 
ATOM      6  C   UNL     1       2.289   6.049  17.864  0.00  0.00    +0.000 C 
ENDROOT
BRANCH   1   7
ATOM      7  C   UNL     1       1.894   7.329  19.866  0.00  0.00    +0.000 C 
BRANCH   7   8
ATOM      8  C   UNL     1       1.515   8.761  19.468  0.00  0.00    +0.000 C 
BRANCH   8  14
ATOM      9  C   UNL     1       0.495  10.819  20.578  0.00  0.00    +0.000 A 
ATOM     10  C   UNL     1      -0.258  11.379  21.615  0.00  0.00    +0.000 A 
ATOM     11  C   UNL     1      -0.591  10.619  22.733  0.00  0.00    +0.000 A 
ATOM     12  C   UNL     1      -0.205   9.282  22.812  0.00  0.00    +0.000 A 
ATOM     13  C   UNL     1       0.462   8.695  21.743  0.00  0.00    +0.000 A 
ATOM     14  C   UNL     1       0.792   9.444  20.603  0.00  0.00    +0.000 A 
BRANCH   9  16
ATOM     15  C   UNL     1       0.325  12.827  19.345  0.00  0.00    +0.000 C 
ATOM     16  O   UNL     1       0.941  11.551  19.511  0.00  0.00    +0.000 OA
ENDBRANCH   9  16
ENDBRANCH   8  14
ENDBRANCH   7   8
ENDBRANCH   1   7
BRANCH   4  17
ATOM     17  C   UNL     1       3.358   3.155  18.031  0.00  0.00    +0.000 C 
BRANCH  17  18
ATOM     18  C   UNL     1       4.819   3.466  18.409  0.00  0.00    +0.000 C 
BRANCH  18  19
ATOM     19  C   UNL     1       5.571   4.031  17.226  0.00  0.00    +0.000 A 
ATOM     20  C   UNL     1       4.909   3.976  15.979  0.00  0.00    +0.000 A 
ATOM     21  C   UNL     1       5.511   4.427  14.807  0.00  0.00    +0.000 A 
ATOM     22  C   UNL     1       6.798   4.942  14.857  0.00  0.00    +0.000 A 
ATOM     23  C   UNL     1       7.473   5.000  16.077  0.00  0.00    +0.000 A 
ATOM     24  C   UNL     1       6.872   4.560  17.267  0.00  0.00    +0.000 A 
BRANCH  24  25
ATOM     25  O   UNL     1       7.721   4.565  18.341  0.00  0.00    +0.000 OA
ATOM     26  C   UNL     1       7.704   5.709  19.184  0.00  0.00    +0.000 C 
ENDBRANCH  24  25
ENDBRANCH  18  19
ENDBRANCH  17  18
ENDBRANCH   4  17
TORSDOF 8
ENDMDL
