MODEL 1
REMARK VINA RESULT:      -7.5      0.000      0.000
REMARK  Name = 
REMARK  12 active torsions:
REMARK  status: ('A' for Active; 'I' for Inactive)
REMARK    1  A    between atoms: C_1  and  N_2
REMARK    2  A    between atoms: N_2  and  C_3
REMARK    3  A    between atoms: C_6  and  C_7
REMARK    4  A    between atoms: C_8  and  C_9
REMARK    5  A    between atoms: C_13  and  C_14
REMARK    6  A    between atoms: C_15  and  C_16
REMARK    7  A    between atoms: C_19  and  N_20
REMARK    8  A    between atoms: N_20  and  C_21
REMARK    9  A    between atoms: C_22  and  O_23
REMARK   10  A    between atoms: O_23  and  C_24
REMARK   11  A    between atoms: C_28  and  O_29
REMARK   12  A    between atoms: O_29  and  C_30
REMARK                            x       y       z     vdW  Elec       q    Type
REMARK                         _______ _______ _______ _____ _____    ______ ____
ROOT
ATOM      1  C   UNL     1      -0.099  11.356  19.533  0.00  0.00    +0.000 A 
ATOM      2  C   UNL     1       0.683  12.403  19.064  0.00  0.00    +0.000 A 
ATOM      3  C   UNL     1       1.847  12.109  18.362  0.00  0.00    +0.000 A 
ATOM      4  C   UNL     1       2.201  10.779  18.157  0.00  0.00    +0.000 A 
ATOM      5  C   UNL     1       1.369   9.780  18.657  0.00  0.00    +0.000 A 
ATOM      6  N   UNL     1       0.233  10.058  19.336  0.00  0.00    +0.000 NA
ENDROOT
BRANCH   1   8
ATOM      7  C   UNL     1      -1.475  12.524  21.247  0.00  0.00    +0.000 C 
ATOM      8  C   UNL     1      -1.354  11.628  20.251  0.00  0.00    +0.000 C 
BRANCH   7  12
ATOM      9  C   UNL     1      -5.124  13.157  23.507  0.00  0.00    +0.000 A 
ATOM     10  C   UNL     1      -3.851  13.131  24.115  0.00  0.00    +0.000 A 
ATOM     11  C   UNL     1      -2.665  12.920  23.388  0.00  0.00    +0.000 A 
ATOM     12  C   UNL     1      -2.709  12.745  22.011  0.00  0.00    +0.000 A 
ATOM     13  C   UNL     1      -3.963  12.720  21.399  0.00  0.00    +0.000 A 
ATOM     14  C   UNL     1      -5.160  12.927  22.116  0.00  0.00    +0.000 A 
BRANCH   9  16
ATOM     15  C   UNL     1      -7.105  14.629  23.940  0.00  0.00    +0.000 C 
ATOM     16  N   UNL     1      -6.240  13.514  24.250  0.00  0.00    +0.000 N 
ATOM     17  H   UNL     1      -6.367  13.097  25.159  0.00  0.00    +0.000 HD
ENDBRANCH   9  16
BRANCH  14  18
ATOM     18  O   UNL     1      -6.224  12.881  21.251  0.00  0.00    +0.000 OA
ATOM     19  C   UNL     1      -6.321  11.901  20.241  0.00  0.00    +0.000 C 
ENDBRANCH  14  18
ENDBRANCH   7  12
ENDBRANCH   1   8
BRANCH   5  20
ATOM     20  C   UNL     1       1.733   8.366  18.507  0.00  0.00    +0.000 C 
ATOM     21  C   UNL     1       2.931   7.946  18.083  0.00  0.00    +0.000 C 
BRANCH  21  22
ATOM     22  C   UNL     1       3.282   6.547  17.811  0.00  0.00    +0.000 A 
ATOM     23  C   UNL     1       2.348   5.541  18.032  0.00  0.00    +0.000 A 
ATOM     24  C   UNL     1       2.710   4.197  17.890  0.00  0.00    +0.000 A 
ATOM     25  C   UNL     1       4.011   3.804  17.515  0.00  0.00    +0.000 A 
ATOM     26  C   UNL     1       4.967   4.829  17.321  0.00  0.00    +0.000 A 
ATOM     27  C   UNL     1       4.588   6.177  17.460  0.00  0.00    +0.000 A 
BRANCH  25  28
ATOM     28  N   UNL     1       4.273   2.426  17.519  0.00  0.00    +0.000 N 
ATOM     29  C   UNL     1       3.586   1.503  18.408  0.00  0.00    +0.000 C 
ATOM     30  H   UNL     1       5.267   2.223  17.486  0.00  0.00    +0.000 HD
ENDBRANCH  25  28
BRANCH  26  31
ATOM     31  O   UNL     1       6.265   4.455  17.063  0.00  0.00    +0.000 OA
ATOM     32  C   UNL     1       7.288   4.967  17.906  0.00  0.00    +0.000 C 
ENDBRANCH  26  31
ENDBRANCH  21  22
ENDBRANCH   5  20
TORSDOF 8
ENDMDL
MODEL 2
REMARK VINA RESULT:      -7.4      4.021     11.082
REMARK  Name = 
REMARK  12 active torsions:
REMARK  status: ('A' for Active; 'I' for Inactive)
REMARK    1  A    between atoms: C_1  and  N_2
REMARK    2  A    between atoms: N_2  and  C_3
REMARK    3  A    between atoms: C_6  and  C_7
REMARK    4  A    between atoms: C_8  and  C_9
REMARK    5  A    between atoms: C_13  and  C_14
REMARK    6  A    between atoms: C_15  and  C_16
REMARK    7  A    between atoms: C_19  and  N_20
REMARK    8  A    between atoms: N_20  and  C_21
REMARK    9  A    between atoms: C_22  and  O_23
REMARK   10  A    between atoms: O_23  and  C_24
REMARK   11  A    between atoms: C_28  and  O_29
REMARK   12  A    between atoms: O_29  and  C_30
REMARK                            x       y       z     vdW  Elec       q    Type
REMARK                         _______ _______ _______ _____ _____    ______ ____
ROOT
ATOM      1  C   UNL     1       1.048   8.869  20.720  0.00  0.00    +0.000 A 
ATOM      2  C   UNL     1       0.318   8.593  21.869  0.00  0.00    +0.000 A 
ATOM      3  C   UNL     1      -0.486   9.593  22.408  0.00  0.00    +0.000 A 
ATOM      4  C   UNL     1      -0.531  10.838  21.791  0.00  0.00    +0.000 A 
ATOM      5  C   UNL     1       0.230  11.043  20.641  0.00  0.00    +0.000 A 
ATOM      6  N   UNL     1       1.010  10.076  20.108  0.00  0.00    +0.000 NA
ENDROOT
BRANCH   1   8
ATOM      7  C   UNL     1       2.281   7.842  18.818  0.00  0.00    +0.000 C 
ATOM      8  C   UNL     1       1.883   7.827  20.103  0.00  0.00    +0.000 C 
BRANCH   7  12
ATOM      9  C   UNL     1       4.557   4.668  16.925  0.00  0.00    +0.000 A 
ATOM     10  C   UNL     1       4.912   6.029  16.809  0.00  0.00    +0.000 A 
ATOM     11  C   UNL     1       4.174   7.062  17.415  0.00  0.00    +0.000 A 
ATOM     12  C   UNL     1       3.055   6.767  18.183  0.00  0.00    +0.000 A 
ATOM     13  C   UNL     1       2.661   5.431  18.270  0.00  0.00    +0.000 A 
ATOM     14  C   UNL     1       3.388   4.386  17.664  0.00  0.00    +0.000 A 
BRANCH   9  16
ATOM     15  C   UNL     1       6.139   3.789  15.192  0.00  0.00    +0.000 C 
ATOM     16  N   UNL     1       5.401   3.686  16.430  0.00  0.00    +0.000 N 
ATOM     17  H   UNL     1       5.373   2.770  16.851  0.00  0.00    +0.000 HD
ENDBRANCH   9  16
BRANCH  14  18
ATOM     18  O   UNL     1       2.786   3.187  17.947  0.00  0.00    +0.000 OA
ATOM     19  C   UNL     1       1.448   3.112  18.390  0.00  0.00    +0.000 C 
ENDBRANCH  14  18
ENDBRANCH   7  12
ENDBRANCH   1   8
BRANCH   5  20
ATOM     20  C   UNL     1       0.250  12.358  19.989  0.00  0.00    +0.000 C 
ATOM     21  C   UNL     1       1.305  13.183  20.009  0.00  0.00    +0.000 C 
BRANCH  21  22
ATOM     22  C   UNL     1       1.313  14.548  19.469  0.00  0.00    +0.000 A 
ATOM     23  C   UNL     1       0.113  15.215  19.252  0.00  0.00    +0.000 A 
ATOM     24  C   UNL     1       0.104  16.468  18.628  0.00  0.00    +0.000 A 
ATOM     25  C   UNL     1       1.288  17.106  18.205  0.00  0.00    +0.000 A 
ATOM     26  C   UNL     1       2.504  16.410  18.400  0.00  0.00    +0.000 A 
ATOM     27  C   UNL     1       2.500  15.154  19.035  0.00  0.00    +0.000 A 
BRANCH  25  28
ATOM     28  N   UNL     1       1.131  18.304  17.493  0.00  0.00    +0.000 N 
ATOM     29  C   UNL     1       0.127  18.471  16.456  0.00  0.00    +0.000 C 
ATOM     30  H   UNL     1       2.021  18.696  17.200  0.00  0.00    +0.000 HD
ENDBRANCH  25  28
BRANCH  26  31
ATOM     31  O   UNL     1       3.653  16.971  17.894  0.00  0.00    +0.000 OA
ATOM     32  C   UNL     1       4.818  16.956  18.707  0.00  0.00    +0.000 C 
ENDBRANCH  26  31
ENDBRANCH  21  22
ENDBRANCH   5  20
TORSDOF 8
ENDMDL
MODEL 3
REMARK VINA RESULT:      -7.2      1.237      1.950
REMARK  Name = 
REMARK  12 active torsions:
REMARK  status: ('A' for Active; 'I' for Inactive)
REMARK    1  A    between atoms: C_1  and  N_2
REMARK    2  A    between atoms: N_2  and  C_3
REMARK    3  A    between atoms: C_6  and  C_7
REMARK    4  A    between atoms: C_8  and  C_9
REMARK    5  A    between atoms: C_13  and  C_14
REMARK    6  A    between atoms: C_15  and  C_16
REMARK    7  A    between atoms: C_19  and  N_20
REMARK    8  A    between atoms: N_20  and  C_21
REMARK    9  A    between atoms: C_22  and  O_23
REMARK   10  A    between atoms: O_23  and  C_24
REMARK   11  A    between atoms: C_28  and  O_29
REMARK   12  A    between atoms: O_29  and  C_30
REMARK                            x       y       z     vdW  Elec       q    Type
REMARK                         _______ _______ _______ _____ _____    ______ ____
ROOT
ATOM      1  C   UNL     1      -0.036  11.596  19.497  0.00  0.00    +0.000 A 
ATOM      2  C   UNL     1       0.646  12.619  18.850  0.00  0.00    +0.000 A 
ATOM      3  C   UNL     1       1.779  12.302  18.106  0.00  0.00    +0.000 A 
ATOM      4  C   UNL     1       2.201  10.979  18.037  0.00  0.00    +0.000 A 
ATOM      5  C   UNL     1       1.467  10.006  18.713  0.00  0.00    +0.000 A 
ATOM      6  N   UNL     1       0.363  10.304  19.434  0.00  0.00    +0.000 NA
ENDROOT
BRANCH   1   8
ATOM      7  C   UNL     1      -1.305  12.726  21.316  0.00  0.00    +0.000 C 
ATOM      8  C   UNL     1      -1.257  11.887  20.265  0.00  0.00    +0.000 C 
BRANCH   7  12
ATOM      9  C   UNL     1      -4.858  13.440  23.703  0.00  0.00    +0.000 A 
ATOM     10  C   UNL     1      -4.914  12.885  22.407  0.00  0.00    +0.000 A 
ATOM     11  C   UNL     1      -3.766  12.657  21.626  0.00  0.00    +0.000 A 
ATOM     12  C   UNL     1      -2.507  12.961  22.127  0.00  0.00    +0.000 A 
ATOM     13  C   UNL     1      -2.435  13.555  23.387  0.00  0.00    +0.000 A 
ATOM     14  C   UNL     1      -3.578  13.793  24.179  0.00  0.00    +0.000 A 
BRANCH   9  16
ATOM     15  C   UNL     1      -7.340  13.670  23.955  0.00  0.00    +0.000 C 
ATOM     16  N   UNL     1      -6.005  13.506  24.480  0.00  0.00    +0.000 N 
ATOM     17  H   UNL     1      -5.905  13.629  25.476  0.00  0.00    +0.000 HD
ENDBRANCH   9  16
BRANCH  14  18
ATOM     18  O   UNL     1      -3.198  14.351  25.373  0.00  0.00    +0.000 OA
ATOM     19  C   UNL     1      -2.243  15.388  25.440  0.00  0.00    +0.000 C 
ENDBRANCH  14  18
ENDBRANCH   7  12
ENDBRANCH   1   8
BRANCH   5  20
ATOM     20  C   UNL     1       1.909   8.606  18.709  0.00  0.00    +0.000 C 
ATOM     21  C   UNL     1       2.940   8.152  17.984  0.00  0.00    +0.000 C 
BRANCH  21  22
ATOM     22  C   UNL     1       3.327   6.742  17.869  0.00  0.00    +0.000 A 
ATOM     23  C   UNL     1       2.407   5.742  18.166  0.00  0.00    +0.000 A 
ATOM     24  C   UNL     1       2.801   4.399  18.174  0.00  0.00    +0.000 A 
ATOM     25  C   UNL     1       4.121   4.001  17.880  0.00  0.00    +0.000 A 
ATOM     26  C   UNL     1       5.061   5.022  17.608  0.00  0.00    +0.000 A 
ATOM     27  C   UNL     1       4.650   6.368  17.595  0.00  0.00    +0.000 A 
BRANCH  25  28
ATOM     28  N   UNL     1       4.410   2.637  18.034  0.00  0.00    +0.000 N 
ATOM     29  C   UNL     1       3.376   1.616  18.052  0.00  0.00    +0.000 C 
ATOM     30  H   UNL     1       5.096   2.469  18.764  0.00  0.00    +0.000 HD
ENDBRANCH  25  28
BRANCH  26  31
ATOM     31  O   UNL     1       6.374   4.655  17.428  0.00  0.00    +0.000 OA
ATOM     32  C   UNL     1       6.895   4.668  16.106  0.00  0.00    +0.000 C 
ENDBRANCH  26  31
ENDBRANCH  21  22
ENDBRANCH   5  20
TORSDOF 8
ENDMDL
MODEL 4
REMARK VINA RESULT:      -7.2      4.090     11.420
REMARK  Name = 
REMARK  12 active torsions:
REMARK  status: ('A' for Active; 'I' for Inactive)
REMARK    1  A    between atoms: C_1  and  N_2
REMARK    2  A    between atoms: N_2  and  C_3
REMARK    3  A    between atoms: C_6  and  C_7
REMARK    4  A    between atoms: C_8  and  C_9
REMARK    5  A    between atoms: C_13  and  C_14
REMARK    6  A    between atoms: C_15  and  C_16
REMARK    7  A    between atoms: C_19  and  N_20
REMARK    8  A    between atoms: N_20  and  C_21
REMARK    9  A    between atoms: C_22  and  O_23
REMARK   10  A    between atoms: O_23  and  C_24
REMARK   11  A    between atoms: C_28  and  O_29
REMARK   12  A    between atoms: O_29  and  C_30
REMARK                            x       y       z     vdW  Elec       q    Type
REMARK                         _______ _______ _______ _____ _____    ______ ____
ROOT
ATOM      1  C   UNL     1       1.268   8.549  20.373  0.00  0.00    +0.000 A 
ATOM      2  C   UNL     1       0.450   8.114  21.407  0.00  0.00    +0.000 A 
ATOM      3  C   UNL     1      -0.493   8.994  21.930  0.00  0.00    +0.000 A 
ATOM      4  C   UNL     1      -0.585  10.281  21.412  0.00  0.00    +0.000 A 
ATOM      5  C   UNL     1       0.271  10.648  20.375  0.00  0.00    +0.000 A 
ATOM      6  N   UNL     1       1.186   9.798  19.858  0.00  0.00    +0.000 NA
ENDROOT
BRANCH   1   8
ATOM      7  C   UNL     1       2.480   7.533  18.449  0.00  0.00    +0.000 C 
ATOM      8  C   UNL     1       2.254   7.637  19.772  0.00  0.00    +0.000 C 
BRANCH   7  12
ATOM      9  C   UNL     1       5.242   4.692  16.683  0.00  0.00    +0.000 A 
ATOM     10  C   UNL     1       3.950   4.325  17.114  0.00  0.00    +0.000 A 
ATOM     11  C   UNL     1       3.052   5.241  17.693  0.00  0.00    +0.000 A 
ATOM     12  C   UNL     1       3.412   6.573  17.845  0.00  0.00    +0.000 A 
ATOM     13  C   UNL     1       4.703   6.944  17.468  0.00  0.00    +0.000 A 
ATOM     14  C   UNL     1       5.614   6.036  16.890  0.00  0.00    +0.000 A 
BRANCH   9  16
ATOM     15  C   UNL     1       6.255   3.823  14.562  0.00  0.00    +0.000 C 
ATOM     16  N   UNL     1       6.026   3.782  15.987  0.00  0.00    +0.000 N 
ATOM     17  H   UNL     1       6.311   2.936  16.456  0.00  0.00    +0.000 HD
ENDBRANCH   9  16
BRANCH  14  18
ATOM     18  O   UNL     1       6.784   6.689  16.594  0.00  0.00    +0.000 OA
ATOM     19  C   UNL     1       7.277   7.737  17.400  0.00  0.00    +0.000 C 
ENDBRANCH  14  18
ENDBRANCH   7  12
ENDBRANCH   1   8
BRANCH   5  20
ATOM     20  C   UNL     1       0.241  12.013  19.835  0.00  0.00    +0.000 C 
ATOM     21  C   UNL     1       1.241  12.893  19.978  0.00  0.00    +0.000 C 
BRANCH  21  22
ATOM     22  C   UNL     1       1.190  14.297  19.554  0.00  0.00    +0.000 A 
ATOM     23  C   UNL     1       0.019  14.816  19.011  0.00  0.00    +0.000 A 
ATOM     24  C   UNL     1      -0.003  16.117  18.495  0.00  0.00    +0.000 A 
ATOM     25  C   UNL     1       1.133  16.950  18.507  0.00  0.00    +0.000 A 
ATOM     26  C   UNL     1       2.330  16.409  19.033  0.00  0.00    +0.000 A 
ATOM     27  C   UNL     1       2.337  15.102  19.555  0.00  0.00    +0.000 A 
BRANCH  25  28
ATOM     28  N   UNL     1       1.007  18.188  17.858  0.00  0.00    +0.000 N 
ATOM     29  C   UNL     1       1.094  18.324  16.413  0.00  0.00    +0.000 C 
ATOM     30  H   UNL     1       1.533  18.921  18.322  0.00  0.00    +0.000 HD
ENDBRANCH  25  28
BRANCH  26  31
ATOM     31  O   UNL     1       3.470  17.171  18.951  0.00  0.00    +0.000 OA
ATOM     32  C   UNL     1       4.231  17.364  20.135  0.00  0.00    +0.000 C 
ENDBRANCH  26  31
ENDBRANCH  21  22
ENDBRANCH   5  20
TORSDOF 8
ENDMDL
MODEL 5
REMARK VINA RESULT:      -7.2      1.336     11.264
REMARK  Name = 
REMARK  12 active torsions:
REMARK  status: ('A' for Active; 'I' for Inactive)
REMARK    1  A    between atoms: C_1  and  N_2
REMARK    2  A    between atoms: N_2  and  C_3
REMARK    3  A    between atoms: C_6  and  C_7
REMARK    4  A    between atoms: C_8  and  C_9
REMARK    5  A    between atoms: C_13  and  C_14
REMARK    6  A    between atoms: C_15  and  C_16
REMARK    7  A    between atoms: C_19  and  N_20
REMARK    8  A    between atoms: N_20  and  C_21
REMARK    9  A    between atoms: C_22  and  O_23
REMARK   10  A    between atoms: O_23  and  C_24
REMARK   11  A    between atoms: C_28  and  O_29
REMARK   12  A    between atoms: O_29  and  C_30
REMARK                            x       y       z     vdW  Elec       q    Type
REMARK                         _______ _______ _______ _____ _____    ______ ____
ROOT
ATOM      1  C   UNL     1       1.269  10.563  18.827  0.00  0.00    +0.000 A 
ATOM      2  C   UNL     1       2.028  11.556  18.221  0.00  0.00    +0.000 A 
ATOM      3  C   UNL     1       1.550  12.863  18.230  0.00  0.00    +0.000 A 
ATOM      4  C   UNL     1       0.328  13.138  18.834  0.00  0.00    +0.000 A 
ATOM      5  C   UNL     1      -0.380  12.090  19.420  0.00  0.00    +0.000 A 
ATOM      6  N   UNL     1       0.079  10.818  19.421  0.00  0.00    +0.000 NA
ENDROOT
BRANCH   1   8
ATOM      7  C   UNL     1       2.527   8.618  17.915  0.00  0.00    +0.000 C 
ATOM      8  C   UNL     1       1.756   9.175  18.867  0.00  0.00    +0.000 C 
BRANCH   7  12
ATOM      9  C   UNL     1       3.785   4.465  17.908  0.00  0.00    +0.000 A 
ATOM     10  C   UNL     1       4.635   5.515  17.501  0.00  0.00    +0.000 A 
ATOM     11  C   UNL     1       4.230   6.863  17.495  0.00  0.00    +0.000 A 
ATOM     12  C   UNL     1       2.955   7.213  17.919  0.00  0.00    +0.000 A 
ATOM     13  C   UNL     1       2.085   6.184  18.281  0.00  0.00    +0.000 A 
ATOM     14  C   UNL     1       2.476   4.829  18.288  0.00  0.00    +0.000 A 
BRANCH   9  16
ATOM     15  C   UNL     1       4.320   2.430  19.268  0.00  0.00    +0.000 C 
ATOM     16  N   UNL     1       4.285   3.177  18.033  0.00  0.00    +0.000 N 
ATOM     17  H   UNL     1       4.821   2.794  17.270  0.00  0.00    +0.000 HD
ENDBRANCH   9  16
BRANCH  14  18
ATOM     18  O   UNL     1       1.429   4.054  18.718  0.00  0.00    +0.000 OA
ATOM     19  C   UNL     1       1.032   4.024  20.071  0.00  0.00    +0.000 C 
ENDBRANCH  14  18
ENDBRANCH   7  12
ENDBRANCH   1   8
BRANCH   5  20
ATOM     20  C   UNL     1      -1.698  12.329  20.022  0.00  0.00    +0.000 C 
ATOM     21  C   UNL     1      -1.882  12.649  21.309  0.00  0.00    +0.000 C 
BRANCH  21  22
ATOM     22  C   UNL     1      -3.190  12.776  21.963  0.00  0.00    +0.000 A 
ATOM     23  C   UNL     1      -3.275  12.778  23.351  0.00  0.00    +0.000 A 
ATOM     24  C   UNL     1      -4.524  12.779  23.982  0.00  0.00    +0.000 A 
ATOM     25  C   UNL     1      -5.733  12.786  23.257  0.00  0.00    +0.000 A 
ATOM     26  C   UNL     1      -5.643  12.753  21.845  0.00  0.00    +0.000 A 
ATOM     27  C   UNL     1      -4.381  12.760  21.223  0.00  0.00    +0.000 A 
BRANCH  25  28
ATOM     28  N   UNL     1      -6.913  12.671  24.008  0.00  0.00    +0.000 N 
ATOM     29  C   UNL     1      -7.721  13.823  24.373  0.00  0.00    +0.000 C 
ATOM     30  H   UNL     1      -6.806  12.041  24.796  0.00  0.00    +0.000 HD
ENDBRANCH  25  28
BRANCH  26  31
ATOM     31  O   UNL     1      -6.812  12.649  21.129  0.00  0.00    +0.000 OA
ATOM     32  C   UNL     1      -6.889  13.314  19.876  0.00  0.00    +0.000 C 
ENDBRANCH  26  31
ENDBRANCH  21  22
ENDBRANCH   5  20
TORSDOF 8
ENDMDL
MODEL 6
REMARK VINA RESULT:      -7.2      0.920      1.011
REMARK  Name = 
REMARK  12 active torsions:
REMARK  status: ('A' for Active; 'I' for Inactive)
REMARK    1  A    between atoms: C_1  and  N_2
REMARK    2  A    between atoms: N_2  and  C_3
REMARK    3  A    between atoms: C_6  and  C_7
REMARK    4  A    between atoms: C_8  and  C_9
REMARK    5  A    between atoms: C_13  and  C_14
REMARK    6  A    between atoms: C_15  and  C_16
REMARK    7  A    between atoms: C_19  and  N_20
REMARK    8  A    between atoms: N_20  and  C_21
REMARK    9  A    between atoms: C_22  and  O_23
REMARK   10  A    between atoms: O_23  and  C_24
REMARK   11  A    between atoms: C_28  and  O_29
REMARK   12  A    between atoms: O_29  and  C_30
REMARK                            x       y       z     vdW  Elec       q    Type
REMARK                         _______ _______ _______ _____ _____    ______ ____
ROOT
ATOM      1  C   UNL     1      -0.030  11.658  19.337  0.00  0.00    +0.000 A 
ATOM      2  C   UNL     1       0.753  12.737  18.947  0.00  0.00    +0.000 A 
ATOM      3  C   UNL     1       1.946  12.490  18.274  0.00  0.00    +0.000 A 
ATOM      4  C   UNL     1       2.325  11.176  18.019  0.00  0.00    +0.000 A 
ATOM      5  C   UNL     1       1.489  10.144  18.442  0.00  0.00    +0.000 A 
ATOM      6  N   UNL     1       0.326  10.375  19.092  0.00  0.00    +0.000 NA
ENDROOT
BRANCH   1   8
ATOM      7  C   UNL     1      -1.443  12.540  21.187  0.00  0.00    +0.000 C 
ATOM      8  C   UNL     1      -1.313  11.881  20.022  0.00  0.00    +0.000 C 
BRANCH   7  12
ATOM      9  C   UNL     1      -5.199  12.995  23.312  0.00  0.00    +0.000 A 
ATOM     10  C   UNL     1      -3.954  12.955  23.973  0.00  0.00    +0.000 A 
ATOM     11  C   UNL     1      -2.734  12.802  23.290  0.00  0.00    +0.000 A 
ATOM     12  C   UNL     1      -2.714  12.701  21.905  0.00  0.00    +0.000 A 
ATOM     13  C   UNL     1      -3.939  12.690  21.238  0.00  0.00    +0.000 A 
ATOM     14  C   UNL     1      -5.170  12.839  21.910  0.00  0.00    +0.000 A 
BRANCH   9  16
ATOM     15  C   UNL     1      -6.990  14.591  24.037  0.00  0.00    +0.000 C 
ATOM     16  N   UNL     1      -6.353  13.295  24.021  0.00  0.00    +0.000 N 
ATOM     17  H   UNL     1      -6.678  12.636  24.712  0.00  0.00    +0.000 HD
ENDBRANCH   9  16
BRANCH  14  18
ATOM     18  O   UNL     1      -6.193  12.825  20.997  0.00  0.00    +0.000 OA
ATOM     19  C   UNL     1      -6.943  11.658  20.737  0.00  0.00    +0.000 C 
ENDBRANCH  14  18
ENDBRANCH   7  12
ENDBRANCH   1   8
BRANCH   5  20
ATOM     20  C   UNL     1       1.878   8.743  18.238  0.00  0.00    +0.000 C 
ATOM     21  C   UNL     1       2.161   7.896  19.236  0.00  0.00    +0.000 C 
BRANCH  21  22
ATOM     22  C   UNL     1       2.665   6.529  19.058  0.00  0.00    +0.000 A 
ATOM     23  C   UNL     1       2.231   5.514  19.903  0.00  0.00    +0.000 A 
ATOM     24  C   UNL     1       2.794   4.235  19.818  0.00  0.00    +0.000 A 
ATOM     25  C   UNL     1       3.803   3.918  18.886  0.00  0.00    +0.000 A 
ATOM     26  C   UNL     1       4.264   4.961  18.049  0.00  0.00    +0.000 A 
ATOM     27  C   UNL     1       3.683   6.240  18.139  0.00  0.00    +0.000 A 
BRANCH  25  28
ATOM     28  N   UNL     1       4.360   2.634  18.981  0.00  0.00    +0.000 N 
ATOM     29  C   UNL     1       3.692   1.452  18.464  0.00  0.00    +0.000 C 
ATOM     30  H   UNL     1       4.753   2.453  19.900  0.00  0.00    +0.000 HD
ENDBRANCH  25  28
BRANCH  26  31
ATOM     31  O   UNL     1       5.321   4.694  17.212  0.00  0.00    +0.000 OA
ATOM     32  C   UNL     1       5.034   4.243  15.895  0.00  0.00    +0.000 C 
ENDBRANCH  26  31
ENDBRANCH  21  22
ENDBRANCH   5  20
TORSDOF 8
ENDMDL
MODEL 7
REMARK VINA RESULT:      -7.2      1.644      2.673
REMARK  Name = 
REMARK  12 active torsions:
REMARK  status: ('A' for Active; 'I' for Inactive)
REMARK    1  A    between atoms: C_1  and  N_2
REMARK    2  A    between atoms: N_2  and  C_3
REMARK    3  A    between atoms: C_6  and  C_7
REMARK    4  A    between atoms: C_8  and  C_9
REMARK    5  A    between atoms: C_13  and  C_14
REMARK    6  A    between atoms: C_15  and  C_16
REMARK    7  A    between atoms: C_19  and  N_20
REMARK    8  A    between atoms: N_20  and  C_21
REMARK    9  A    between atoms: C_22  and  O_23
REMARK   10  A    between atoms: O_23  and  C_24
REMARK   11  A    between atoms: C_28  and  O_29
REMARK   12  A    between atoms: O_29  and  C_30
REMARK                            x       y       z     vdW  Elec       q    Type
REMARK                         _______ _______ _______ _____ _____    ______ ____
ROOT
ATOM      1  C   UNL     1      -0.164  11.793  19.175  0.00  0.00    +0.000 A 
ATOM      2  C   UNL     1       0.467  13.019  19.015  0.00  0.00    +0.000 A 
ATOM      3  C   UNL     1       1.722  13.053  18.415  0.00  0.00    +0.000 A 
ATOM      4  C   UNL     1       2.312  11.864  18.001  0.00  0.00    +0.000 A 
ATOM      5  C   UNL     1       1.620  10.670  18.196  0.00  0.00    +0.000 A 
ATOM      6  N   UNL     1       0.398  10.629  18.774  0.00  0.00    +0.000 NA
ENDROOT
BRANCH   1   8
ATOM      7  C   UNL     1      -2.481  12.621  19.556  0.00  0.00    +0.000 C 
ATOM      8  C   UNL     1      -1.506  11.720  19.775  0.00  0.00    +0.000 C 
BRANCH   7  12
ATOM      9  C   UNL     1      -6.368  12.541  21.483  0.00  0.00    +0.000 A 
ATOM     10  C   UNL     1      -6.189  12.206  20.124  0.00  0.00    +0.000 A 
ATOM     11  C   UNL     1      -4.932  12.236  19.492  0.00  0.00    +0.000 A 
ATOM     12  C   UNL     1      -3.796  12.587  20.210  0.00  0.00    +0.000 A 
ATOM     13  C   UNL     1      -3.960  12.967  21.542  0.00  0.00    +0.000 A 
ATOM     14  C   UNL     1      -5.215  12.946  22.186  0.00  0.00    +0.000 A 
BRANCH   9  16
ATOM     15  C   UNL     1      -7.917  11.262  22.981  0.00  0.00    +0.000 C 
ATOM     16  N   UNL     1      -7.602  12.352  22.086  0.00  0.00    +0.000 N 
ATOM     17  H   UNL     1      -8.388  12.890  21.754  0.00  0.00    +0.000 HD
ENDBRANCH   9  16
BRANCH  14  18
ATOM     18  O   UNL     1      -5.063  13.335  23.493  0.00  0.00    +0.000 OA
ATOM     19  C   UNL     1      -4.514  12.474  24.467  0.00  0.00    +0.000 C 
ENDBRANCH  14  18
ENDBRANCH   7  12
ENDBRANCH   1   8
BRANCH   5  20
ATOM     20  C   UNL     1       2.230   9.389  17.821  0.00  0.00    +0.000 C 
ATOM     21  C   UNL     1       2.226   8.304  18.606  0.00  0.00    +0.000 C 
BRANCH  21  22
ATOM     22  C   UNL     1       2.929   7.050  18.308  0.00  0.00    +0.000 A 
ATOM     23  C   UNL     1       3.998   7.048  17.419  0.00  0.00    +0.000 A 
ATOM     24  C   UNL     1       4.598   5.842  17.037  0.00  0.00    +0.000 A 
ATOM     25  C   UNL     1       4.161   4.596  17.531  0.00  0.00    +0.000 A 
ATOM     26  C   UNL     1       3.053   4.600  18.411  0.00  0.00    +0.000 A 
ATOM     27  C   UNL     1       2.465   5.820  18.793  0.00  0.00    +0.000 A 
BRANCH  25  28
ATOM     28  N   UNL     1       4.772   3.459  16.983  0.00  0.00    +0.000 N 
ATOM     29  C   UNL     1       5.627   3.520  15.809  0.00  0.00    +0.000 C 
ATOM     30  H   UNL     1       4.134   2.671  16.924  0.00  0.00    +0.000 HD
ENDBRANCH  25  28
BRANCH  26  31
ATOM     31  O   UNL     1       2.549   3.386  18.814  0.00  0.00    +0.000 OA
ATOM     32  C   UNL     1       1.200   3.081  18.488  0.00  0.00    +0.000 C 
ENDBRANCH  26  31
ENDBRANCH  21  22
ENDBRANCH   5  20
TORSDOF 8
ENDMDL
MODEL 8
REMARK VINA RESULT:      -7.1      8.523     12.688
REMARK  Name = 
REMARK  12 active torsions:
REMARK  status: ('A' for Active; 'I' for Inactive)
REMARK    1  A    between atoms: C_1  and  N_2
REMARK    2  A    between atoms: N_2  and  C_3
REMARK    3  A    between atoms: C_6  and  C_7
REMARK    4  A    between atoms: C_8  and  C_9
REMARK    5  A    between atoms: C_13  and  C_14
REMARK    6  A    between atoms: C_15  and  C_16
REMARK    7  A    between atoms: C_19  and  N_20
REMARK    8  A    between atoms: N_20  and  C_21
REMARK    9  A    between atoms: C_22  and  O_23
REMARK   10  A    between atoms: O_23  and  C_24
REMARK   11  A    between atoms: C_28  and  O_29
REMARK   12  A    between atoms: O_29  and  C_30
REMARK                            x       y       z     vdW  Elec       q    Type
REMARK                         _______ _______ _______ _____ _____    ______ ____
ROOT
ATOM      1  C   UNL     1       9.234  10.101  18.902  0.00  0.00    +0.000 A 
ATOM      2  C   UNL     1       9.885  10.762  17.868  0.00  0.00    +0.000 A 
ATOM      3  C   UNL     1      10.436  12.015  18.116  0.00  0.00    +0.000 A 
ATOM      4  C   UNL     1      10.314  12.575  19.383  0.00  0.00    +0.000 A 
ATOM      5  C   UNL     1       9.646  11.854  20.372  0.00  0.00    +0.000 A 
ATOM      6  N   UNL     1       9.112  10.634  20.141  0.00  0.00    +0.000 NA
ENDROOT
BRANCH   1   8
ATOM      7  C   UNL     1       7.815   8.451  17.694  0.00  0.00    +0.000 C 
ATOM      8  C   UNL     1       8.668   8.760  18.687  0.00  0.00    +0.000 C 
BRANCH   7  12
ATOM      9  C   UNL     1       6.001   4.543  17.182  0.00  0.00    +0.000 A 
ATOM     10  C   UNL     1       6.466   5.005  18.431  0.00  0.00    +0.000 A 
ATOM     11  C   UNL     1       7.061   6.268  18.601  0.00  0.00    +0.000 A 
ATOM     12  C   UNL     1       7.195   7.131  17.521  0.00  0.00    +0.000 A 
ATOM     13  C   UNL     1       6.783   6.673  16.270  0.00  0.00    +0.000 A 
ATOM     14  C   UNL     1       6.189   5.408  16.083  0.00  0.00    +0.000 A 
BRANCH   9  16
ATOM     15  C   UNL     1       4.061   3.085  17.808  0.00  0.00    +0.000 C 
ATOM     16  N   UNL     1       5.293   3.353  17.102  0.00  0.00    +0.000 N 
ATOM     17  H   UNL     1       5.740   2.555  16.676  0.00  0.00    +0.000 HD
ENDBRANCH   9  16
BRANCH  14  18
ATOM     18  O   UNL     1       5.859   5.248  14.761  0.00  0.00    +0.000 OA
ATOM     19  C   UNL     1       6.510   4.303  13.940  0.00  0.00    +0.000 C 
ENDBRANCH  14  18
ENDBRANCH   7  12
ENDBRANCH   1   8
BRANCH   5  20
ATOM     20  C   UNL     1       9.450  12.431  21.707  0.00  0.00    +0.000 C 
ATOM     21  C   UNL     1       8.516  12.012  22.571  0.00  0.00    +0.000 C 
BRANCH  21  22
ATOM     22  C   UNL     1       8.221  12.646  23.861  0.00  0.00    +0.000 A 
ATOM     23  C   UNL     1       8.559  13.978  24.073  0.00  0.00    +0.000 A 
ATOM     24  C   UNL     1       8.391  14.557  25.336  0.00  0.00    +0.000 A 
ATOM     25  C   UNL     1       7.873  13.836  26.431  0.00  0.00    +0.000 A 
ATOM     26  C   UNL     1       7.559  12.473  26.220  0.00  0.00    +0.000 A 
ATOM     27  C   UNL     1       7.726  11.905  24.943  0.00  0.00    +0.000 A 
BRANCH  25  28
ATOM     28  N   UNL     1       7.862  14.500  27.667  0.00  0.00    +0.000 N 
ATOM     29  C   UNL     1       9.011  14.515  28.556  0.00  0.00    +0.000 C 
ATOM     30  H   UNL     1       7.006  14.331  28.186  0.00  0.00    +0.000 HD
ENDBRANCH  25  28
BRANCH  26  31
ATOM     31  O   UNL     1       7.157  11.731  27.305  0.00  0.00    +0.000 OA
ATOM     32  C   UNL     1       5.912  11.051  27.225  0.00  0.00    +0.000 C 
ENDBRANCH  26  31
ENDBRANCH  21  22
ENDBRANCH   5  20
TORSDOF 8
ENDMDL
MODEL 9
REMARK VINA RESULT:      -7.1      6.478     12.582
REMARK  Name = 
REMARK  12 active torsions:
REMARK  status: ('A' for Active; 'I' for Inactive)
REMARK    1  A    between atoms: C_1  and  N_2
REMARK    2  A    between atoms: N_2  and  C_3
REMARK    3  A    between atoms: C_6  and  C_7
REMARK    4  A    between atoms: C_8  and  C_9
REMARK    5  A    between atoms: C_13  and  C_14
REMARK    6  A    between atoms: C_15  and  C_16
REMARK    7  A    between atoms: C_19  and  N_20
REMARK    8  A    between atoms: N_20  and  C_21
REMARK    9  A    between atoms: C_22  and  O_23
REMARK   10  A    between atoms: O_23  and  C_24
REMARK   11  A    between atoms: C_28  and  O_29
REMARK   12  A    between atoms: O_29  and  C_30
REMARK                            x       y       z     vdW  Elec       q    Type
REMARK                         _______ _______ _______ _____ _____    ______ ____
ROOT
ATOM      1  C   UNL     1       9.440  11.134  18.220  0.00  0.00    +0.000 A 
ATOM      2  C   UNL     1      10.752  11.383  17.840  0.00  0.00    +0.000 A 
ATOM      3  C   UNL     1      11.165  12.703  17.682  0.00  0.00    +0.000 A 
ATOM      4  C   UNL     1      10.255  13.732  17.898  0.00  0.00    +0.000 A 
ATOM      5  C   UNL     1       8.954  13.406  18.276  0.00  0.00    +0.000 A 
ATOM      6  N   UNL     1       8.546  12.127  18.437  0.00  0.00    +0.000 NA
ENDROOT
BRANCH   1   8
ATOM      7  C   UNL     1       8.180   9.086  17.573  0.00  0.00    +0.000 C 
ATOM      8  C   UNL     1       8.976   9.754  18.429  0.00  0.00    +0.000 C 
BRANCH   7  12
ATOM      9  C   UNL     1       6.656   5.085  18.278  0.00  0.00    +0.000 A 
ATOM     10  C   UNL     1       7.677   5.658  19.067  0.00  0.00    +0.000 A 
ATOM     11  C   UNL     1       8.179   6.952  18.839  0.00  0.00    +0.000 A 
ATOM     12  C   UNL     1       7.660   7.735  17.816  0.00  0.00    +0.000 A 
ATOM     13  C   UNL     1       6.684   7.168  16.996  0.00  0.00    +0.000 A 
ATOM     14  C   UNL     1       6.174   5.871  17.210  0.00  0.00    +0.000 A 
BRANCH   9  16
ATOM     15  C   UNL     1       4.796   3.709  19.238  0.00  0.00    +0.000 C 
ATOM     16  N   UNL     1       6.101   3.867  18.640  0.00  0.00    +0.000 N 
ATOM     17  H   UNL     1       6.697   3.054  18.662  0.00  0.00    +0.000 HD
ENDBRANCH   9  16
BRANCH  14  18
ATOM     18  O   UNL     1       5.208   5.599  16.275  0.00  0.00    +0.000 OA
ATOM     19  C   UNL     1       5.470   4.793  15.146  0.00  0.00    +0.000 C 
ENDBRANCH  14  18
ENDBRANCH   7  12
ENDBRANCH   1   8
BRANCH   5  20
ATOM     20  C   UNL     1       7.949  14.460  18.463  0.00  0.00    +0.000 C 
ATOM     21  C   UNL     1       7.462  14.821  19.657  0.00  0.00    +0.000 C 
BRANCH  21  22
ATOM     22  C   UNL     1       6.375  15.786  19.863  0.00  0.00    +0.000 A 
ATOM     23  C   UNL     1       6.466  16.727  20.882  0.00  0.00    +0.000 A 
ATOM     24  C   UNL     1       5.385  17.572  21.162  0.00  0.00    +0.000 A 
ATOM     25  C   UNL     1       4.179  17.516  20.434  0.00  0.00    +0.000 A 
ATOM     26  C   UNL     1       4.079  16.536  19.419  0.00  0.00    +0.000 A 
ATOM     27  C   UNL     1       5.176  15.698  19.142  0.00  0.00    +0.000 A 
BRANCH  25  28
ATOM     28  N   UNL     1       3.137  18.338  20.889  0.00  0.00    +0.000 N 
ATOM     29  C   UNL     1       2.211  17.921  21.928  0.00  0.00    +0.000 C 
ATOM     30  H   UNL     1       2.644  18.791  20.126  0.00  0.00    +0.000 HD
ENDBRANCH  25  28
BRANCH  26  31
ATOM     31  O   UNL     1       2.871  16.398  18.777  0.00  0.00    +0.000 OA
ATOM     32  C   UNL     1       2.754  16.912  17.457  0.00  0.00    +0.000 C 
ENDBRANCH  26  31
ENDBRANCH  21  22
ENDBRANCH   5  20
TORSDOF 8
ENDMDL
