MODEL 1
REMARK VINA RESULT:      -6.3      0.000      0.000
REMARK  Name = 
REMARK  7 active torsions:
REMARK  status: ('A' for Active; 'I' for Inactive)
REMARK    1  A    between atoms: C_1  and  O_2
REMARK    2  A    between atoms: O_2  and  C_3
REMARK    3  A    between atoms: C_8  and  C_9
REMARK    4  A    between atoms: C_9  and  C_10
REMARK    5  A    between atoms: C_10  and  N_11
REMARK    6  A    between atoms: C_12  and  C_14
REMARK    7  A    between atoms: C_14  and  N_15
REMARK                            x       y       z     vdW  Elec       q    Type
REMARK                         _______ _______ _______ _____ _____    ______ ____
ROOT
ATOM      1  C   UNL     1       3.641   4.676  17.250  0.00  0.00    +0.000 C 
ENDROOT
BRANCH   1   7
ATOM      2  C   UNL     1       2.339   4.851  19.445  0.00  0.00    +0.000 A 
ATOM      3  C   UNL     1       1.341   4.375  20.305  0.00  0.00    +0.000 A 
ATOM      4  C   UNL     1       0.670   3.185  20.020  0.00  0.00    +0.000 A 
ATOM      5  C   UNL     1       0.971   2.481  18.859  0.00  0.00    +0.000 A 
ATOM      6  C   UNL     1       1.919   2.985  17.967  0.00  0.00    +0.000 A 
ATOM      7  C   UNL     1       2.609   4.178  18.241  0.00  0.00    +0.000 A 
BRANCH   2   9
ATOM      8  C   UNL     1       2.353   7.194  19.696  0.00  0.00    +0.000 C 
ATOM      9  O   UNL     1       3.085   5.969  19.716  0.00  0.00    +0.000 OA
ENDBRANCH   2   9
ENDBRANCH   1   7
BRANCH   1  10
ATOM     10  C   UNL     1       5.034   4.075  17.466  0.00  0.00    +0.000 C 
BRANCH  10  11
ATOM     11  N   UNL     1       5.875   4.898  18.320  0.00  0.00    +0.000 N 
ATOM     12  C   UNL     1       7.222   5.073  18.101  0.00  0.00    +0.000 C 
ATOM     13  O   UNL     1       7.841   4.510  17.200  0.00  0.00    +0.000 OA
ATOM     14  H   UNL     1       5.502   5.312  19.172  0.00  0.00    +0.000 HD
BRANCH  12  15
ATOM     15  C   UNL     1       7.913   6.026  19.086  0.00  0.00    +0.000 C 
BRANCH  15  16
ATOM     16  N   UNL     1       8.094   5.405  20.416  0.00  0.00    +0.000 NA
ATOM     17  H   UNL     1       8.388   4.437  20.270  0.00  0.00    +0.000 HD
ATOM     18  H   UNL     1       7.175   5.340  20.856  0.00  0.00    +0.000 HD
ENDBRANCH  15  16
ENDBRANCH  12  15
ENDBRANCH  10  11
ENDBRANCH   1  10
TORSDOF 6
ENDMDL
MODEL 2
REMARK VINA RESULT:      -6.0      1.088      1.102
REMARK  Name = 
REMARK  7 active torsions:
REMARK  status: ('A' for Active; 'I' for Inactive)
REMARK    1  A    between atoms: C_1  and  O_2
REMARK    2  A    between atoms: O_2  and  C_3
REMARK    3  A    between atoms: C_8  and  C_9
REMARK    4  A    between atoms: C_9  and  C_10
REMARK    5  A    between atoms: C_10  and  N_11
REMARK    6  A    between atoms: C_12  and  C_14
REMARK    7  A    between atoms: C_14  and  N_15
REMARK                            x       y       z     vdW  Elec       q    Type
REMARK                         _______ _______ _______ _____ _____    ______ ____
ROOT
ATOM      1  C   UNL     1       3.283   5.808  17.578  0.00  0.00    +0.000 C 
ENDROOT
BRANCH   1   7
ATOM      2  C   UNL     1       2.062   5.179  19.737  0.00  0.00    +0.000 A 
ATOM      3  C   UNL     1       1.222   4.310  20.446  0.00  0.00    +0.000 A 
ATOM      4  C   UNL     1       0.808   3.105  19.879  0.00  0.00    +0.000 A 
ATOM      5  C   UNL     1       1.206   2.775  18.588  0.00  0.00    +0.000 A 
ATOM      6  C   UNL     1       1.989   3.666  17.852  0.00  0.00    +0.000 A 
ATOM      7  C   UNL     1       2.420   4.882  18.411  0.00  0.00    +0.000 A 
BRANCH   2   9
ATOM      8  C   UNL     1       1.576   7.275  20.698  0.00  0.00    +0.000 C 
ATOM      9  O   UNL     1       2.563   6.336  20.274  0.00  0.00    +0.000 OA
ENDBRANCH   2   9
ENDBRANCH   1   7
BRANCH   1  10
ATOM     10  C   UNL     1       4.541   5.134  17.021  0.00  0.00    +0.000 C 
BRANCH  10  11
ATOM     11  N   UNL     1       5.765   5.663  17.599  0.00  0.00    +0.000 N 
ATOM     12  C   UNL     1       6.346   5.142  18.732  0.00  0.00    +0.000 C 
ATOM     13  O   UNL     1       5.857   4.220  19.382  0.00  0.00    +0.000 OA
ATOM     14  H   UNL     1       6.194   6.507  17.223  0.00  0.00    +0.000 HD
BRANCH  12  15
ATOM     15  C   UNL     1       7.665   5.811  19.142  0.00  0.00    +0.000 C 
BRANCH  15  16
ATOM     16  N   UNL     1       8.092   5.401  20.497  0.00  0.00    +0.000 NA
ATOM     17  H   UNL     1       9.034   5.768  20.651  0.00  0.00    +0.000 HD
ATOM     18  H   UNL     1       8.200   4.386  20.494  0.00  0.00    +0.000 HD
ENDBRANCH  15  16
ENDBRANCH  12  15
ENDBRANCH  10  11
ENDBRANCH   1  10
TORSDOF 6
ENDMDL
MODEL 3
REMARK VINA RESULT:      -5.8      1.031      1.142
REMARK  Name = 
REMARK  7 active torsions:
REMARK  status: ('A' for Active; 'I' for Inactive)
REMARK    1  A    between atoms: C_1  and  O_2
REMARK    2  A    between atoms: O_2  and  C_3
REMARK    3  A    between atoms: C_8  and  C_9
REMARK    4  A    between atoms: C_9  and  C_10
REMARK    5  A    between atoms: C_10  and  N_11
REMARK    6  A    between atoms: C_12  and  C_14
REMARK    7  A    between atoms: C_14  and  N_15
REMARK                            x       y       z     vdW  Elec       q    Type
REMARK                         _______ _______ _______ _____ _____    ______ ____
ROOT
ATOM      1  C   UNL     1       3.632   4.321  17.106  0.00  0.00    +0.000 C 
ENDROOT
BRANCH   1   7
ATOM      2  C   UNL     1       2.420   4.973  19.262  0.00  0.00    +0.000 A 
ATOM      3  C   UNL     1       1.525   4.659  20.294  0.00  0.00    +0.000 A 
ATOM      4  C   UNL     1       0.988   3.376  20.398  0.00  0.00    +0.000 A 
ATOM      5  C   UNL     1       1.318   2.408  19.455  0.00  0.00    +0.000 A 
ATOM      6  C   UNL     1       2.158   2.734  18.389  0.00  0.00    +0.000 A 
ATOM      7  C   UNL     1       2.713   4.021  18.272  0.00  0.00    +0.000 A 
BRANCH   2   9
ATOM      8  C   UNL     1       2.295   7.288  19.690  0.00  0.00    +0.000 C 
ATOM      9  O   UNL     1       3.039   6.192  19.158  0.00  0.00    +0.000 OA
ENDBRANCH   2   9
ENDBRANCH   1   7
BRANCH   1  10
ATOM     10  C   UNL     1       5.108   4.043  17.405  0.00  0.00    +0.000 C 
BRANCH  10  11
ATOM     11  N   UNL     1       5.824   5.228  17.851  0.00  0.00    +0.000 N 
ATOM     12  C   UNL     1       7.193   5.349  17.777  0.00  0.00    +0.000 C 
ATOM     13  O   UNL     1       7.932   4.451  17.378  0.00  0.00    +0.000 OA
ATOM     14  H   UNL     1       5.332   5.986  18.319  0.00  0.00    +0.000 HD
BRANCH  12  15
ATOM     15  C   UNL     1       7.743   6.702  18.248  0.00  0.00    +0.000 C 
BRANCH  15  16
ATOM     16  N   UNL     1       7.636   7.736  17.196  0.00  0.00    +0.000 NA
ATOM     17  H   UNL     1       6.887   7.455  16.560  0.00  0.00    +0.000 HD
ATOM     18  H   UNL     1       8.489   7.696  16.635  0.00  0.00    +0.000 HD
ENDBRANCH  15  16
ENDBRANCH  12  15
ENDBRANCH  10  11
ENDBRANCH   1  10
TORSDOF 6
ENDMDL
MODEL 4
REMARK VINA RESULT:      -5.8      1.959      2.375
REMARK  Name = 
REMARK  7 active torsions:
REMARK  status: ('A' for Active; 'I' for Inactive)
REMARK    1  A    between atoms: C_1  and  O_2
REMARK    2  A    between atoms: O_2  and  C_3
REMARK    3  A    between atoms: C_8  and  C_9
REMARK    4  A    between atoms: C_9  and  C_10
REMARK    5  A    between atoms: C_10  and  N_11
REMARK    6  A    between atoms: C_12  and  C_14
REMARK    7  A    between atoms: C_14  and  N_15
REMARK                            x       y       z     vdW  Elec       q    Type
REMARK                         _______ _______ _______ _____ _____    ______ ____
ROOT
ATOM      1  C   UNL     1       3.849   2.908  17.539  0.00  0.00    +0.000 C 
ENDROOT
BRANCH   1   7
ATOM      2  C   UNL     1       3.526   2.727  20.071  0.00  0.00    +0.000 A 
ATOM      3  C   UNL     1       2.694   2.799  21.196  0.00  0.00    +0.000 A 
ATOM      4  C   UNL     1       1.318   2.974  21.049  0.00  0.00    +0.000 A 
ATOM      5  C   UNL     1       0.770   3.110  19.778  0.00  0.00    +0.000 A 
ATOM      6  C   UNL     1       1.602   3.105  18.657  0.00  0.00    +0.000 A 
ATOM      7  C   UNL     1       2.990   2.923  18.787  0.00  0.00    +0.000 A 
BRANCH   2   9
ATOM      8  C   UNL     1       5.216   1.302  20.887  0.00  0.00    +0.000 C 
ATOM      9  O   UNL     1       4.871   2.476  20.153  0.00  0.00    +0.000 OA
ENDBRANCH   2   9
ENDBRANCH   1   7
BRANCH   1  10
ATOM     10  C   UNL     1       4.266   4.305  17.070  0.00  0.00    +0.000 C 
BRANCH  10  11
ATOM     11  N   UNL     1       5.307   4.890  17.900  0.00  0.00    +0.000 N 
ATOM     12  C   UNL     1       6.640   4.866  17.559  0.00  0.00    +0.000 C 
ATOM     13  O   UNL     1       7.072   4.306  16.553  0.00  0.00    +0.000 OA
ATOM     14  H   UNL     1       5.087   5.269  18.819  0.00  0.00    +0.000 HD
BRANCH  12  15
ATOM     15  C   UNL     1       7.567   5.589  18.545  0.00  0.00    +0.000 C 
BRANCH  15  16
ATOM     16  N   UNL     1       7.214   5.291  19.951  0.00  0.00    +0.000 NA
ATOM     17  H   UNL     1       7.330   4.286  20.094  0.00  0.00    +0.000 HD
ATOM     18  H   UNL     1       6.212   5.461  20.061  0.00  0.00    +0.000 HD
ENDBRANCH  15  16
ENDBRANCH  12  15
ENDBRANCH  10  11
ENDBRANCH   1  10
TORSDOF 6
ENDMDL
MODEL 5
REMARK VINA RESULT:      -5.8      2.706      5.721
REMARK  Name = 
REMARK  7 active torsions:
REMARK  status: ('A' for Active; 'I' for Inactive)
REMARK    1  A    between atoms: C_1  and  O_2
REMARK    2  A    between atoms: O_2  and  C_3
REMARK    3  A    between atoms: C_8  and  C_9
REMARK    4  A    between atoms: C_9  and  C_10
REMARK    5  A    between atoms: C_10  and  N_11
REMARK    6  A    between atoms: C_12  and  C_14
REMARK    7  A    between atoms: C_14  and  N_15
REMARK                            x       y       z     vdW  Elec       q    Type
REMARK                         _______ _______ _______ _____ _____    ______ ____
ROOT
ATOM      1  C   UNL     1       3.660   3.765  17.307  0.00  0.00    +0.000 C 
ENDROOT
BRANCH   1   7
ATOM      2  C   UNL     1       6.129   4.170  16.767  0.00  0.00    +0.000 A 
ATOM      3  C   UNL     1       7.368   4.729  17.105  0.00  0.00    +0.000 A 
ATOM      4  C   UNL     1       7.555   5.342  18.344  0.00  0.00    +0.000 A 
ATOM      5  C   UNL     1       6.495   5.426  19.241  0.00  0.00    +0.000 A 
ATOM      6  C   UNL     1       5.240   4.929  18.884  0.00  0.00    +0.000 A 
ATOM      7  C   UNL     1       5.036   4.303  17.641  0.00  0.00    +0.000 A 
BRANCH   2   9
ATOM      8  C   UNL     1       6.374   4.153  14.423  0.00  0.00    +0.000 C 
ATOM      9  O   UNL     1       5.912   3.487  15.599  0.00  0.00    +0.000 OA
ENDBRANCH   2   9
ENDBRANCH   1   7
BRANCH   1  10
ATOM     10  C   UNL     1       3.335   2.444  18.010  0.00  0.00    +0.000 C 
BRANCH  10  11
ATOM     11  N   UNL     1       2.885   2.632  19.381  0.00  0.00    +0.000 N 
ATOM     12  C   UNL     1       1.560   2.597  19.746  0.00  0.00    +0.000 C 
ATOM     13  O   UNL     1       0.639   2.456  18.944  0.00  0.00    +0.000 OA
ATOM     14  H   UNL     1       3.546   2.884  20.113  0.00  0.00    +0.000 HD
BRANCH  12  15
ATOM     15  C   UNL     1       1.306   2.762  21.251  0.00  0.00    +0.000 C 
BRANCH  15  16
ATOM     16  N   UNL     1       2.553   2.638  22.036  0.00  0.00    +0.000 NA
ATOM     17  H   UNL     1       2.528   3.345  22.773  0.00  0.00    +0.000 HD
ATOM     18  H   UNL     1       3.329   2.912  21.431  0.00  0.00    +0.000 HD
ENDBRANCH  15  16
ENDBRANCH  12  15
ENDBRANCH  10  11
ENDBRANCH   1  10
TORSDOF 6
ENDMDL
MODEL 6
REMARK VINA RESULT:      -5.7      2.579      5.081
REMARK  Name = 
REMARK  7 active torsions:
REMARK  status: ('A' for Active; 'I' for Inactive)
REMARK    1  A    between atoms: C_1  and  O_2
REMARK    2  A    between atoms: O_2  and  C_3
REMARK    3  A    between atoms: C_8  and  C_9
REMARK    4  A    between atoms: C_9  and  C_10
REMARK    5  A    between atoms: C_10  and  N_11
REMARK    6  A    between atoms: C_12  and  C_14
REMARK    7  A    between atoms: C_14  and  N_15
REMARK                            x       y       z     vdW  Elec       q    Type
REMARK                         _______ _______ _______ _____ _____    ______ ____
ROOT
ATOM      1  C   UNL     1       3.287   3.354  17.265  0.00  0.00    +0.000 C 
ENDROOT
BRANCH   1   7
ATOM      2  C   UNL     1       4.983   4.733  18.596  0.00  0.00    +0.000 A 
ATOM      3  C   UNL     1       6.267   5.276  18.729  0.00  0.00    +0.000 A 
ATOM      4  C   UNL     1       7.189   5.179  17.686  0.00  0.00    +0.000 A 
ATOM      5  C   UNL     1       6.841   4.513  16.516  0.00  0.00    +0.000 A 
ATOM      6  C   UNL     1       5.585   3.913  16.403  0.00  0.00    +0.000 A 
ATOM      7  C   UNL     1       4.643   4.007  17.442  0.00  0.00    +0.000 A 
BRANCH   2   9
ATOM      8  C   UNL     1       3.231   6.058  19.450  0.00  0.00    +0.000 C 
ATOM      9  O   UNL     1       4.013   4.869  19.555  0.00  0.00    +0.000 OA
ENDBRANCH   2   9
ENDBRANCH   1   7
BRANCH   1  10
ATOM     10  C   UNL     1       3.143   2.034  18.029  0.00  0.00    +0.000 C 
BRANCH  10  11
ATOM     11  N   UNL     1       2.784   2.227  19.424  0.00  0.00    +0.000 N 
ATOM     12  C   UNL     1       1.497   2.479  19.840  0.00  0.00    +0.000 C 
ATOM     13  O   UNL     1       0.549   2.613  19.067  0.00  0.00    +0.000 OA
ATOM     14  H   UNL     1       3.503   2.266  20.144  0.00  0.00    +0.000 HD
BRANCH  12  15
ATOM     15  C   UNL     1       1.325   2.595  21.360  0.00  0.00    +0.000 C 
BRANCH  15  16
ATOM     16  N   UNL     1       2.332   3.498  21.960  0.00  0.00    +0.000 NA
ATOM     17  H   UNL     1       3.154   3.494  21.353  0.00  0.00    +0.000 HD
ATOM     18  H   UNL     1       2.646   3.074  22.835  0.00  0.00    +0.000 HD
ENDBRANCH  15  16
ENDBRANCH  12  15
ENDBRANCH  10  11
ENDBRANCH   1  10
TORSDOF 6
ENDMDL
MODEL 7
REMARK VINA RESULT:      -5.7      3.999      5.512
REMARK  Name = 
REMARK  7 active torsions:
REMARK  status: ('A' for Active; 'I' for Inactive)
REMARK    1  A    between atoms: C_1  and  O_2
REMARK    2  A    between atoms: O_2  and  C_3
REMARK    3  A    between atoms: C_8  and  C_9
REMARK    4  A    between atoms: C_9  and  C_10
REMARK    5  A    between atoms: C_10  and  N_11
REMARK    6  A    between atoms: C_12  and  C_14
REMARK    7  A    between atoms: C_14  and  N_15
REMARK                            x       y       z     vdW  Elec       q    Type
REMARK                         _______ _______ _______ _____ _____    ______ ____
ROOT
ATOM      1  C   UNL     1       6.579   4.257  15.873  0.00  0.00    +0.000 C 
ENDROOT
BRANCH   1   7
ATOM      2  C   UNL     1       5.562   6.390  16.855  0.00  0.00    +0.000 A 
ATOM      3  C   UNL     1       4.488   7.054  17.461  0.00  0.00    +0.000 A 
ATOM      4  C   UNL     1       3.359   6.346  17.872  0.00  0.00    +0.000 A 
ATOM      5  C   UNL     1       3.284   4.974  17.651  0.00  0.00    +0.000 A 
ATOM      6  C   UNL     1       4.323   4.319  16.988  0.00  0.00    +0.000 A 
ATOM      7  C   UNL     1       5.471   5.016  16.573  0.00  0.00    +0.000 A 
BRANCH   2   9
ATOM      8  C   UNL     1       7.506   7.492  17.605  0.00  0.00    +0.000 C 
ATOM      9  O   UNL     1       6.728   7.022  16.505  0.00  0.00    +0.000 OA
ENDBRANCH   2   9
ENDBRANCH   1   7
BRANCH   1  10
ATOM     10  C   UNL     1       6.679   4.568  14.376  0.00  0.00    +0.000 C 
BRANCH  10  11
ATOM     11  N   UNL     1       6.070   3.541  13.546  0.00  0.00    +0.000 N 
ATOM     12  C   UNL     1       6.392   3.358  12.221  0.00  0.00    +0.000 C 
ATOM     13  O   UNL     1       7.182   4.076  11.611  0.00  0.00    +0.000 OA
ATOM     14  H   UNL     1       5.309   2.967  13.906  0.00  0.00    +0.000 HD
BRANCH  12  15
ATOM     15  C   UNL     1       5.676   2.182  11.544  0.00  0.00    +0.000 C 
BRANCH  15  16
ATOM     16  N   UNL     1       6.614   1.093  11.196  0.00  0.00    +0.000 NA
ATOM     17  H   UNL     1       6.648   1.026  10.176  0.00  0.00    +0.000 HD
ATOM     18  H   UNL     1       6.196   0.213  11.505  0.00  0.00    +0.000 HD
ENDBRANCH  15  16
ENDBRANCH  12  15
ENDBRANCH  10  11
ENDBRANCH   1  10
TORSDOF 6
ENDMDL
MODEL 8
REMARK VINA RESULT:      -5.6      2.067      2.944
REMARK  Name = 
REMARK  7 active torsions:
REMARK  status: ('A' for Active; 'I' for Inactive)
REMARK    1  A    between atoms: C_1  and  O_2
REMARK    2  A    between atoms: O_2  and  C_3
REMARK    3  A    between atoms: C_8  and  C_9
REMARK    4  A    between atoms: C_9  and  C_10
REMARK    5  A    between atoms: C_10  and  N_11
REMARK    6  A    between atoms: C_12  and  C_14
REMARK    7  A    between atoms: C_14  and  N_15
REMARK                            x       y       z     vdW  Elec       q    Type
REMARK                         _______ _______ _______ _____ _____    ______ ____
ROOT
ATOM      1  C   UNL     1       2.606   3.668  17.455  0.00  0.00    +0.000 C 
ENDROOT
BRANCH   1   7
ATOM      2  C   UNL     1       1.797   4.563  19.711  0.00  0.00    +0.000 A 
ATOM      3  C   UNL     1       1.651   5.625  20.613  0.00  0.00    +0.000 A 
ATOM      4  C   UNL     1       1.995   6.924  20.239  0.00  0.00    +0.000 A 
ATOM      5  C   UNL     1       2.515   7.165  18.972  0.00  0.00    +0.000 A 
ATOM      6  C   UNL     1       2.724   6.101  18.092  0.00  0.00    +0.000 A 
ATOM      7  C   UNL     1       2.376   4.787  18.451  0.00  0.00    +0.000 A 
BRANCH   2   9
ATOM      8  C   UNL     1       1.600   2.884  21.353  0.00  0.00    +0.000 C 
ATOM      9  O   UNL     1       1.400   3.283  19.997  0.00  0.00    +0.000 OA
ENDBRANCH   2   9
ENDBRANCH   1   7
BRANCH   1  10
ATOM     10  C   UNL     1       3.929   2.925  17.667  0.00  0.00    +0.000 C 
BRANCH  10  11
ATOM     11  N   UNL     1       5.069   3.636  17.110  0.00  0.00    +0.000 N 
ATOM     12  C   UNL     1       6.010   4.271  17.887  0.00  0.00    +0.000 C 
ATOM     13  O   UNL     1       5.942   4.339  19.113  0.00  0.00    +0.000 OA
ATOM     14  H   UNL     1       5.162   3.758  16.103  0.00  0.00    +0.000 HD
BRANCH  12  15
ATOM     15  C   UNL     1       7.162   4.912  17.102  0.00  0.00    +0.000 C 
BRANCH  15  16
ATOM     16  N   UNL     1       6.669   5.836  16.057  0.00  0.00    +0.000 NA
ATOM     17  H   UNL     1       7.296   5.760  15.254  0.00  0.00    +0.000 HD
ATOM     18  H   UNL     1       6.794   6.789  16.403  0.00  0.00    +0.000 HD
ENDBRANCH  15  16
ENDBRANCH  12  15
ENDBRANCH  10  11
ENDBRANCH   1  10
TORSDOF 6
ENDMDL
MODEL 9
REMARK VINA RESULT:      -5.6      1.737      2.632
REMARK  Name = 
REMARK  7 active torsions:
REMARK  status: ('A' for Active; 'I' for Inactive)
REMARK    1  A    between atoms: C_1  and  O_2
REMARK    2  A    between atoms: O_2  and  C_3
REMARK    3  A    between atoms: C_8  and  C_9
REMARK    4  A    between atoms: C_9  and  C_10
REMARK    5  A    between atoms: C_10  and  N_11
REMARK    6  A    between atoms: C_12  and  C_14
REMARK    7  A    between atoms: C_14  and  N_15
REMARK                            x       y       z     vdW  Elec       q    Type
REMARK                         _______ _______ _______ _____ _____    ______ ____
ROOT
ATOM      1  C   UNL     1       3.584   4.575  17.312  0.00  0.00    +0.000 C 
ENDROOT
BRANCH   1   7
ATOM      2  C   UNL     1       2.315   2.964  18.843  0.00  0.00    +0.000 A 
ATOM      3  C   UNL     1       1.574   2.728  20.008  0.00  0.00    +0.000 A 
ATOM      4  C   UNL     1       1.174   3.790  20.819  0.00  0.00    +0.000 A 
ATOM      5  C   UNL     1       1.537   5.091  20.487  0.00  0.00    +0.000 A 
ATOM      6  C   UNL     1       2.330   5.325  19.362  0.00  0.00    +0.000 A 
ATOM      7  C   UNL     1       2.738   4.267  18.530  0.00  0.00    +0.000 A 
BRANCH   2   9
ATOM      8  C   UNL     1       3.706   1.107  18.430  0.00  0.00    +0.000 C 
ATOM      9  O   UNL     1       2.666   1.969  17.968  0.00  0.00    +0.000 OA
ENDBRANCH   2   9
ENDBRANCH   1   7
BRANCH   1  10
ATOM     10  C   UNL     1       5.069   4.252  17.504  0.00  0.00    +0.000 C 
BRANCH  10  11
ATOM     11  N   UNL     1       5.843   5.404  17.938  0.00  0.00    +0.000 N 
ATOM     12  C   UNL     1       7.205   5.501  17.763  0.00  0.00    +0.000 C 
ATOM     13  O   UNL     1       7.891   4.606  17.274  0.00  0.00    +0.000 OA
ATOM     14  H   UNL     1       5.405   6.152  18.471  0.00  0.00    +0.000 HD
BRANCH  12  15
ATOM     15  C   UNL     1       7.819   6.824  18.242  0.00  0.00    +0.000 C 
BRANCH  15  16
ATOM     16  N   UNL     1       7.685   7.891  17.226  0.00  0.00    +0.000 NA
ATOM     17  H   UNL     1       8.507   7.848  16.620  0.00  0.00    +0.000 HD
ATOM     18  H   UNL     1       7.758   8.789  17.709  0.00  0.00    +0.000 HD
ENDBRANCH  15  16
ENDBRANCH  12  15
ENDBRANCH  10  11
ENDBRANCH   1  10
TORSDOF 6
ENDMDL
