MODEL 1
REMARK VINA RESULT:      -7.8      0.000      0.000
REMARK  Name = 
REMARK  9 active torsions:
REMARK  status: ('A' for Active; 'I' for Inactive)
REMARK    1  A    between atoms: C_1  and  C_2
REMARK    2  A    between atoms: C_10  and  C_11
REMARK    3  A    between atoms: C_11  and  C_13
REMARK    4  A    between atoms: N_15  and  C_16
REMARK    5  A    between atoms: C_25  and  C_27
REMARK    6  A    between atoms: C_27  and  C_28
REMARK    7  A    between atoms: C_30  and  N_31
REMARK    8  A    between atoms: N_31  and  C_32
REMARK    9  A    between atoms: N_31  and  C_33
REMARK                            x       y       z     vdW  Elec       q    Type
REMARK                         _______ _______ _______ _____ _____    ______ ____
ROOT
ATOM      1  C   UNL     1      -0.719  11.067  18.800  0.00  0.00    +0.000 A 
ATOM      2  N   UNL     1       0.180  10.185  18.317  0.00  0.00    +0.000 NA
ATOM      3  N   UNL     1       0.594   9.535  19.427  0.00  0.00    +0.000 N 
ATOM      4  N   UNL     1       0.114  10.010  20.594  0.00  0.00    +0.000 NA
ATOM      5  C   UNL     1      -0.713  10.991  20.233  0.00  0.00    +0.000 A 
ATOM      6  N   UNL     1      -1.402  11.782  21.159  0.00  0.00    +0.000 N 
ATOM      7  C   UNL     1      -1.480  11.461  22.514  0.00  0.00    +0.000 C 
ATOM      8  O   UNL     1      -1.194  10.363  22.991  0.00  0.00    +0.000 OA
ATOM      9  H   UNL     1      -1.824  12.625  20.782  0.00  0.00    +0.000 HD
ENDROOT
BRANCH   3  10
ATOM     10  C   UNL     1       1.458   8.409  19.376  0.00  0.00    +0.000 A 
ATOM     11  C   UNL     1       1.538   7.520  20.458  0.00  0.00    +0.000 A 
ATOM     12  C   UNL     1       2.393   6.413  20.391  0.00  0.00    +0.000 A 
ATOM     13  C   UNL     1       3.174   6.199  19.257  0.00  0.00    +0.000 A 
ATOM     14  C   UNL     1       3.101   7.085  18.182  0.00  0.00    +0.000 A 
ATOM     15  C   UNL     1       2.247   8.187  18.235  0.00  0.00    +0.000 A 
ENDBRANCH   3  10
BRANCH   1  16
ATOM     16  C   UNL     1      -1.529  11.936  17.935  0.00  0.00    +0.000 C 
ATOM     17  O   UNL     1      -1.052  12.974  17.478  0.00  0.00    +0.000 OA
BRANCH  16  27
ATOM     18  C   UNL     1      -2.718  10.501  15.262  0.00  0.00    +0.000 C 
ATOM     19  C   UNL     1      -3.401  10.921  16.516  0.00  0.00    +0.000 A 
ATOM     20  N   UNL     1      -4.748  10.699  16.662  0.00  0.00    +0.000 N 
ATOM     21  C   UNL     1      -5.199  11.198  17.856  0.00  0.00    +0.000 A 
ATOM     22  C   UNL     1      -6.495  11.204  18.390  0.00  0.00    +0.000 A 
ATOM     23  C   UNL     1      -6.687  11.814  19.631  0.00  0.00    +0.000 A 
ATOM     24  C   UNL     1      -5.624  12.409  20.298  0.00  0.00    +0.000 A 
ATOM     25  C   UNL     1      -4.338  12.398  19.746  0.00  0.00    +0.000 A 
ATOM     26  C   UNL     1      -4.098  11.757  18.507  0.00  0.00    +0.000 A 
ATOM     27  C   UNL     1      -2.931  11.538  17.677  0.00  0.00    +0.000 A 
ATOM     28  H   UNL     1      -5.345  10.255  15.975  0.00  0.00    +0.000 HD
ENDBRANCH  16  27
ENDBRANCH   1  16
BRANCH   7  29
ATOM     29  C   UNL     1      -1.970  12.541  23.444  0.00  0.00    +0.000 C 
ATOM     30  C   UNL     1      -1.374  13.753  23.467  0.00  0.00    +0.000 C 
BRANCH  30  31
ATOM     31  N   UNL     1      -1.717  14.956  24.103  0.00  0.00    +0.000 N 
ATOM     32  C   UNL     1      -1.623  15.213  25.547  0.00  0.00    +0.000 C 
ATOM     33  C   UNL     1      -2.558  15.940  23.409  0.00  0.00    +0.000 C 
ENDBRANCH  30  31
BRANCH  29  34
ATOM     34  C   UNL     1      -3.350  12.440  24.073  0.00  0.00    +0.000 C 
ATOM     35  N   UNL     1      -4.494  12.355  24.594  0.00  0.00    +0.000 NA
ENDBRANCH  29  34
ENDBRANCH   7  29
TORSDOF 6
ENDMDL
MODEL 2
REMARK VINA RESULT:      -7.8      0.092      1.039
REMARK  Name = 
REMARK  9 active torsions:
REMARK  status: ('A' for Active; 'I' for Inactive)
REMARK    1  A    between atoms: C_1  and  C_2
REMARK    2  A    between atoms: C_10  and  C_11
REMARK    3  A    between atoms: C_11  and  C_13
REMARK    4  A    between atoms: N_15  and  C_16
REMARK    5  A    between atoms: C_25  and  C_27
REMARK    6  A    between atoms: C_27  and  C_28
REMARK    7  A    between atoms: C_30  and  N_31
REMARK    8  A    between atoms: N_31  and  C_32
REMARK    9  A    between atoms: N_31  and  C_33
REMARK                            x       y       z     vdW  Elec       q    Type
REMARK                         _______ _______ _______ _____ _____    ______ ____
ROOT
ATOM      1  C   UNL     1      -0.733  11.076  18.821  0.00  0.00    +0.000 A 
ATOM      2  N   UNL     1       0.171  10.195  18.346  0.00  0.00    +0.000 NA
ATOM      3  N   UNL     1       0.577   9.547  19.460  0.00  0.00    +0.000 N 
ATOM      4  N   UNL     1       0.088  10.023  20.623  0.00  0.00    +0.000 NA
ATOM      5  C   UNL     1      -0.738  11.002  20.255  0.00  0.00    +0.000 A 
ATOM      6  N   UNL     1      -1.434  11.794  21.174  0.00  0.00    +0.000 N 
ATOM      7  C   UNL     1      -1.522  11.474  22.529  0.00  0.00    +0.000 C 
ATOM      8  O   UNL     1      -1.239  10.377  23.009  0.00  0.00    +0.000 OA
ATOM      9  H   UNL     1      -1.855  12.636  20.793  0.00  0.00    +0.000 HD
ENDROOT
BRANCH   3  10
ATOM     10  C   UNL     1       1.443   8.422  19.417  0.00  0.00    +0.000 A 
ATOM     11  C   UNL     1       2.241   8.176  18.290  0.00  0.00    +0.000 A 
ATOM     12  C   UNL     1       3.091   7.064  18.265  0.00  0.00    +0.000 A 
ATOM     13  C   UNL     1       3.137   6.192  19.351  0.00  0.00    +0.000 A 
ATOM     14  C   UNL     1       2.340   6.430  20.471  0.00  0.00    +0.000 A 
ATOM     15  C   UNL     1       1.494   7.540  20.510  0.00  0.00    +0.000 A 
ENDBRANCH   3  10
BRANCH   1  16
ATOM     16  C   UNL     1      -1.537  11.943  17.950  0.00  0.00    +0.000 C 
ATOM     17  O   UNL     1      -1.058  12.979  17.492  0.00  0.00    +0.000 OA
BRANCH  16  27
ATOM     18  C   UNL     1      -2.713  10.503  15.273  0.00  0.00    +0.000 C 
ATOM     19  C   UNL     1      -3.403  10.926  16.523  0.00  0.00    +0.000 A 
ATOM     20  N   UNL     1      -4.751  10.706  16.663  0.00  0.00    +0.000 N 
ATOM     21  C   UNL     1      -5.208  11.207  17.854  0.00  0.00    +0.000 A 
ATOM     22  C   UNL     1      -6.507  11.215  18.380  0.00  0.00    +0.000 A 
ATOM     23  C   UNL     1      -6.704  11.828  19.619  0.00  0.00    +0.000 A 
ATOM     24  C   UNL     1      -5.644  12.425  20.291  0.00  0.00    +0.000 A 
ATOM     25  C   UNL     1      -4.356  12.411  19.745  0.00  0.00    +0.000 A 
ATOM     26  C   UNL     1      -4.110  11.767  18.509  0.00  0.00    +0.000 A 
ATOM     27  C   UNL     1      -2.938  11.546  17.685  0.00  0.00    +0.000 A 
ATOM     28  H   UNL     1      -5.344  10.261  15.974  0.00  0.00    +0.000 HD
ENDBRANCH  16  27
ENDBRANCH   1  16
BRANCH   7  29
ATOM     29  C   UNL     1      -2.020  12.555  23.454  0.00  0.00    +0.000 C 
ATOM     30  C   UNL     1      -1.451  13.780  23.453  0.00  0.00    +0.000 C 
BRANCH  30  31
ATOM     31  N   UNL     1      -1.810  14.982  24.080  0.00  0.00    +0.000 N 
ATOM     32  C   UNL     1      -2.318  16.180  23.398  0.00  0.00    +0.000 C 
ATOM     33  C   UNL     1      -1.352  15.264  25.447  0.00  0.00    +0.000 C 
ENDBRANCH  30  31
BRANCH  29  34
ATOM     34  C   UNL     1      -3.387  12.431  24.107  0.00  0.00    +0.000 C 
ATOM     35  N   UNL     1      -4.521  12.328  24.648  0.00  0.00    +0.000 NA
ENDBRANCH  29  34
ENDBRANCH   7  29
TORSDOF 6
ENDMDL
MODEL 3
REMARK VINA RESULT:      -7.6      3.241      7.052
REMARK  Name = 
REMARK  9 active torsions:
REMARK  status: ('A' for Active; 'I' for Inactive)
REMARK    1  A    between atoms: C_1  and  C_2
REMARK    2  A    between atoms: C_10  and  C_11
REMARK    3  A    between atoms: C_11  and  C_13
REMARK    4  A    between atoms: N_15  and  C_16
REMARK    5  A    between atoms: C_25  and  C_27
REMARK    6  A    between atoms: C_27  and  C_28
REMARK    7  A    between atoms: C_30  and  N_31
REMARK    8  A    between atoms: N_31  and  C_32
REMARK    9  A    between atoms: N_31  and  C_33
REMARK                            x       y       z     vdW  Elec       q    Type
REMARK                         _______ _______ _______ _____ _____    ______ ____
ROOT
ATOM      1  C   UNL     1       0.140  11.924  19.688  0.00  0.00    +0.000 A 
ATOM      2  N   UNL     1       0.518  13.217  19.633  0.00  0.00    +0.000 NA
ATOM      3  N   UNL     1       1.679  13.164  18.944  0.00  0.00    +0.000 N 
ATOM      4  N   UNL     1       2.130  11.926  18.654  0.00  0.00    +0.000 NA
ATOM      5  C   UNL     1       1.182  11.115  19.122  0.00  0.00    +0.000 A 
ATOM      6  N   UNL     1       1.276   9.721  19.057  0.00  0.00    +0.000 N 
ATOM      7  C   UNL     1       2.235   9.066  18.284  0.00  0.00    +0.000 C 
ATOM      8  O   UNL     1       2.909   9.600  17.404  0.00  0.00    +0.000 OA
ATOM      9  H   UNL     1       0.612   9.212  19.632  0.00  0.00    +0.000 HD
ENDROOT
BRANCH   3  10
ATOM     10  C   UNL     1       2.375  14.330  18.527  0.00  0.00    +0.000 A 
ATOM     11  C   UNL     1       1.722  15.571  18.472  0.00  0.00    +0.000 A 
ATOM     12  C   UNL     1       2.422  16.711  18.061  0.00  0.00    +0.000 A 
ATOM     13  C   UNL     1       3.763  16.616  17.694  0.00  0.00    +0.000 A 
ATOM     14  C   UNL     1       4.413  15.382  17.742  0.00  0.00    +0.000 A 
ATOM     15  C   UNL     1       3.727  14.240  18.157  0.00  0.00    +0.000 A 
ENDBRANCH   3  10
BRANCH   1  16
ATOM     16  C   UNL     1      -1.143  11.491  20.258  0.00  0.00    +0.000 C 
ATOM     17  O   UNL     1      -1.182  10.953  21.364  0.00  0.00    +0.000 OA
BRANCH  16  27
ATOM     18  C   UNL     1      -3.831  13.140  21.081  0.00  0.00    +0.000 C 
ATOM     19  C   UNL     1      -3.495  12.406  19.830  0.00  0.00    +0.000 A 
ATOM     20  N   UNL     1      -4.400  12.373  18.798  0.00  0.00    +0.000 N 
ATOM     21  C   UNL     1      -3.931  11.611  17.759  0.00  0.00    +0.000 A 
ATOM     22  C   UNL     1      -4.536  11.300  16.534  0.00  0.00    +0.000 A 
ATOM     23  C   UNL     1      -3.841  10.466  15.657  0.00  0.00    +0.000 A 
ATOM     24  C   UNL     1      -2.599   9.951  16.005  0.00  0.00    +0.000 A 
ATOM     25  C   UNL     1      -2.014  10.269  17.236  0.00  0.00    +0.000 A 
ATOM     26  C   UNL     1      -2.671  11.141  18.135  0.00  0.00    +0.000 A 
ATOM     27  C   UNL     1      -2.362  11.688  19.442  0.00  0.00    +0.000 A 
ATOM     28  H   UNL     1      -5.308  12.821  18.803  0.00  0.00    +0.000 HD
ENDBRANCH  16  27
ENDBRANCH   1  16
BRANCH   7  29
ATOM     29  C   UNL     1       2.433   7.595  18.545  0.00  0.00    +0.000 C 
ATOM     30  C   UNL     1       3.334   6.883  17.834  0.00  0.00    +0.000 C 
BRANCH  30  31
ATOM     31  N   UNL     1       3.818   5.573  17.976  0.00  0.00    +0.000 N 
ATOM     32  C   UNL     1       3.082   4.351  17.626  0.00  0.00    +0.000 C 
ATOM     33  C   UNL     1       4.973   5.306  18.842  0.00  0.00    +0.000 C 
ENDBRANCH  30  31
BRANCH  29  34
ATOM     34  C   UNL     1       1.932   6.975  19.840  0.00  0.00    +0.000 C 
ATOM     35  N   UNL     1       1.517   6.462  20.913  0.00  0.00    +0.000 NA
ENDBRANCH  29  34
ENDBRANCH   7  29
TORSDOF 6
ENDMDL
MODEL 4
REMARK VINA RESULT:      -7.5      3.616      7.614
REMARK  Name = 
REMARK  9 active torsions:
REMARK  status: ('A' for Active; 'I' for Inactive)
REMARK    1  A    between atoms: C_1  and  C_2
REMARK    2  A    between atoms: C_10  and  C_11
REMARK    3  A    between atoms: C_11  and  C_13
REMARK    4  A    between atoms: N_15  and  C_16
REMARK    5  A    between atoms: C_25  and  C_27
REMARK    6  A    between atoms: C_27  and  C_28
REMARK    7  A    between atoms: C_30  and  N_31
REMARK    8  A    between atoms: N_31  and  C_32
REMARK    9  A    between atoms: N_31  and  C_33
REMARK                            x       y       z     vdW  Elec       q    Type
REMARK                         _______ _______ _______ _____ _____    ______ ____
ROOT
ATOM      1  C   UNL     1       0.799  10.166  18.372  0.00  0.00    +0.000 A 
ATOM      2  N   UNL     1      -0.507   9.889  18.182  0.00  0.00    +0.000 NA
ATOM      3  N   UNL     1      -1.089  11.106  18.259  0.00  0.00    +0.000 N 
ATOM      4  N   UNL     1      -0.272  12.124  18.596  0.00  0.00    +0.000 NA
ATOM      5  C   UNL     1       0.932  11.560  18.688  0.00  0.00    +0.000 A 
ATOM      6  N   UNL     1       2.077  12.272  19.060  0.00  0.00    +0.000 N 
ATOM      7  C   UNL     1       2.110  13.665  19.124  0.00  0.00    +0.000 C 
ATOM      8  O   UNL     1       1.263  14.409  18.631  0.00  0.00    +0.000 OA
ATOM      9  H   UNL     1       2.882  11.704  19.306  0.00  0.00    +0.000 HD
ENDROOT
BRANCH   3  10
ATOM     10  C   UNL     1      -2.467  11.313  17.979  0.00  0.00    +0.000 A 
ATOM     11  C   UNL     1      -2.991  11.019  16.711  0.00  0.00    +0.000 A 
ATOM     12  C   UNL     1      -4.351  11.227  16.453  0.00  0.00    +0.000 A 
ATOM     13  C   UNL     1      -5.184  11.737  17.448  0.00  0.00    +0.000 A 
ATOM     14  C   UNL     1      -4.664  12.036  18.707  0.00  0.00    +0.000 A 
ATOM     15  C   UNL     1      -3.311  11.826  18.978  0.00  0.00    +0.000 A 
ENDBRANCH   3  10
BRANCH   1  16
ATOM     16  C   UNL     1       1.854   9.150  18.265  0.00  0.00    +0.000 C 
ATOM     17  O   UNL     1       2.682   9.208  17.357  0.00  0.00    +0.000 OA
BRANCH  16  27
ATOM     18  C   UNL     1       1.147   9.342  21.441  0.00  0.00    +0.000 C 
ATOM     19  C   UNL     1       1.542   8.172  20.610  0.00  0.00    +0.000 A 
ATOM     20  N   UNL     1       1.641   6.931  21.189  0.00  0.00    +0.000 N 
ATOM     21  C   UNL     1       2.064   5.998  20.277  0.00  0.00    +0.000 A 
ATOM     22  C   UNL     1       2.315   4.630  20.449  0.00  0.00    +0.000 A 
ATOM     23  C   UNL     1       2.773   3.907  19.346  0.00  0.00    +0.000 A 
ATOM     24  C   UNL     1       2.988   4.538  18.127  0.00  0.00    +0.000 A 
ATOM     25  C   UNL     1       2.737   5.906  17.978  0.00  0.00    +0.000 A 
ATOM     26  C   UNL     1       2.237   6.664  19.062  0.00  0.00    +0.000 A 
ATOM     27  C   UNL     1       1.856   8.049  19.255  0.00  0.00    +0.000 A 
ATOM     28  H   UNL     1       1.459   6.725  22.163  0.00  0.00    +0.000 HD
ENDBRANCH  16  27
ENDBRANCH   1  16
BRANCH   7  29
ATOM     29  C   UNL     1       3.285  14.288  19.834  0.00  0.00    +0.000 C 
ATOM     30  C   UNL     1       4.270  14.894  19.137  0.00  0.00    +0.000 C 
BRANCH  30  31
ATOM     31  N   UNL     1       5.366  15.670  19.544  0.00  0.00    +0.000 N 
ATOM     32  C   UNL     1       5.498  17.122  19.357  0.00  0.00    +0.000 C 
ATOM     33  C   UNL     1       6.646  15.025  19.862  0.00  0.00    +0.000 C 
ENDBRANCH  30  31
BRANCH  29  34
ATOM     34  C   UNL     1       3.203  14.594  21.321  0.00  0.00    +0.000 C 
ATOM     35  N   UNL     1       3.135  14.848  22.554  0.00  0.00    +0.000 NA
ENDBRANCH  29  34
ENDBRANCH   7  29
TORSDOF 6
ENDMDL
MODEL 5
REMARK VINA RESULT:      -7.5      8.029     10.487
REMARK  Name = 
REMARK  9 active torsions:
REMARK  status: ('A' for Active; 'I' for Inactive)
REMARK    1  A    between atoms: C_1  and  C_2
REMARK    2  A    between atoms: C_10  and  C_11
REMARK    3  A    between atoms: C_11  and  C_13
REMARK    4  A    between atoms: N_15  and  C_16
REMARK    5  A    between atoms: C_25  and  C_27
REMARK    6  A    between atoms: C_27  and  C_28
REMARK    7  A    between atoms: C_30  and  N_31
REMARK    8  A    between atoms: N_31  and  C_32
REMARK    9  A    between atoms: N_31  and  C_33
REMARK                            x       y       z     vdW  Elec       q    Type
REMARK                         _______ _______ _______ _____ _____    ______ ____
ROOT
ATOM      1  C   UNL     1       5.998   5.606  17.711  0.00  0.00    +0.000 A 
ATOM      2  N   UNL     1       5.714   4.845  16.634  0.00  0.00    +0.000 NA
ATOM      3  N   UNL     1       6.458   5.412  15.658  0.00  0.00    +0.000 N 
ATOM      4  N   UNL     1       7.106   6.543  16.001  0.00  0.00    +0.000 NA
ATOM      5  C   UNL     1       6.827   6.701  17.295  0.00  0.00    +0.000 A 
ATOM      6  N   UNL     1       7.282   7.793  18.042  0.00  0.00    +0.000 N 
ATOM      7  C   UNL     1       8.262   8.669  17.574  0.00  0.00    +0.000 C 
ATOM      8  O   UNL     1       8.997   8.449  16.612  0.00  0.00    +0.000 OA
ATOM      9  H   UNL     1       6.833   7.921  18.943  0.00  0.00    +0.000 HD
ENDROOT
BRANCH   3  10
ATOM     10  C   UNL     1       6.575   4.846  14.360  0.00  0.00    +0.000 A 
ATOM     11  C   UNL     1       5.665   3.873  13.920  0.00  0.00    +0.000 A 
ATOM     12  C   UNL     1       5.793   3.328  12.637  0.00  0.00    +0.000 A 
ATOM     13  C   UNL     1       6.829   3.739  11.800  0.00  0.00    +0.000 A 
ATOM     14  C   UNL     1       7.738   4.702  12.238  0.00  0.00    +0.000 A 
ATOM     15  C   UNL     1       7.616   5.258  13.512  0.00  0.00    +0.000 A 
ENDBRANCH   3  10
BRANCH   1  16
ATOM     16  C   UNL     1       5.496   5.301  19.057  0.00  0.00    +0.000 C 
ATOM     17  O   UNL     1       6.282   5.065  19.974  0.00  0.00    +0.000 OA
BRANCH  16  27
ATOM     18  C   UNL     1       3.282   7.443  17.995  0.00  0.00    +0.000 C 
ATOM     19  C   UNL     1       3.112   6.187  18.777  0.00  0.00    +0.000 A 
ATOM     20  N   UNL     1       1.852   5.783  19.147  0.00  0.00    +0.000 N 
ATOM     21  C   UNL     1       1.907   4.638  19.898  0.00  0.00    +0.000 A 
ATOM     22  C   UNL     1       0.868   3.907  20.490  0.00  0.00    +0.000 A 
ATOM     23  C   UNL     1       1.209   2.779  21.239  0.00  0.00    +0.000 A 
ATOM     24  C   UNL     1       2.540   2.414  21.403  0.00  0.00    +0.000 A 
ATOM     25  C   UNL     1       3.563   3.161  20.809  0.00  0.00    +0.000 A 
ATOM     26  C   UNL     1       3.254   4.288  20.012  0.00  0.00    +0.000 A 
ATOM     27  C   UNL     1       4.030   5.249  19.252  0.00  0.00    +0.000 A 
ATOM     28  H   UNL     1       0.994   6.272  18.926  0.00  0.00    +0.000 HD
ENDBRANCH  16  27
ENDBRANCH   1  16
BRANCH   7  29
ATOM     29  C   UNL     1       8.432   9.965  18.325  0.00  0.00    +0.000 C 
ATOM     30  C   UNL     1       9.220  10.029  19.420  0.00  0.00    +0.000 C 
BRANCH  30  31
ATOM     31  N   UNL     1       9.667  11.112  20.192  0.00  0.00    +0.000 N 
ATOM     32  C   UNL     1      10.998  11.729  20.106  0.00  0.00    +0.000 C 
ATOM     33  C   UNL     1       8.954  11.482  21.422  0.00  0.00    +0.000 C 
ENDBRANCH  30  31
BRANCH  29  34
ATOM     34  C   UNL     1       8.055  11.283  17.668  0.00  0.00    +0.000 C 
ATOM     35  N   UNL     1       7.743  12.376  17.124  0.00  0.00    +0.000 NA
ENDBRANCH  29  34
ENDBRANCH   7  29
TORSDOF 6
ENDMDL
MODEL 6
REMARK VINA RESULT:      -7.4      8.054     10.509
REMARK  Name = 
REMARK  9 active torsions:
REMARK  status: ('A' for Active; 'I' for Inactive)
REMARK    1  A    between atoms: C_1  and  C_2
REMARK    2  A    between atoms: C_10  and  C_11
REMARK    3  A    between atoms: C_11  and  C_13
REMARK    4  A    between atoms: N_15  and  C_16
REMARK    5  A    between atoms: C_25  and  C_27
REMARK    6  A    between atoms: C_27  and  C_28
REMARK    7  A    between atoms: C_30  and  N_31
REMARK    8  A    between atoms: N_31  and  C_32
REMARK    9  A    between atoms: N_31  and  C_33
REMARK                            x       y       z     vdW  Elec       q    Type
REMARK                         _______ _______ _______ _____ _____    ______ ____
ROOT
ATOM      1  C   UNL     1       6.001   5.572  17.711  0.00  0.00    +0.000 A 
ATOM      2  N   UNL     1       5.714   4.823  16.627  0.00  0.00    +0.000 NA
ATOM      3  N   UNL     1       6.463   5.394  15.658  0.00  0.00    +0.000 N 
ATOM      4  N   UNL     1       7.118   6.518  16.012  0.00  0.00    +0.000 NA
ATOM      5  C   UNL     1       6.837   6.666  17.307  0.00  0.00    +0.000 A 
ATOM      6  N   UNL     1       7.298   7.748  18.065  0.00  0.00    +0.000 N 
ATOM      7  C   UNL     1       8.283   8.623  17.607  0.00  0.00    +0.000 C 
ATOM      8  O   UNL     1       9.018   8.408  16.644  0.00  0.00    +0.000 OA
ATOM      9  H   UNL     1       6.848   7.871  18.966  0.00  0.00    +0.000 HD
ENDROOT
BRANCH   3  10
ATOM     10  C   UNL     1       6.579   4.840  14.355  0.00  0.00    +0.000 A 
ATOM     11  C   UNL     1       7.607   5.250  13.492  0.00  0.00    +0.000 A 
ATOM     12  C   UNL     1       7.708   4.692  12.213  0.00  0.00    +0.000 A 
ATOM     13  C   UNL     1       6.783   3.740  11.787  0.00  0.00    +0.000 A 
ATOM     14  C   UNL     1       5.757   3.335  12.640  0.00  0.00    +0.000 A 
ATOM     15  C   UNL     1       5.651   3.879  13.922  0.00  0.00    +0.000 A 
ENDBRANCH   3  10
BRANCH   1  16
ATOM     16  C   UNL     1       5.496   5.258  19.054  0.00  0.00    +0.000 C 
ATOM     17  O   UNL     1       6.279   5.009  19.970  0.00  0.00    +0.000 OA
BRANCH  16  27
ATOM     18  C   UNL     1       3.291   7.400  17.972  0.00  0.00    +0.000 C 
ATOM     19  C   UNL     1       3.115   6.151  18.762  0.00  0.00    +0.000 A 
ATOM     20  N   UNL     1       1.853   5.754  19.132  0.00  0.00    +0.000 N 
ATOM     21  C   UNL     1       1.902   4.614  19.892  0.00  0.00    +0.000 A 
ATOM     22  C   UNL     1       0.860   3.891  20.487  0.00  0.00    +0.000 A 
ATOM     23  C   UNL     1       1.195   2.768  21.245  0.00  0.00    +0.000 A 
ATOM     24  C   UNL     1       2.523   2.399  21.415  0.00  0.00    +0.000 A 
ATOM     25  C   UNL     1       3.550   3.138  20.817  0.00  0.00    +0.000 A 
ATOM     26  C   UNL     1       3.248   4.260  20.011  0.00  0.00    +0.000 A 
ATOM     27  C   UNL     1       4.028   5.213  19.246  0.00  0.00    +0.000 A 
ATOM     28  H   UNL     1       0.997   6.244  18.906  0.00  0.00    +0.000 HD
ENDBRANCH  16  27
ENDBRANCH   1  16
BRANCH   7  29
ATOM     29  C   UNL     1       8.459   9.911  18.370  0.00  0.00    +0.000 C 
ATOM     30  C   UNL     1       9.230   9.956  19.478  0.00  0.00    +0.000 C 
BRANCH  30  31
ATOM     31  N   UNL     1       9.680  11.027  20.266  0.00  0.00    +0.000 N 
ATOM     32  C   UNL     1       8.892  11.715  21.298  0.00  0.00    +0.000 C 
ATOM     33  C   UNL     1      10.864  11.794  19.857  0.00  0.00    +0.000 C 
ENDBRANCH  30  31
BRANCH  29  34
ATOM     34  C   UNL     1       8.113  11.239  17.717  0.00  0.00    +0.000 C 
ATOM     35  N   UNL     1       7.826  12.340  17.175  0.00  0.00    +0.000 NA
ENDBRANCH  29  34
ENDBRANCH   7  29
TORSDOF 6
ENDMDL
MODEL 7
REMARK VINA RESULT:      -7.4      3.398      6.168
REMARK  Name = 
REMARK  9 active torsions:
REMARK  status: ('A' for Active; 'I' for Inactive)
REMARK    1  A    between atoms: C_1  and  C_2
REMARK    2  A    between atoms: C_10  and  C_11
REMARK    3  A    between atoms: C_11  and  C_13
REMARK    4  A    between atoms: N_15  and  C_16
REMARK    5  A    between atoms: C_25  and  C_27
REMARK    6  A    between atoms: C_27  and  C_28
REMARK    7  A    between atoms: C_30  and  N_31
REMARK    8  A    between atoms: N_31  and  C_32
REMARK    9  A    between atoms: N_31  and  C_33
REMARK                            x       y       z     vdW  Elec       q    Type
REMARK                         _______ _______ _______ _____ _____    ______ ____
ROOT
ATOM      1  C   UNL     1       0.571  11.998  19.996  0.00  0.00    +0.000 A 
ATOM      2  N   UNL     1       1.661  12.375  19.298  0.00  0.00    +0.000 NA
ATOM      3  N   UNL     1       2.008  13.543  19.883  0.00  0.00    +0.000 N 
ATOM      4  N   UNL     1       1.158  13.997  20.827  0.00  0.00    +0.000 NA
ATOM      5  C   UNL     1       0.228  13.046  20.915  0.00  0.00    +0.000 A 
ATOM      6  N   UNL     1      -0.878  13.143  21.766  0.00  0.00    +0.000 N 
ATOM      7  C   UNL     1      -0.976  14.110  22.767  0.00  0.00    +0.000 C 
ATOM      8  O   UNL     1      -0.037  14.791  23.177  0.00  0.00    +0.000 OA
ATOM      9  H   UNL     1      -1.621  12.474  21.591  0.00  0.00    +0.000 HD
ENDROOT
BRANCH   3  10
ATOM     10  C   UNL     1       3.200  14.240  19.552  0.00  0.00    +0.000 A 
ATOM     11  C   UNL     1       3.540  14.477  18.212  0.00  0.00    +0.000 A 
ATOM     12  C   UNL     1       4.718  15.168  17.902  0.00  0.00    +0.000 A 
ATOM     13  C   UNL     1       5.560  15.611  18.921  0.00  0.00    +0.000 A 
ATOM     14  C   UNL     1       5.227  15.371  20.254  0.00  0.00    +0.000 A 
ATOM     15  C   UNL     1       4.051  14.690  20.575  0.00  0.00    +0.000 A 
ENDBRANCH   3  10
BRANCH   1  16
ATOM     16  C   UNL     1      -0.105  10.710  19.788  0.00  0.00    +0.000 C 
ATOM     17  O   UNL     1      -1.266  10.677  19.382  0.00  0.00    +0.000 OA
BRANCH  16  27
ATOM     18  C   UNL     1       0.088   9.234  22.686  0.00  0.00    +0.000 C 
ATOM     19  C   UNL     1       0.698   8.872  21.377  0.00  0.00    +0.000 A 
ATOM     20  N   UNL     1       1.476   7.745  21.279  0.00  0.00    +0.000 N 
ATOM     21  C   UNL     1       1.985   7.610  20.013  0.00  0.00    +0.000 A 
ATOM     22  C   UNL     1       2.834   6.625  19.491  0.00  0.00    +0.000 A 
ATOM     23  C   UNL     1       3.230   6.746  18.158  0.00  0.00    +0.000 A 
ATOM     24  C   UNL     1       2.806   7.822  17.388  0.00  0.00    +0.000 A 
ATOM     25  C   UNL     1       1.963   8.798  17.930  0.00  0.00    +0.000 A 
ATOM     26  C   UNL     1       1.511   8.690  19.266  0.00  0.00    +0.000 A 
ATOM     27  C   UNL     1       0.643   9.477  20.120  0.00  0.00    +0.000 A 
ATOM     28  H   UNL     1       1.679   7.107  22.038  0.00  0.00    +0.000 HD
ENDBRANCH  16  27
ENDBRANCH   1  16
BRANCH   7  29
ATOM     29  C   UNL     1      -2.333  14.307  23.394  0.00  0.00    +0.000 C 
ATOM     30  C   UNL     1      -2.954  15.505  23.331  0.00  0.00    +0.000 C 
BRANCH  30  31
ATOM     31  N   UNL     1      -4.251  15.908  23.682  0.00  0.00    +0.000 N 
ATOM     32  C   UNL     1      -5.409  15.935  22.777  0.00  0.00    +0.000 C 
ATOM     33  C   UNL     1      -4.471  16.696  24.901  0.00  0.00    +0.000 C 
ENDBRANCH  30  31
BRANCH  29  34
ATOM     34  C   UNL     1      -3.190  13.104  23.753  0.00  0.00    +0.000 C 
ATOM     35  N   UNL     1      -3.900  12.107  24.051  0.00  0.00    +0.000 NA
ENDBRANCH  29  34
ENDBRANCH   7  29
TORSDOF 6
ENDMDL
MODEL 8
REMARK VINA RESULT:      -7.3      3.414      6.254
REMARK  Name = 
REMARK  9 active torsions:
REMARK  status: ('A' for Active; 'I' for Inactive)
REMARK    1  A    between atoms: C_1  and  C_2
REMARK    2  A    between atoms: C_10  and  C_11
REMARK    3  A    between atoms: C_11  and  C_13
REMARK    4  A    between atoms: N_15  and  C_16
REMARK    5  A    between atoms: C_25  and  C_27
REMARK    6  A    between atoms: C_27  and  C_28
REMARK    7  A    between atoms: C_30  and  N_31
REMARK    8  A    between atoms: N_31  and  C_32
REMARK    9  A    between atoms: N_31  and  C_33
REMARK                            x       y       z     vdW  Elec       q    Type
REMARK                         _______ _______ _______ _____ _____    ______ ____
ROOT
ATOM      1  C   UNL     1       0.794  11.925  19.797  0.00  0.00    +0.000 A 
ATOM      2  N   UNL     1       1.884  12.335  19.117  0.00  0.00    +0.000 NA
ATOM      3  N   UNL     1       2.236  13.469  19.763  0.00  0.00    +0.000 N 
ATOM      4  N   UNL     1       1.390  13.875  20.731  0.00  0.00    +0.000 NA
ATOM      5  C   UNL     1       0.458  12.924  20.771  0.00  0.00    +0.000 A 
ATOM      6  N   UNL     1      -0.646  12.980  21.629  0.00  0.00    +0.000 N 
ATOM      7  C   UNL     1      -0.738  13.892  22.680  0.00  0.00    +0.000 C 
ATOM      8  O   UNL     1       0.204  14.547  23.123  0.00  0.00    +0.000 OA
ATOM      9  H   UNL     1      -1.393  12.323  21.420  0.00  0.00    +0.000 HD
ENDROOT
BRANCH   3  10
ATOM     10  C   UNL     1       3.430  14.178  19.466  0.00  0.00    +0.000 A 
ATOM     11  C   UNL     1       4.204  14.737  20.494  0.00  0.00    +0.000 A 
ATOM     12  C   UNL     1       5.380  15.432  20.184  0.00  0.00    +0.000 A 
ATOM     13  C   UNL     1       5.777  15.581  18.856  0.00  0.00    +0.000 A 
ATOM     14  C   UNL     1       5.006  15.032  17.832  0.00  0.00    +0.000 A 
ATOM     15  C   UNL     1       3.836  14.331  18.129  0.00  0.00    +0.000 A 
ENDBRANCH   3  10
BRANCH   1  16
ATOM     16  C   UNL     1       0.114  10.653  19.522  0.00  0.00    +0.000 C 
ATOM     17  O   UNL     1      -0.998  10.645  18.994  0.00  0.00    +0.000 OA
BRANCH  16  27
ATOM     18  C   UNL     1       0.042   9.246  22.460  0.00  0.00    +0.000 C 
ATOM     19  C   UNL     1       0.732   8.830  21.208  0.00  0.00    +0.000 A 
ATOM     20  N   UNL     1       1.475   7.675  21.194  0.00  0.00    +0.000 N 
ATOM     21  C   UNL     1       2.070   7.491  19.973  0.00  0.00    +0.000 A 
ATOM     22  C   UNL     1       2.919   6.465  19.538  0.00  0.00    +0.000 A 
ATOM     23  C   UNL     1       3.415   6.537  18.235  0.00  0.00    +0.000 A 
ATOM     24  C   UNL     1       3.087   7.607  17.411  0.00  0.00    +0.000 A 
ATOM     25  C   UNL     1       2.242   8.625  17.867  0.00  0.00    +0.000 A 
ATOM     26  C   UNL     1       1.690   8.567  19.168  0.00  0.00    +0.000 A 
ATOM     27  C   UNL     1       0.791   9.404  19.937  0.00  0.00    +0.000 A 
ATOM     28  H   UNL     1       1.599   7.051  21.981  0.00  0.00    +0.000 HD
ENDBRANCH  16  27
ENDBRANCH   1  16
BRANCH   7  29
ATOM     29  C   UNL     1      -2.093  14.061  23.320  0.00  0.00    +0.000 C 
ATOM     30  C   UNL     1      -3.112  13.232  23.005  0.00  0.00    +0.000 C 
BRANCH  30  31
ATOM     31  N   UNL     1      -4.394  13.071  23.552  0.00  0.00    +0.000 N 
ATOM     32  C   UNL     1      -5.585  13.844  23.174  0.00  0.00    +0.000 C 
ATOM     33  C   UNL     1      -4.565  12.360  24.826  0.00  0.00    +0.000 C 
ENDBRANCH  30  31
BRANCH  29  34
ATOM     34  C   UNL     1      -2.240  14.883  24.589  0.00  0.00    +0.000 C 
ATOM     35  N   UNL     1      -2.363  15.565  25.642  0.00  0.00    +0.000 NA
ENDBRANCH  29  34
ENDBRANCH   7  29
TORSDOF 6
ENDMDL
MODEL 9
REMARK VINA RESULT:      -7.3      3.383      7.531
REMARK  Name = 
REMARK  9 active torsions:
REMARK  status: ('A' for Active; 'I' for Inactive)
REMARK    1  A    between atoms: C_1  and  C_2
REMARK    2  A    between atoms: C_10  and  C_11
REMARK    3  A    between atoms: C_11  and  C_13
REMARK    4  A    between atoms: N_15  and  C_16
REMARK    5  A    between atoms: C_25  and  C_27
REMARK    6  A    between atoms: C_27  and  C_28
REMARK    7  A    between atoms: C_30  and  N_31
REMARK    8  A    between atoms: N_31  and  C_32
REMARK    9  A    between atoms: N_31  and  C_33
REMARK                            x       y       z     vdW  Elec       q    Type
REMARK                         _______ _______ _______ _____ _____    ______ ____
ROOT
ATOM      1  C   UNL     1       0.694  10.292  18.427  0.00  0.00    +0.000 A 
ATOM      2  N   UNL     1      -0.609  10.001  18.238  0.00  0.00    +0.000 NA
ATOM      3  N   UNL     1      -1.208  11.207  18.347  0.00  0.00    +0.000 N 
ATOM      4  N   UNL     1      -0.403  12.229  18.704  0.00  0.00    +0.000 NA
ATOM      5  C   UNL     1       0.810  11.680  18.774  0.00  0.00    +0.000 A 
ATOM      6  N   UNL     1       1.947  12.400  19.156  0.00  0.00    +0.000 N 
ATOM      7  C   UNL     1       1.961  13.791  19.252  0.00  0.00    +0.000 C 
ATOM      8  O   UNL     1       1.100  14.534  18.783  0.00  0.00    +0.000 OA
ATOM      9  H   UNL     1       2.761  11.838  19.384  0.00  0.00    +0.000 HD
ENDROOT
BRANCH   3  10
ATOM     10  C   UNL     1      -2.590  11.402  18.082  0.00  0.00    +0.000 A 
ATOM     11  C   UNL     1      -3.125  11.099  16.821  0.00  0.00    +0.000 A 
ATOM     12  C   UNL     1      -4.489  11.294  16.576  0.00  0.00    +0.000 A 
ATOM     13  C   UNL     1      -5.316  11.800  17.577  0.00  0.00    +0.000 A 
ATOM     14  C   UNL     1      -4.786  12.107  18.830  0.00  0.00    +0.000 A 
ATOM     15  C   UNL     1      -3.428  11.910  19.088  0.00  0.00    +0.000 A 
ENDBRANCH   3  10
BRANCH   1  16
ATOM     16  C   UNL     1       1.763   9.294  18.290  0.00  0.00    +0.000 C 
ATOM     17  O   UNL     1       2.567   9.370  17.361  0.00  0.00    +0.000 OA
BRANCH  16  27
ATOM     18  C   UNL     1       1.058   9.445  21.468  0.00  0.00    +0.000 C 
ATOM     19  C   UNL     1       1.492   8.293  20.629  0.00  0.00    +0.000 A 
ATOM     20  N   UNL     1       1.637   7.053  21.202  0.00  0.00    +0.000 N 
ATOM     21  C   UNL     1       2.089   6.141  20.284  0.00  0.00    +0.000 A 
ATOM     22  C   UNL     1       2.389   4.782  20.448  0.00  0.00    +0.000 A 
ATOM     23  C   UNL     1       2.869   4.082  19.340  0.00  0.00    +0.000 A 
ATOM     24  C   UNL     1       3.058   4.725  18.123  0.00  0.00    +0.000 A 
ATOM     25  C   UNL     1       2.759   6.085  17.982  0.00  0.00    +0.000 A 
ATOM     26  C   UNL     1       2.235   6.819  19.072  0.00  0.00    +0.000 A 
ATOM     27  C   UNL     1       1.806   8.189  19.273  0.00  0.00    +0.000 A 
ATOM     28  H   UNL     1       1.465   6.836  22.175  0.00  0.00    +0.000 HD
ENDBRANCH  16  27
ENDBRANCH   1  16
BRANCH   7  29
ATOM     29  C   UNL     1       3.131  14.413  19.970  0.00  0.00    +0.000 C 
ATOM     30  C   UNL     1       3.302  14.233  21.298  0.00  0.00    +0.000 C 
BRANCH  30  31
ATOM     31  N   UNL     1       4.360  14.558  22.160  0.00  0.00    +0.000 N 
ATOM     32  C   UNL     1       5.409  13.631  22.608  0.00  0.00    +0.000 C 
ATOM     33  C   UNL     1       4.289  15.769  22.987  0.00  0.00    +0.000 C 
ENDBRANCH  30  31
BRANCH  29  34
ATOM     34  C   UNL     1       4.332  14.911  19.182  0.00  0.00    +0.000 C 
ATOM     35  N   UNL     1       5.328  15.324  18.529  0.00  0.00    +0.000 NA
ENDBRANCH  29  34
ENDBRANCH   7  29
TORSDOF 6
ENDMDL
