MODEL 1
REMARK VINA RESULT:      -6.0      0.000      0.000
REMARK  Name = 
REMARK  5 active torsions:
REMARK  status: ('A' for Active; 'I' for Inactive)
REMARK    1  A    between atoms: C_1  and  C_2
REMARK    2  A    between atoms: C_2  and  C_8
REMARK    3  A    between atoms: N_3  and  N_4
REMARK    4  A    between atoms: N_4  and  C_5
REMARK    5  A    between atoms: C_5  and  N_6
REMARK                            x       y       z     vdW  Elec       q    Type
REMARK                         _______ _______ _______ _____ _____    ______ ____
ROOT
ATOM      1  C   UNL     1       6.088   4.254  14.744  0.00  0.00    +0.000 C 
ATOM      2  C   UNL     1       6.161   4.412  16.254  0.00  0.00    +0.000 C 
ATOM      3  N   UNL     1       7.360   4.424  16.769  0.00  0.00    +0.000 NA
ENDROOT
BRANCH   2   4
ATOM      4  C   UNL     1       4.882   4.499  16.958  0.00  0.00    +0.000 A 
ATOM      5  C   UNL     1       4.161   5.640  17.278  0.00  0.00    +0.000 A 
ATOM      6  C   UNL     1       2.919   5.347  17.923  0.00  0.00    +0.000 A 
ATOM      7  C   UNL     1       2.765   3.999  18.106  0.00  0.00    +0.000 A 
ATOM      8 BR   UNL     1       1.240   3.219  18.863  0.00  0.00    +0.000 Br
ATOM      9  S   UNL     1       4.098   3.102  17.585  0.00  0.00    +0.000 S 
ENDBRANCH   2   4
BRANCH   3  10
ATOM     10  N   UNL     1       7.500   4.474  18.125  0.00  0.00    +0.000 N 
ATOM     11  H   UNL     1       7.322   3.643  18.684  0.00  0.00    +0.000 HD
BRANCH  10  12
ATOM     12  C   UNL     1       7.800   5.625  18.790  0.00  0.00    +0.000 C 
ATOM     13  S   UNL     1       7.719   7.109  18.053  0.00  0.00    +0.000 S 
BRANCH  12  14
ATOM     14  N   UNL     1       8.164   5.486  20.083  0.00  0.00    +0.000 N 
ATOM     15  H   UNL     1       8.661   6.256  20.513  0.00  0.00    +0.000 HD
ATOM     16  H   UNL     1       7.845   4.704  20.635  0.00  0.00    +0.000 HD
ENDBRANCH  12  14
ENDBRANCH  10  12
ENDBRANCH   3  10
TORSDOF 4
ENDMDL
MODEL 2
REMARK VINA RESULT:      -5.7      1.150      1.381
REMARK  Name = 
REMARK  5 active torsions:
REMARK  status: ('A' for Active; 'I' for Inactive)
REMARK    1  A    between atoms: C_1  and  C_2
REMARK    2  A    between atoms: C_2  and  C_8
REMARK    3  A    between atoms: N_3  and  N_4
REMARK    4  A    between atoms: N_4  and  C_5
REMARK    5  A    between atoms: C_5  and  N_6
REMARK                            x       y       z     vdW  Elec       q    Type
REMARK                         _______ _______ _______ _____ _____    ______ ____
ROOT
ATOM      1  C   UNL     1       5.821   4.208  14.899  0.00  0.00    +0.000 C 
ATOM      2  C   UNL     1       6.070   4.290  16.396  0.00  0.00    +0.000 C 
ATOM      3  N   UNL     1       7.308   4.479  16.759  0.00  0.00    +0.000 NA
ENDROOT
BRANCH   2   4
ATOM      4  C   UNL     1       4.900   4.117  17.257  0.00  0.00    +0.000 A 
ATOM      5  C   UNL     1       4.143   2.970  17.445  0.00  0.00    +0.000 A 
ATOM      6  C   UNL     1       3.099   3.147  18.406  0.00  0.00    +0.000 A 
ATOM      7  C   UNL     1       3.079   4.431  18.879  0.00  0.00    +0.000 A 
ATOM      8 BR   UNL     1       1.894   5.036  20.197  0.00  0.00    +0.000 Br
ATOM      9  S   UNL     1       4.229   5.427  18.147  0.00  0.00    +0.000 S 
ENDBRANCH   2   4
BRANCH   3  10
ATOM     10  N   UNL     1       7.620   4.476  18.088  0.00  0.00    +0.000 N 
ATOM     11  H   UNL     1       7.609   3.604  18.608  0.00  0.00    +0.000 HD
BRANCH  10  12
ATOM     12  C   UNL     1       7.877   5.620  18.783  0.00  0.00    +0.000 C 
ATOM     13  S   UNL     1       7.748   7.119  18.084  0.00  0.00    +0.000 S 
BRANCH  12  14
ATOM     14  N   UNL     1       8.238   5.460  20.075  0.00  0.00    +0.000 N 
ATOM     15  H   UNL     1       7.678   5.928  20.777  0.00  0.00    +0.000 HD
ATOM     16  H   UNL     1       8.956   4.803  20.339  0.00  0.00    +0.000 HD
ENDBRANCH  12  14
ENDBRANCH  10  12
ENDBRANCH   3  10
TORSDOF 4
ENDMDL
MODEL 3
REMARK VINA RESULT:      -5.7      2.332      3.541
REMARK  Name = 
REMARK  5 active torsions:
REMARK  status: ('A' for Active; 'I' for Inactive)
REMARK    1  A    between atoms: C_1  and  C_2
REMARK    2  A    between atoms: C_2  and  C_8
REMARK    3  A    between atoms: N_3  and  N_4
REMARK    4  A    between atoms: N_4  and  C_5
REMARK    5  A    between atoms: C_5  and  N_6
REMARK                            x       y       z     vdW  Elec       q    Type
REMARK                         _______ _______ _______ _____ _____    ______ ____
ROOT
ATOM      1  C   UNL     1       7.565   8.103  17.671  0.00  0.00    +0.000 C 
ATOM      2  C   UNL     1       6.987   6.792  17.162  0.00  0.00    +0.000 C 
ATOM      3  N   UNL     1       7.702   6.159  16.274  0.00  0.00    +0.000 NA
ENDROOT
BRANCH   2   4
ATOM      4  C   UNL     1       5.683   6.408  17.703  0.00  0.00    +0.000 A 
ATOM      5  C   UNL     1       4.432   6.858  17.310  0.00  0.00    +0.000 A 
ATOM      6  C   UNL     1       3.367   6.224  18.022  0.00  0.00    +0.000 A 
ATOM      7  C   UNL     1       3.852   5.348  18.956  0.00  0.00    +0.000 A 
ATOM      8 BR   UNL     1       2.766   4.281  20.047  0.00  0.00    +0.000 Br
ATOM      9  S   UNL     1       5.539   5.329  19.035  0.00  0.00    +0.000 S 
ENDBRANCH   2   4
BRANCH   3  10
ATOM     10  N   UNL     1       7.205   5.021  15.709  0.00  0.00    +0.000 N 
ATOM     11  H   UNL     1       6.960   4.229  16.296  0.00  0.00    +0.000 HD
BRANCH  10  12
ATOM     12  C   UNL     1       7.088   4.862  14.360  0.00  0.00    +0.000 C 
ATOM     13  S   UNL     1       5.957   3.849  13.692  0.00  0.00    +0.000 S 
BRANCH  12  14
ATOM     14  N   UNL     1       7.943   5.581  13.601  0.00  0.00    +0.000 N 
ATOM     15  H   UNL     1       8.119   5.254  12.659  0.00  0.00    +0.000 HD
ATOM     16  H   UNL     1       8.295   6.474  13.913  0.00  0.00    +0.000 HD
ENDBRANCH  12  14
ENDBRANCH  10  12
ENDBRANCH   3  10
TORSDOF 4
ENDMDL
MODEL 4
REMARK VINA RESULT:      -5.6      1.998      3.066
REMARK  Name = 
REMARK  5 active torsions:
REMARK  status: ('A' for Active; 'I' for Inactive)
REMARK    1  A    between atoms: C_1  and  C_2
REMARK    2  A    between atoms: C_2  and  C_8
REMARK    3  A    between atoms: N_3  and  N_4
REMARK    4  A    between atoms: N_4  and  C_5
REMARK    5  A    between atoms: C_5  and  N_6
REMARK                            x       y       z     vdW  Elec       q    Type
REMARK                         _______ _______ _______ _____ _____    ______ ____
ROOT
ATOM      1  C   UNL     1       6.851   5.463  19.250  0.00  0.00    +0.000 C 
ATOM      2  C   UNL     1       6.214   4.765  18.060  0.00  0.00    +0.000 C 
ATOM      3  N   UNL     1       7.016   4.469  17.075  0.00  0.00    +0.000 NA
ENDROOT
BRANCH   2   4
ATOM      4  C   UNL     1       4.772   4.534  18.141  0.00  0.00    +0.000 A 
ATOM      5  C   UNL     1       3.750   5.362  17.701  0.00  0.00    +0.000 A 
ATOM      6  C   UNL     1       2.453   4.792  17.893  0.00  0.00    +0.000 A 
ATOM      7  C   UNL     1       2.538   3.572  18.509  0.00  0.00    +0.000 A 
ATOM      8 BR   UNL     1       1.058   2.486  18.878  0.00  0.00    +0.000 Br
ATOM      9  S   UNL     1       4.120   3.143  18.916  0.00  0.00    +0.000 S 
ENDBRANCH   2   4
BRANCH   3  10
ATOM     10  N   UNL     1       6.499   3.920  15.938  0.00  0.00    +0.000 N 
ATOM     11  H   UNL     1       5.937   3.075  15.993  0.00  0.00    +0.000 HD
BRANCH  10  12
ATOM     12  C   UNL     1       6.765   4.417  14.697  0.00  0.00    +0.000 C 
ATOM     13  S   UNL     1       6.023   3.822  13.337  0.00  0.00    +0.000 S 
BRANCH  12  14
ATOM     14  N   UNL     1       7.663   5.423  14.640  0.00  0.00    +0.000 N 
ATOM     15  H   UNL     1       8.453   5.309  14.016  0.00  0.00    +0.000 HD
ATOM     16  H   UNL     1       7.492   6.304  15.102  0.00  0.00    +0.000 HD
ENDBRANCH  12  14
ENDBRANCH  10  12
ENDBRANCH   3  10
TORSDOF 4
ENDMDL
MODEL 5
REMARK VINA RESULT:      -5.6      1.487      1.624
REMARK  Name = 
REMARK  5 active torsions:
REMARK  status: ('A' for Active; 'I' for Inactive)
REMARK    1  A    between atoms: C_1  and  C_2
REMARK    2  A    between atoms: C_2  and  C_8
REMARK    3  A    between atoms: N_3  and  N_4
REMARK    4  A    between atoms: N_4  and  C_5
REMARK    5  A    between atoms: C_5  and  N_6
REMARK                            x       y       z     vdW  Elec       q    Type
REMARK                         _______ _______ _______ _____ _____    ______ ____
ROOT
ATOM      1  C   UNL     1       4.611   4.145  15.966  0.00  0.00    +0.000 C 
ATOM      2  C   UNL     1       5.262   4.280  17.333  0.00  0.00    +0.000 C 
ATOM      3  N   UNL     1       6.564   4.365  17.339  0.00  0.00    +0.000 NA
ENDROOT
BRANCH   2   4
ATOM      4  C   UNL     1       4.359   4.268  18.484  0.00  0.00    +0.000 A 
ATOM      5  C   UNL     1       3.836   5.355  19.168  0.00  0.00    +0.000 A 
ATOM      6  C   UNL     1       2.939   4.971  20.214  0.00  0.00    +0.000 A 
ATOM      7  C   UNL     1       2.849   3.609  20.309  0.00  0.00    +0.000 A 
ATOM      8 BR   UNL     1       1.728   2.722  21.520  0.00  0.00    +0.000 Br
ATOM      9  S   UNL     1       3.861   2.799  19.227  0.00  0.00    +0.000 S 
ENDBRANCH   2   4
BRANCH   3  10
ATOM     10  N   UNL     1       7.222   4.400  18.534  0.00  0.00    +0.000 N 
ATOM     11  H   UNL     1       7.262   3.568  19.115  0.00  0.00    +0.000 HD
BRANCH  10  12
ATOM     12  C   UNL     1       7.778   5.541  19.032  0.00  0.00    +0.000 C 
ATOM     13  S   UNL     1       7.744   6.971  18.192  0.00  0.00    +0.000 S 
BRANCH  12  14
ATOM     14  N   UNL     1       8.353   5.438  20.249  0.00  0.00    +0.000 N 
ATOM     15  H   UNL     1       8.522   6.296  20.759  0.00  0.00    +0.000 HD
ATOM     16  H   UNL     1       8.494   4.540  20.687  0.00  0.00    +0.000 HD
ENDBRANCH  12  14
ENDBRANCH  10  12
ENDBRANCH   3  10
TORSDOF 4
ENDMDL
MODEL 6
REMARK VINA RESULT:      -5.5      2.380      3.313
REMARK  Name = 
REMARK  5 active torsions:
REMARK  status: ('A' for Active; 'I' for Inactive)
REMARK    1  A    between atoms: C_1  and  C_2
REMARK    2  A    between atoms: C_2  and  C_8
REMARK    3  A    between atoms: N_3  and  N_4
REMARK    4  A    between atoms: N_4  and  C_5
REMARK    5  A    between atoms: C_5  and  N_6
REMARK                            x       y       z     vdW  Elec       q    Type
REMARK                         _______ _______ _______ _____ _____    ______ ____
ROOT
ATOM      1  C   UNL     1       2.524   8.179  17.826  0.00  0.00    +0.000 C 
ATOM      2  C   UNL     1       3.345   6.900  17.855  0.00  0.00    +0.000 C 
ATOM      3  N   UNL     1       4.542   6.978  17.342  0.00  0.00    +0.000 NA
ENDROOT
BRANCH   2   4
ATOM      4  C   UNL     1       2.690   5.723  18.425  0.00  0.00    +0.000 A 
ATOM      5  C   UNL     1       1.945   4.758  17.764  0.00  0.00    +0.000 A 
ATOM      6  C   UNL     1       1.498   3.713  18.631  0.00  0.00    +0.000 A 
ATOM      7  C   UNL     1       1.885   3.946  19.923  0.00  0.00    +0.000 A 
ATOM      8 BR   UNL     1       1.541   2.773  21.341  0.00  0.00    +0.000 Br
ATOM      9  S   UNL     1       2.703   5.411  20.117  0.00  0.00    +0.000 S 
ENDBRANCH   2   4
BRANCH   3  10
ATOM     10  N   UNL     1       5.303   5.850  17.254  0.00  0.00    +0.000 N 
ATOM     11  H   UNL     1       4.855   4.939  17.206  0.00  0.00    +0.000 HD
BRANCH  10  12
ATOM     12  C   UNL     1       6.665   5.877  17.303  0.00  0.00    +0.000 C 
ATOM     13  S   UNL     1       7.491   5.850  18.742  0.00  0.00    +0.000 S 
BRANCH  12  14
ATOM     14  N   UNL     1       7.301   5.925  16.113  0.00  0.00    +0.000 N 
ATOM     15  H   UNL     1       6.860   6.451  15.369  0.00  0.00    +0.000 HD
ATOM     16  H   UNL     1       8.235   5.558  16.004  0.00  0.00    +0.000 HD
ENDBRANCH  12  14
ENDBRANCH  10  12
ENDBRANCH   3  10
TORSDOF 4
ENDMDL
MODEL 7
REMARK VINA RESULT:      -5.4      2.293      3.225
REMARK  Name = 
REMARK  5 active torsions:
REMARK  status: ('A' for Active; 'I' for Inactive)
REMARK    1  A    between atoms: C_1  and  C_2
REMARK    2  A    between atoms: C_2  and  C_8
REMARK    3  A    between atoms: N_3  and  N_4
REMARK    4  A    between atoms: N_4  and  C_5
REMARK    5  A    between atoms: C_5  and  N_6
REMARK                            x       y       z     vdW  Elec       q    Type
REMARK                         _______ _______ _______ _____ _____    ______ ____
ROOT
ATOM      1  C   UNL     1       3.140   7.816  17.580  0.00  0.00    +0.000 C 
ATOM      2  C   UNL     1       3.793   6.455  17.760  0.00  0.00    +0.000 C 
ATOM      3  N   UNL     1       5.016   6.346  17.319  0.00  0.00    +0.000 NA
ENDROOT
BRANCH   2   4
ATOM      4  C   UNL     1       2.966   5.417  18.375  0.00  0.00    +0.000 A 
ATOM      5  C   UNL     1       1.997   4.630  17.771  0.00  0.00    +0.000 A 
ATOM      6  C   UNL     1       1.423   3.675  18.667  0.00  0.00    +0.000 A 
ATOM      7  C   UNL     1       1.948   3.802  19.925  0.00  0.00    +0.000 A 
ATOM      8 BR   UNL     1       1.491   2.690  21.361  0.00  0.00    +0.000 Br
ATOM      9  S   UNL     1       3.049   5.075  20.059  0.00  0.00    +0.000 S 
ENDBRANCH   2   4
BRANCH   3  10
ATOM     10  N   UNL     1       5.634   5.130  17.367  0.00  0.00    +0.000 N 
ATOM     11  H   UNL     1       5.495   4.523  18.170  0.00  0.00    +0.000 HD
BRANCH  10  12
ATOM     12  C   UNL     1       6.505   4.712  16.406  0.00  0.00    +0.000 C 
ATOM     13  S   UNL     1       6.042   4.529  14.823  0.00  0.00    +0.000 S 
BRANCH  12  14
ATOM     14  N   UNL     1       7.766   4.459  16.817  0.00  0.00    +0.000 N 
ATOM     15  H   UNL     1       7.881   3.869  17.632  0.00  0.00    +0.000 HD
ATOM     16  H   UNL     1       8.562   4.741  16.265  0.00  0.00    +0.000 HD
ENDBRANCH  12  14
ENDBRANCH  10  12
ENDBRANCH   3  10
TORSDOF 4
ENDMDL
MODEL 8
REMARK VINA RESULT:      -5.4      1.973      3.244
REMARK  Name = 
REMARK  5 active torsions:
REMARK  status: ('A' for Active; 'I' for Inactive)
REMARK    1  A    between atoms: C_1  and  C_2
REMARK    2  A    between atoms: C_2  and  C_8
REMARK    3  A    between atoms: N_3  and  N_4
REMARK    4  A    between atoms: N_4  and  C_5
REMARK    5  A    between atoms: C_5  and  N_6
REMARK                            x       y       z     vdW  Elec       q    Type
REMARK                         _______ _______ _______ _____ _____    ______ ____
ROOT
ATOM      1  C   UNL     1       7.524   5.695  18.985  0.00  0.00    +0.000 C 
ATOM      2  C   UNL     1       6.697   5.674  17.710  0.00  0.00    +0.000 C 
ATOM      3  N   UNL     1       7.356   5.854  16.599  0.00  0.00    +0.000 NA
ENDROOT
BRANCH   2   4
ATOM      4  C   UNL     1       5.256   5.486  17.877  0.00  0.00    +0.000 A 
ATOM      5  C   UNL     1       4.267   6.458  17.899  0.00  0.00    +0.000 A 
ATOM      6  C   UNL     1       2.953   5.909  18.026  0.00  0.00    +0.000 A 
ATOM      7  C   UNL     1       2.999   4.545  18.138  0.00  0.00    +0.000 A 
ATOM      8 BR   UNL     1       1.478   3.459  18.261  0.00  0.00    +0.000 Br
ATOM      9  S   UNL     1       4.573   3.933  18.161  0.00  0.00    +0.000 S 
ENDBRANCH   2   4
BRANCH   3  10
ATOM     10  N   UNL     1       6.668   5.935  15.423  0.00  0.00    +0.000 N 
ATOM     11  H   UNL     1       5.856   6.542  15.352  0.00  0.00    +0.000 HD
BRANCH  10  12
ATOM     12  C   UNL     1       6.976   5.170  14.338  0.00  0.00    +0.000 C 
ATOM     13  S   UNL     1       6.102   3.817  13.943  0.00  0.00    +0.000 S 
BRANCH  12  14
ATOM     14  N   UNL     1       8.032   5.581  13.604  0.00  0.00    +0.000 N 
ATOM     15  H   UNL     1       8.200   5.109  12.724  0.00  0.00    +0.000 HD
ATOM     16  H   UNL     1       8.557   6.405  13.858  0.00  0.00    +0.000 HD
ENDBRANCH  12  14
ENDBRANCH  10  12
ENDBRANCH   3  10
TORSDOF 4
ENDMDL
MODEL 9
REMARK VINA RESULT:      -5.4      1.676      1.793
REMARK  Name = 
REMARK  5 active torsions:
REMARK  status: ('A' for Active; 'I' for Inactive)
REMARK    1  A    between atoms: C_1  and  C_2
REMARK    2  A    between atoms: C_2  and  C_8
REMARK    3  A    between atoms: N_3  and  N_4
REMARK    4  A    between atoms: N_4  and  C_5
REMARK    5  A    between atoms: C_5  and  N_6
REMARK                            x       y       z     vdW  Elec       q    Type
REMARK                         _______ _______ _______ _____ _____    ______ ____
ROOT
ATOM      1  C   UNL     1       6.676   4.607  14.670  0.00  0.00    +0.000 C 
ATOM      2  C   UNL     1       6.595   4.716  16.184  0.00  0.00    +0.000 C 
ATOM      3  N   UNL     1       7.700   4.473  16.833  0.00  0.00    +0.000 NA
ENDROOT
BRANCH   2   4
ATOM      4  C   UNL     1       5.284   5.048  16.740  0.00  0.00    +0.000 A 
ATOM      5  C   UNL     1       4.257   4.179  17.078  0.00  0.00    +0.000 A 
ATOM      6  C   UNL     1       3.131   4.848  17.650  0.00  0.00    +0.000 A 
ATOM      7  C   UNL     1       3.329   6.202  17.685  0.00  0.00    +0.000 A 
ATOM      8 BR   UNL     1       2.105   7.415  18.418  0.00  0.00    +0.000 Br
ATOM      9  S   UNL     1       4.793   6.677  16.990  0.00  0.00    +0.000 S 
ENDBRANCH   2   4
BRANCH   3  10
ATOM     10  N   UNL     1       7.682   4.466  18.198  0.00  0.00    +0.000 N 
ATOM     11  H   UNL     1       7.360   3.641  18.696  0.00  0.00    +0.000 HD
BRANCH  10  12
ATOM     12  C   UNL     1       8.011   5.560  18.941  0.00  0.00    +0.000 C 
ATOM     13  S   UNL     1       8.042   7.086  18.290  0.00  0.00    +0.000 S 
BRANCH  12  14
ATOM     14  N   UNL     1       8.307   5.329  20.239  0.00  0.00    +0.000 N 
ATOM     15  H   UNL     1       7.933   4.487  20.659  0.00  0.00    +0.000 HD
ATOM     16  H   UNL     1       8.973   5.902  20.734  0.00  0.00    +0.000 HD
ENDBRANCH  12  14
ENDBRANCH  10  12
ENDBRANCH   3  10
TORSDOF 4
ENDMDL
