MODEL 1
REMARK VINA RESULT:      -7.7      0.000      0.000
REMARK  Name = 
REMARK  7 active torsions:
REMARK  status: ('A' for Active; 'I' for Inactive)
REMARK    1  A    between atoms: C_1  and  C_2
REMARK    2  A    between atoms: C_5  and  C_6
REMARK    3  A    between atoms: N_8  and  C_9
REMARK    4  A    between atoms: N_8  and  C_16
REMARK    5  A    between atoms: C_9  and  C_10
REMARK    6  A    between atoms: C_16  and  C_17
REMARK    7  A    between atoms: C_21  and  C_22
REMARK                            x       y       z     vdW  Elec       q    Type
REMARK                         _______ _______ _______ _____ _____    ______ ____
ROOT
ATOM      1  C   UNL     1       0.266  13.036  21.162  0.00  0.00    +0.000 C 
ATOM      2  O   UNL     1       1.347  13.444  21.603  0.00  0.00    +0.000 OA
ATOM      3  N   UNL     1       0.079  12.888  19.769  0.00  0.00    +0.000 N 
ENDROOT
BRANCH   1   8
ATOM      4  C   UNL     1      -4.367  12.514  24.684  0.00  0.00    +0.000 C 
ATOM      5  C   UNL     1      -3.153  12.615  23.803  0.00  0.00    +0.000 A 
ATOM      6  C   UNL     1      -2.749  13.854  23.308  0.00  0.00    +0.000 A 
ATOM      7  C   UNL     1      -1.594  13.949  22.514  0.00  0.00    +0.000 A 
ATOM      8  C   UNL     1      -0.814  12.822  22.189  0.00  0.00    +0.000 A 
ATOM      9  C   UNL     1      -1.229  11.584  22.673  0.00  0.00    +0.000 A 
ATOM     10  C   UNL     1      -2.386  11.483  23.483  0.00  0.00    +0.000 A 
ENDBRANCH   1   8
BRANCH   3  11
ATOM     11  C   UNL     1       1.131  13.561  18.947  0.00  0.00    +0.000 C 
BRANCH  11  12
ATOM     12  C   UNL     1       0.934  15.044  18.882  0.00  0.00    +0.000 A 
ATOM     13  C   UNL     1       2.030  15.883  18.682  0.00  0.00    +0.000 A 
ATOM     14  C   UNL     1       1.811  17.142  18.155  0.00  0.00    +0.000 A 
ATOM     15  C   UNL     1       0.492  17.533  17.922  0.00  0.00    +0.000 A 
ATOM     16  N   UNL     1      -0.584  16.800  18.260  0.00  0.00    +0.000 NA
ATOM     17  C   UNL     1      -0.344  15.574  18.756  0.00  0.00    +0.000 A 
ENDBRANCH  11  12
ENDBRANCH   3  11
BRANCH   3  18
ATOM     18  C   UNL     1      -0.609  11.686  19.180  0.00  0.00    +0.000 C 
BRANCH  18  19
ATOM     19  C   UNL     1      -2.070  11.905  18.800  0.00  0.00    +0.000 A 
ATOM     20  C   UNL     1      -2.912  12.489  19.675  0.00  0.00    +0.000 A 
ATOM     21  C   UNL     1      -4.354  12.339  19.576  0.00  0.00    +0.000 A 
ATOM     22  C   UNL     1      -5.111  12.538  20.724  0.00  0.00    +0.000 A 
ATOM     23  C   UNL     1      -6.470  12.247  20.720  0.00  0.00    +0.000 A 
ATOM     24  C   UNL     1      -7.232  12.344  22.010  0.00  0.00    +0.000 C 
ATOM     25  C   UNL     1      -7.078  11.826  19.524  0.00  0.00    +0.000 A 
ATOM     26  C   UNL     1      -6.321  11.635  18.354  0.00  0.00    +0.000 A 
ATOM     27  C   UNL     1      -4.946  11.852  18.413  0.00  0.00    +0.000 A 
ATOM     28  N   UNL     1      -4.041  11.512  17.396  0.00  0.00    +0.000 N 
ATOM     29  N   UNL     1      -4.367  11.101  16.158  0.00  0.00    +0.000 NA
ATOM     30  N   UNL     1      -3.210  10.855  15.557  0.00  0.00    +0.000 NA
ATOM     31  N   UNL     1      -2.145  11.059  16.412  0.00  0.00    +0.000 NA
ATOM     32  C   UNL     1      -2.657  11.482  17.550  0.00  0.00    +0.000 A 
ENDBRANCH  18  19
ENDBRANCH   3  18
TORSDOF 5
ENDMDL
MODEL 2
REMARK VINA RESULT:      -7.4      0.845      1.108
REMARK  Name = 
REMARK  7 active torsions:
REMARK  status: ('A' for Active; 'I' for Inactive)
REMARK    1  A    between atoms: C_1  and  C_2
REMARK    2  A    between atoms: C_5  and  C_6
REMARK    3  A    between atoms: N_8  and  C_9
REMARK    4  A    between atoms: N_8  and  C_16
REMARK    5  A    between atoms: C_9  and  C_10
REMARK    6  A    between atoms: C_16  and  C_17
REMARK    7  A    between atoms: C_21  and  C_22
REMARK                            x       y       z     vdW  Elec       q    Type
REMARK                         _______ _______ _______ _____ _____    ______ ____
ROOT
ATOM      1  C   UNL     1       0.424  13.380  21.472  0.00  0.00    +0.000 C 
ATOM      2  O   UNL     1       1.401  13.930  21.992  0.00  0.00    +0.000 OA
ATOM      3  N   UNL     1       0.391  13.163  20.076  0.00  0.00    +0.000 N 
ENDROOT
BRANCH   1   8
ATOM      4  C   UNL     1      -4.427  12.521  24.615  0.00  0.00    +0.000 C 
ATOM      5  C   UNL     1      -3.157  12.707  23.831  0.00  0.00    +0.000 A 
ATOM      6  C   UNL     1      -2.752  13.986  23.451  0.00  0.00    +0.000 A 
ATOM      7  C   UNL     1      -1.548  14.159  22.748  0.00  0.00    +0.000 A 
ATOM      8  C   UNL     1      -0.719  13.074  22.404  0.00  0.00    +0.000 A 
ATOM      9  C   UNL     1      -1.136  11.797  22.771  0.00  0.00    +0.000 A 
ATOM     10  C   UNL     1      -2.343  11.616  23.490  0.00  0.00    +0.000 A 
ENDBRANCH   1   8
BRANCH   3  11
ATOM     11  C   UNL     1       1.433  13.928  19.325  0.00  0.00    +0.000 C 
BRANCH  11  12
ATOM     12  C   UNL     1       0.993  15.326  19.016  0.00  0.00    +0.000 A 
ATOM     13  C   UNL     1      -0.337  15.580  18.685  0.00  0.00    +0.000 A 
ATOM     14  C   UNL     1      -0.834  16.856  18.872  0.00  0.00    +0.000 A 
ATOM     15  C   UNL     1       0.049  17.843  19.313  0.00  0.00    +0.000 A 
ATOM     16  N   UNL     1       1.370  17.654  19.482  0.00  0.00    +0.000 NA
ATOM     17  C   UNL     1       1.824  16.401  19.309  0.00  0.00    +0.000 A 
ENDBRANCH  11  12
ENDBRANCH   3  11
BRANCH   3  18
ATOM     18  C   UNL     1      -0.092  11.868  19.481  0.00  0.00    +0.000 C 
BRANCH  18  19
ATOM     19  C   UNL     1      -1.544  11.879  19.012  0.00  0.00    +0.000 A 
ATOM     20  C   UNL     1      -2.445  12.664  19.634  0.00  0.00    +0.000 A 
ATOM     21  C   UNL     1      -3.874  12.415  19.551  0.00  0.00    +0.000 A 
ATOM     22  C   UNL     1      -4.687  12.926  20.555  0.00  0.00    +0.000 A 
ATOM     23  C   UNL     1      -6.031  12.578  20.608  0.00  0.00    +0.000 A 
ATOM     24  C   UNL     1      -6.850  13.036  21.780  0.00  0.00    +0.000 C 
ATOM     25  C   UNL     1      -6.570  11.769  19.591  0.00  0.00    +0.000 A 
ATOM     26  C   UNL     1      -5.757  11.259  18.563  0.00  0.00    +0.000 A 
ATOM     27  C   UNL     1      -4.396  11.555  18.587  0.00  0.00    +0.000 A 
ATOM     28  N   UNL     1      -3.437  10.960  17.754  0.00  0.00    +0.000 N 
ATOM     29  N   UNL     1      -3.693  10.163  16.703  0.00  0.00    +0.000 NA
ATOM     30  N   UNL     1      -2.502   9.801  16.241  0.00  0.00    +0.000 NA
ATOM     31  N   UNL     1      -1.483  10.319  17.015  0.00  0.00    +0.000 NA
ATOM     32  C   UNL     1      -2.061  11.052  17.947  0.00  0.00    +0.000 A 
ENDBRANCH  18  19
ENDBRANCH   3  18
TORSDOF 5
ENDMDL
MODEL 3
REMARK VINA RESULT:      -7.3      3.502      5.488
REMARK  Name = 
REMARK  7 active torsions:
REMARK  status: ('A' for Active; 'I' for Inactive)
REMARK    1  A    between atoms: C_1  and  C_2
REMARK    2  A    between atoms: C_5  and  C_6
REMARK    3  A    between atoms: N_8  and  C_9
REMARK    4  A    between atoms: N_8  and  C_16
REMARK    5  A    between atoms: C_9  and  C_10
REMARK    6  A    between atoms: C_16  and  C_17
REMARK    7  A    between atoms: C_21  and  C_22
REMARK                            x       y       z     vdW  Elec       q    Type
REMARK                         _______ _______ _______ _____ _____    ______ ____
ROOT
ATOM      1  C   UNL     1       1.765   9.949  18.547  0.00  0.00    +0.000 C 
ATOM      2  O   UNL     1       2.062  10.093  17.355  0.00  0.00    +0.000 OA
ATOM      3  N   UNL     1       1.504  11.080  19.354  0.00  0.00    +0.000 N 
ENDROOT
BRANCH   1   8
ATOM      4  C   UNL     1       2.617   4.454  20.342  0.00  0.00    +0.000 C 
ATOM      5  C   UNL     1       2.359   5.870  19.907  0.00  0.00    +0.000 A 
ATOM      6  C   UNL     1       2.618   6.256  18.593  0.00  0.00    +0.000 A 
ATOM      7  C   UNL     1       2.343   7.571  18.181  0.00  0.00    +0.000 A 
ATOM      8  C   UNL     1       1.809   8.534  19.060  0.00  0.00    +0.000 A 
ATOM      9  C   UNL     1       1.567   8.149  20.376  0.00  0.00    +0.000 A 
ATOM     10  C   UNL     1       1.831   6.822  20.794  0.00  0.00    +0.000 A 
ENDBRANCH   1   8
BRANCH   3  11
ATOM     11  C   UNL     1       1.938  12.370  18.737  0.00  0.00    +0.000 C 
BRANCH  11  12
ATOM     12  C   UNL     1       1.837  13.517  19.696  0.00  0.00    +0.000 A 
ATOM     13  C   UNL     1       0.748  14.386  19.630  0.00  0.00    +0.000 A 
ATOM     14  C   UNL     1       0.410  15.110  20.757  0.00  0.00    +0.000 A 
ATOM     15  C   UNL     1       1.226  14.986  21.882  0.00  0.00    +0.000 A 
ATOM     16  N   UNL     1       2.370  14.279  21.912  0.00  0.00    +0.000 NA
ATOM     17  C   UNL     1       2.668  13.573  20.808  0.00  0.00    +0.000 A 
ENDBRANCH  11  12
ENDBRANCH   3  11
BRANCH   3  18
ATOM     18  C   UNL     1       0.356  11.118  20.326  0.00  0.00    +0.000 C 
BRANCH  18  19
ATOM     19  C   UNL     1      -1.029  11.103  19.685  0.00  0.00    +0.000 A 
ATOM     20  C   UNL     1      -1.270  10.307  18.626  0.00  0.00    +0.000 A 
ATOM     21  C   UNL     1      -2.376  10.549  17.715  0.00  0.00    +0.000 A 
ATOM     22  C   UNL     1      -2.293  10.024  16.432  0.00  0.00    +0.000 A 
ATOM     23  C   UNL     1      -3.244  10.365  15.477  0.00  0.00    +0.000 A 
ATOM     24  C   UNL     1      -3.052   9.890  14.066  0.00  0.00    +0.000 C 
ATOM     25  C   UNL     1      -4.328  11.180  15.850  0.00  0.00    +0.000 A 
ATOM     26  C   UNL     1      -4.427  11.704  17.150  0.00  0.00    +0.000 A 
ATOM     27  C   UNL     1      -3.412  11.415  18.060  0.00  0.00    +0.000 A 
ATOM     28  N   UNL     1      -3.270  12.024  19.316  0.00  0.00    +0.000 N 
ATOM     29  N   UNL     1      -4.170  12.829  19.906  0.00  0.00    +0.000 NA
ATOM     30  N   UNL     1      -3.608  13.202  21.049  0.00  0.00    +0.000 NA
ATOM     31  N   UNL     1      -2.335  12.682  21.177  0.00  0.00    +0.000 NA
ATOM     32  C   UNL     1      -2.129  11.937  20.109  0.00  0.00    +0.000 A 
ENDBRANCH  18  19
ENDBRANCH   3  18
TORSDOF 5
ENDMDL
MODEL 4
REMARK VINA RESULT:      -7.2      6.774      9.792
REMARK  Name = 
REMARK  7 active torsions:
REMARK  status: ('A' for Active; 'I' for Inactive)
REMARK    1  A    between atoms: C_1  and  C_2
REMARK    2  A    between atoms: C_5  and  C_6
REMARK    3  A    between atoms: N_8  and  C_9
REMARK    4  A    between atoms: N_8  and  C_16
REMARK    5  A    between atoms: C_9  and  C_10
REMARK    6  A    between atoms: C_16  and  C_17
REMARK    7  A    between atoms: C_21  and  C_22
REMARK                            x       y       z     vdW  Elec       q    Type
REMARK                         _______ _______ _______ _____ _____    ______ ____
ROOT
ATOM      1  C   UNL     1       4.125   5.905  18.791  0.00  0.00    +0.000 C 
ATOM      2  O   UNL     1       4.563   5.276  19.760  0.00  0.00    +0.000 OA
ATOM      3  N   UNL     1       2.892   6.590  18.888  0.00  0.00    +0.000 N 
ENDROOT
BRANCH   1   8
ATOM      4  C   UNL     1       7.015   4.811  13.832  0.00  0.00    +0.000 C 
ATOM      5  C   UNL     1       6.277   5.139  15.100  0.00  0.00    +0.000 A 
ATOM      6  C   UNL     1       6.440   4.340  16.231  0.00  0.00    +0.000 A 
ATOM      7  C   UNL     1       5.776   4.670  17.424  0.00  0.00    +0.000 A 
ATOM      8  C   UNL     1       4.934   5.794  17.526  0.00  0.00    +0.000 A 
ATOM      9  C   UNL     1       4.761   6.580  16.390  0.00  0.00    +0.000 A 
ATOM     10  C   UNL     1       5.437   6.260  15.187  0.00  0.00    +0.000 A 
ENDBRANCH   1   8
BRANCH   3  11
ATOM     11  C   UNL     1       2.083   6.202  20.084  0.00  0.00    +0.000 C 
BRANCH  11  12
ATOM     12  C   UNL     1       1.551   4.806  19.978  0.00  0.00    +0.000 A 
ATOM     13  C   UNL     1       1.295   4.252  18.723  0.00  0.00    +0.000 A 
ATOM     14  C   UNL     1       1.276   2.877  18.598  0.00  0.00    +0.000 A 
ATOM     15  C   UNL     1       1.441   2.113  19.755  0.00  0.00    +0.000 A 
ATOM     16  N   UNL     1       1.527   2.629  20.995  0.00  0.00    +0.000 NA
ATOM     17  C   UNL     1       1.559   3.969  21.086  0.00  0.00    +0.000 A 
ENDBRANCH  11  12
ENDBRANCH   3  11
BRANCH   3  18
ATOM     18  C   UNL     1       2.703   7.975  18.333  0.00  0.00    +0.000 C 
BRANCH  18  19
ATOM     19  C   UNL     1       1.378   8.639  18.699  0.00  0.00    +0.000 A 
ATOM     20  C   UNL     1       0.346   8.600  17.833  0.00  0.00    +0.000 A 
ATOM     21  C   UNL     1      -0.755   9.545  17.904  0.00  0.00    +0.000 A 
ATOM     22  C   UNL     1      -1.502   9.765  16.754  0.00  0.00    +0.000 A 
ATOM     23  C   UNL     1      -2.457  10.775  16.726  0.00  0.00    +0.000 A 
ATOM     24  C   UNL     1      -3.151  11.077  15.429  0.00  0.00    +0.000 C 
ATOM     25  C   UNL     1      -2.708  11.514  17.896  0.00  0.00    +0.000 A 
ATOM     26  C   UNL     1      -1.966  11.288  19.069  0.00  0.00    +0.000 A 
ATOM     27  C   UNL     1      -0.957  10.328  19.039  0.00  0.00    +0.000 A 
ATOM     28  N   UNL     1      -0.010  10.134  20.057  0.00  0.00    +0.000 N 
ATOM     29  N   UNL     1      -0.035  10.706  21.273  0.00  0.00    +0.000 NA
ATOM     30  N   UNL     1       1.063  10.276  21.882  0.00  0.00    +0.000 NA
ATOM     31  N   UNL     1       1.818   9.472  21.052  0.00  0.00    +0.000 NA
ATOM     32  C   UNL     1       1.145   9.369  19.922  0.00  0.00    +0.000 A 
ENDBRANCH  18  19
ENDBRANCH   3  18
TORSDOF 5
ENDMDL
MODEL 5
REMARK VINA RESULT:      -7.1      2.413      4.026
REMARK  Name = 
REMARK  7 active torsions:
REMARK  status: ('A' for Active; 'I' for Inactive)
REMARK    1  A    between atoms: C_1  and  C_2
REMARK    2  A    between atoms: C_5  and  C_6
REMARK    3  A    between atoms: N_8  and  C_9
REMARK    4  A    between atoms: N_8  and  C_16
REMARK    5  A    between atoms: C_9  and  C_10
REMARK    6  A    between atoms: C_16  and  C_17
REMARK    7  A    between atoms: C_21  and  C_22
REMARK                            x       y       z     vdW  Elec       q    Type
REMARK                         _______ _______ _______ _____ _____    ______ ____
ROOT
ATOM      1  C   UNL     1       0.139  11.702  20.954  0.00  0.00    +0.000 C 
ATOM      2  O   UNL     1       1.252  11.700  21.492  0.00  0.00    +0.000 OA
ATOM      3  N   UNL     1      -0.039  11.093  19.691  0.00  0.00    +0.000 N 
ENDROOT
BRANCH   1   8
ATOM      4  C   UNL     1      -3.734  14.418  24.384  0.00  0.00    +0.000 C 
ATOM      5  C   UNL     1      -2.748  13.749  23.466  0.00  0.00    +0.000 A 
ATOM      6  C   UNL     1      -2.574  12.367  23.516  0.00  0.00    +0.000 A 
ATOM      7  C   UNL     1      -1.678  11.741  22.633  0.00  0.00    +0.000 A 
ATOM      8  C   UNL     1      -0.932  12.468  21.684  0.00  0.00    +0.000 A 
ATOM      9  C   UNL     1      -1.098  13.850  21.649  0.00  0.00    +0.000 A 
ATOM     10  C   UNL     1      -2.008  14.485  22.528  0.00  0.00    +0.000 A 
ENDBRANCH   1   8
BRANCH   3  11
ATOM     11  C   UNL     1       1.243  10.784  18.987  0.00  0.00    +0.000 C 
BRANCH  11  12
ATOM     12  C   UNL     1       1.495   9.311  18.892  0.00  0.00    +0.000 A 
ATOM     13  C   UNL     1       2.004   8.767  17.713  0.00  0.00    +0.000 A 
ATOM     14  C   UNL     1       2.667   7.556  17.776  0.00  0.00    +0.000 A 
ATOM     15  C   UNL     1       2.726   6.906  19.009  0.00  0.00    +0.000 A 
ATOM     16  N   UNL     1       2.101   7.336  20.120  0.00  0.00    +0.000 NA
ATOM     17  C   UNL     1       1.477   8.523  20.036  0.00  0.00    +0.000 A 
ENDBRANCH  11  12
ENDBRANCH   3  11
BRANCH   3  18
ATOM     18  C   UNL     1      -1.233  10.231  19.382  0.00  0.00    +0.000 C 
BRANCH  18  19
ATOM     19  C   UNL     1      -2.362  10.940  18.640  0.00  0.00    +0.000 A 
ATOM     20  C   UNL     1      -3.129  11.841  19.285  0.00  0.00    +0.000 A 
ATOM     21  C   UNL     1      -4.448  12.216  18.805  0.00  0.00    +0.000 A 
ATOM     22  C   UNL     1      -5.350  12.745  19.719  0.00  0.00    +0.000 A 
ATOM     23  C   UNL     1      -6.671  12.965  19.346  0.00  0.00    +0.000 A 
ATOM     24  C   UNL     1      -7.652  13.409  20.393  0.00  0.00    +0.000 C 
ATOM     25  C   UNL     1      -7.058  12.720  18.017  0.00  0.00    +0.000 A 
ATOM     26  C   UNL     1      -6.147  12.198  17.081  0.00  0.00    +0.000 A 
ATOM     27  C   UNL     1      -4.854  11.907  17.508  0.00  0.00    +0.000 A 
ATOM     28  N   UNL     1      -3.904  11.202  16.752  0.00  0.00    +0.000 N 
ATOM     29  N   UNL     1      -4.025  10.862  15.458  0.00  0.00    +0.000 NA
ATOM     30  N   UNL     1      -2.923  10.179  15.173  0.00  0.00    +0.000 NA
ATOM     31  N   UNL     1      -2.118  10.035  16.285  0.00  0.00    +0.000 NA
ATOM     32  C   UNL     1      -2.718  10.683  17.264  0.00  0.00    +0.000 A 
ENDBRANCH  18  19
ENDBRANCH   3  18
TORSDOF 5
ENDMDL
MODEL 6
REMARK VINA RESULT:      -7.1      0.659      1.275
REMARK  Name = 
REMARK  7 active torsions:
REMARK  status: ('A' for Active; 'I' for Inactive)
REMARK    1  A    between atoms: C_1  and  C_2
REMARK    2  A    between atoms: C_5  and  C_6
REMARK    3  A    between atoms: N_8  and  C_9
REMARK    4  A    between atoms: N_8  and  C_16
REMARK    5  A    between atoms: C_9  and  C_10
REMARK    6  A    between atoms: C_16  and  C_17
REMARK    7  A    between atoms: C_21  and  C_22
REMARK                            x       y       z     vdW  Elec       q    Type
REMARK                         _______ _______ _______ _____ _____    ______ ____
ROOT
ATOM      1  C   UNL     1      -0.021  12.862  21.101  0.00  0.00    +0.000 C 
ATOM      2  O   UNL     1       1.002  13.214  21.698  0.00  0.00    +0.000 OA
ATOM      3  N   UNL     1       0.017  12.619  19.709  0.00  0.00    +0.000 N 
ENDROOT
BRANCH   1   8
ATOM      4  C   UNL     1      -4.475  12.480  24.865  0.00  0.00    +0.000 C 
ATOM      5  C   UNL     1      -3.355  12.606  23.869  0.00  0.00    +0.000 A 
ATOM      6  C   UNL     1      -2.538  11.511  23.593  0.00  0.00    +0.000 A 
ATOM      7  C   UNL     1      -1.515  11.623  22.636  0.00  0.00    +0.000 A 
ATOM      8  C   UNL     1      -1.276  12.820  21.933  0.00  0.00    +0.000 A 
ATOM      9  C   UNL     1      -2.084  13.916  22.224  0.00  0.00    +0.000 A 
ATOM     10  C   UNL     1      -3.124  13.807  23.179  0.00  0.00    +0.000 A 
ENDBRANCH   1   8
BRANCH   3  11
ATOM     11  C   UNL     1       1.252  13.136  19.044  0.00  0.00    +0.000 C 
BRANCH  11  12
ATOM     12  C   UNL     1       1.108  14.563  18.615  0.00  0.00    +0.000 A 
ATOM     13  C   UNL     1      -0.158  15.146  18.548  0.00  0.00    +0.000 A 
ATOM     14  C   UNL     1      -0.259  16.521  18.628  0.00  0.00    +0.000 A 
ATOM     15  C   UNL     1       0.923  17.260  18.696  0.00  0.00    +0.000 A 
ATOM     16  N   UNL     1       2.154  16.727  18.598  0.00  0.00    +0.000 NA
ATOM     17  C   UNL     1       2.224  15.386  18.537  0.00  0.00    +0.000 A 
ENDBRANCH  11  12
ENDBRANCH   3  11
BRANCH   3  18
ATOM     18  C   UNL     1      -0.672  11.435  19.086  0.00  0.00    +0.000 C 
BRANCH  18  19
ATOM     19  C   UNL     1      -2.104  11.693  18.629  0.00  0.00    +0.000 A 
ATOM     20  C   UNL     1      -2.973  12.307  19.455  0.00  0.00    +0.000 A 
ATOM     21  C   UNL     1      -4.412  12.197  19.282  0.00  0.00    +0.000 A 
ATOM     22  C   UNL     1      -5.223  12.425  20.387  0.00  0.00    +0.000 A 
ATOM     23  C   UNL     1      -6.587  12.173  20.313  0.00  0.00    +0.000 A 
ATOM     24  C   UNL     1      -7.413  12.300  21.560  0.00  0.00    +0.000 C 
ATOM     25  C   UNL     1      -7.143  11.761  19.089  0.00  0.00    +0.000 A 
ATOM     26  C   UNL     1      -6.331  11.541  17.962  0.00  0.00    +0.000 A 
ATOM     27  C   UNL     1      -4.956  11.719  18.092  0.00  0.00    +0.000 A 
ATOM     28  N   UNL     1      -4.009  11.347  17.125  0.00  0.00    +0.000 N 
ATOM     29  N   UNL     1      -4.281  10.937  15.874  0.00  0.00    +0.000 NA
ATOM     30  N   UNL     1      -3.102  10.654  15.336  0.00  0.00    +0.000 NA
ATOM     31  N   UNL     1      -2.077  10.833  16.244  0.00  0.00    +0.000 NA
ATOM     32  C   UNL     1      -2.637  11.278  17.352  0.00  0.00    +0.000 A 
ENDBRANCH  18  19
ENDBRANCH   3  18
TORSDOF 5
ENDMDL
MODEL 7
REMARK VINA RESULT:      -7.1      3.661      5.443
REMARK  Name = 
REMARK  7 active torsions:
REMARK  status: ('A' for Active; 'I' for Inactive)
REMARK    1  A    between atoms: C_1  and  C_2
REMARK    2  A    between atoms: C_5  and  C_6
REMARK    3  A    between atoms: N_8  and  C_9
REMARK    4  A    between atoms: N_8  and  C_16
REMARK    5  A    between atoms: C_9  and  C_10
REMARK    6  A    between atoms: C_16  and  C_17
REMARK    7  A    between atoms: C_21  and  C_22
REMARK                            x       y       z     vdW  Elec       q    Type
REMARK                         _______ _______ _______ _____ _____    ______ ____
ROOT
ATOM      1  C   UNL     1       1.943   9.354  18.448  0.00  0.00    +0.000 C 
ATOM      2  O   UNL     1       2.196   9.421  17.240  0.00  0.00    +0.000 OA
ATOM      3  N   UNL     1       1.619  10.524  19.172  0.00  0.00    +0.000 N 
ENDROOT
BRANCH   1   8
ATOM      4  C   UNL     1       1.895   4.114  21.034  0.00  0.00    +0.000 C 
ATOM      5  C   UNL     1       1.947   5.450  20.346  0.00  0.00    +0.000 A 
ATOM      6  C   UNL     1       1.562   6.603  21.028  0.00  0.00    +0.000 A 
ATOM      7  C   UNL     1       1.645   7.854  20.393  0.00  0.00    +0.000 A 
ATOM      8  C   UNL     1       2.108   7.992  19.070  0.00  0.00    +0.000 A 
ATOM      9  C   UNL     1       2.476   6.836  18.387  0.00  0.00    +0.000 A 
ATOM     10  C   UNL     1       2.406   5.574  19.025  0.00  0.00    +0.000 A 
ENDBRANCH   1   8
BRANCH   3  11
ATOM     11  C   UNL     1       1.936  11.789  18.440  0.00  0.00    +0.000 C 
BRANCH  11  12
ATOM     12  C   UNL     1       1.695  13.004  19.281  0.00  0.00    +0.000 A 
ATOM     13  C   UNL     1       2.513  13.263  20.381  0.00  0.00    +0.000 A 
ATOM     14  C   UNL     1       2.608  14.562  20.843  0.00  0.00    +0.000 A 
ATOM     15  C   UNL     1       1.818  15.534  20.228  0.00  0.00    +0.000 A 
ATOM     16  N   UNL     1       0.904  15.274  19.275  0.00  0.00    +0.000 NA
ATOM     17  C   UNL     1       0.843  14.006  18.833  0.00  0.00    +0.000 A 
ENDBRANCH  11  12
ENDBRANCH   3  11
BRANCH   3  18
ATOM     18  C   UNL     1       0.498  10.557  20.175  0.00  0.00    +0.000 C 
BRANCH  18  19
ATOM     19  C   UNL     1      -0.898  10.696  19.575  0.00  0.00    +0.000 A 
ATOM     20  C   UNL     1      -1.240   9.967  18.495  0.00  0.00    +0.000 A 
ATOM     21  C   UNL     1      -2.341  10.345  17.626  0.00  0.00    +0.000 A 
ATOM     22  C   UNL     1      -2.341   9.865  16.323  0.00  0.00    +0.000 A 
ATOM     23  C   UNL     1      -3.280  10.328  15.409  0.00  0.00    +0.000 A 
ATOM     24  C   UNL     1      -3.169   9.893  13.977  0.00  0.00    +0.000 C 
ATOM     25  C   UNL     1      -4.272  11.226  15.842  0.00  0.00    +0.000 A 
ATOM     26  C   UNL     1      -4.288  11.707  17.163  0.00  0.00    +0.000 A 
ATOM     27  C   UNL     1      -3.282  11.290  18.032  0.00  0.00    +0.000 A 
ATOM     28  N   UNL     1      -3.052  11.834  19.304  0.00  0.00    +0.000 N 
ATOM     29  N   UNL     1      -3.857  12.696  19.948  0.00  0.00    +0.000 NA
ATOM     30  N   UNL     1      -3.233  12.971  21.087  0.00  0.00    +0.000 NA
ATOM     31  N   UNL     1      -2.012  12.331  21.160  0.00  0.00    +0.000 NA
ATOM     32  C   UNL     1      -1.904  11.611  20.060  0.00  0.00    +0.000 A 
ENDBRANCH  18  19
ENDBRANCH   3  18
TORSDOF 5
ENDMDL
MODEL 8
REMARK VINA RESULT:      -7.0      3.152      4.619
REMARK  Name = 
REMARK  7 active torsions:
REMARK  status: ('A' for Active; 'I' for Inactive)
REMARK    1  A    between atoms: C_1  and  C_2
REMARK    2  A    between atoms: C_5  and  C_6
REMARK    3  A    between atoms: N_8  and  C_9
REMARK    4  A    between atoms: N_8  and  C_16
REMARK    5  A    between atoms: C_9  and  C_10
REMARK    6  A    between atoms: C_16  and  C_17
REMARK    7  A    between atoms: C_21  and  C_22
REMARK                            x       y       z     vdW  Elec       q    Type
REMARK                         _______ _______ _______ _____ _____    ______ ____
ROOT
ATOM      1  C   UNL     1       1.378  10.073  18.502  0.00  0.00    +0.000 C 
ATOM      2  O   UNL     1       1.974  10.488  17.501  0.00  0.00    +0.000 OA
ATOM      3  N   UNL     1       0.548  10.943  19.245  0.00  0.00    +0.000 N 
ENDROOT
BRANCH   1   8
ATOM      4  C   UNL     1       3.240   4.695  19.824  0.00  0.00    +0.000 C 
ATOM      5  C   UNL     1       2.723   6.072  19.512  0.00  0.00    +0.000 A 
ATOM      6  C   UNL     1       2.857   6.594  18.226  0.00  0.00    +0.000 A 
ATOM      7  C   UNL     1       2.342   7.867  17.930  0.00  0.00    +0.000 A 
ATOM      8  C   UNL     1       1.687   8.654  18.897  0.00  0.00    +0.000 A 
ATOM      9  C   UNL     1       1.570   8.135  20.184  0.00  0.00    +0.000 A 
ATOM     10  C   UNL     1       2.077   6.848  20.487  0.00  0.00    +0.000 A 
ENDBRANCH   1   8
BRANCH   3  11
ATOM     11  C   UNL     1       0.739  12.387  18.909  0.00  0.00    +0.000 C 
BRANCH  11  12
ATOM     12  C   UNL     1       1.584  13.096  19.922  0.00  0.00    +0.000 A 
ATOM     13  C   UNL     1       2.760  13.732  19.525  0.00  0.00    +0.000 A 
ATOM     14  C   UNL     1       3.261  14.749  20.315  0.00  0.00    +0.000 A 
ATOM     15  C   UNL     1       2.600  15.034  21.510  0.00  0.00    +0.000 A 
ATOM     16  N   UNL     1       1.562  14.324  21.988  0.00  0.00    +0.000 NA
ATOM     17  C   UNL     1       1.084  13.351  21.193  0.00  0.00    +0.000 A 
ENDBRANCH  11  12
ENDBRANCH   3  11
BRANCH   3  18
ATOM     18  C   UNL     1      -0.801  10.515  19.756  0.00  0.00    +0.000 C 
BRANCH  18  19
ATOM     19  C   UNL     1      -1.990  11.083  18.987  0.00  0.00    +0.000 A 
ATOM     20  C   UNL     1      -2.783  12.007  19.563  0.00  0.00    +0.000 A 
ATOM     21  C   UNL     1      -4.135  12.262  19.096  0.00  0.00    +0.000 A 
ATOM     22  C   UNL     1      -5.035  12.839  19.984  0.00  0.00    +0.000 A 
ATOM     23  C   UNL     1      -6.377  12.951  19.640  0.00  0.00    +0.000 A 
ATOM     24  C   UNL     1      -7.346  13.453  20.671  0.00  0.00    +0.000 C 
ATOM     25  C   UNL     1      -6.793  12.547  18.359  0.00  0.00    +0.000 A 
ATOM     26  C   UNL     1      -5.886  11.975  17.449  0.00  0.00    +0.000 A 
ATOM     27  C   UNL     1      -4.565  11.796  17.856  0.00  0.00    +0.000 A 
ATOM     28  N   UNL     1      -3.604  11.064  17.142  0.00  0.00    +0.000 N 
ATOM     29  N   UNL     1      -3.747  10.584  15.895  0.00  0.00    +0.000 NA
ATOM     30  N   UNL     1      -2.620   9.930  15.642  0.00  0.00    +0.000 NA
ATOM     31  N   UNL     1      -1.773   9.946  16.732  0.00  0.00    +0.000 NA
ATOM     32  C   UNL     1      -2.375  10.663  17.660  0.00  0.00    +0.000 A 
ENDBRANCH  18  19
ENDBRANCH   3  18
TORSDOF 5
ENDMDL
MODEL 9
REMARK VINA RESULT:      -6.9      3.013      4.558
REMARK  Name = 
REMARK  7 active torsions:
REMARK  status: ('A' for Active; 'I' for Inactive)
REMARK    1  A    between atoms: C_1  and  C_2
REMARK    2  A    between atoms: C_5  and  C_6
REMARK    3  A    between atoms: N_8  and  C_9
REMARK    4  A    between atoms: N_8  and  C_16
REMARK    5  A    between atoms: C_9  and  C_10
REMARK    6  A    between atoms: C_16  and  C_17
REMARK    7  A    between atoms: C_21  and  C_22
REMARK                            x       y       z     vdW  Elec       q    Type
REMARK                         _______ _______ _______ _____ _____    ______ ____
ROOT
ATOM      1  C   UNL     1       1.240  10.189  18.374  0.00  0.00    +0.000 C 
ATOM      2  O   UNL     1       1.778  10.512  17.309  0.00  0.00    +0.000 OA
ATOM      3  N   UNL     1       0.460  11.128  19.088  0.00  0.00    +0.000 N 
ENDROOT
BRANCH   1   8
ATOM      4  C   UNL     1       3.161   4.947  20.098  0.00  0.00    +0.000 C 
ATOM      5  C   UNL     1       2.629   6.290  19.682  0.00  0.00    +0.000 A 
ATOM      6  C   UNL     1       2.796   6.733  18.371  0.00  0.00    +0.000 A 
ATOM      7  C   UNL     1       2.266   7.973  17.977  0.00  0.00    +0.000 A 
ATOM      8  C   UNL     1       1.563   8.805  18.870  0.00  0.00    +0.000 A 
ATOM      9  C   UNL     1       1.412   8.366  20.183  0.00  0.00    +0.000 A 
ATOM     10  C   UNL     1       1.933   7.112  20.584  0.00  0.00    +0.000 A 
ENDBRANCH   1   8
BRANCH   3  11
ATOM     11  C   UNL     1       0.639  12.536  18.621  0.00  0.00    +0.000 C 
BRANCH  11  12
ATOM     12  C   UNL     1       0.647  13.512  19.757  0.00  0.00    +0.000 A 
ATOM     13  C   UNL     1      -0.357  14.475  19.855  0.00  0.00    +0.000 A 
ATOM     14  C   UNL     1      -0.624  15.029  21.092  0.00  0.00    +0.000 A 
ATOM     15  C   UNL     1       0.180  14.647  22.167  0.00  0.00    +0.000 A 
ATOM     16  N   UNL     1       1.254  13.844  22.059  0.00  0.00    +0.000 NA
ATOM     17  C   UNL     1       1.482  13.307  20.848  0.00  0.00    +0.000 A 
ENDBRANCH  11  12
ENDBRANCH   3  11
BRANCH   3  18
ATOM     18  C   UNL     1      -0.858  10.759  19.712  0.00  0.00    +0.000 C 
BRANCH  18  19
ATOM     19  C   UNL     1      -2.088  11.246  18.952  0.00  0.00    +0.000 A 
ATOM     20  C   UNL     1      -2.925  12.132  19.525  0.00  0.00    +0.000 A 
ATOM     21  C   UNL     1      -4.296  12.302  19.074  0.00  0.00    +0.000 A 
ATOM     22  C   UNL     1      -5.216  12.840  19.965  0.00  0.00    +0.000 A 
ATOM     23  C   UNL     1      -6.566  12.870  19.638  0.00  0.00    +0.000 A 
ATOM     24  C   UNL     1      -7.549  13.331  20.675  0.00  0.00    +0.000 C 
ATOM     25  C   UNL     1      -6.975  12.423  18.369  0.00  0.00    +0.000 A 
ATOM     26  C   UNL     1      -6.048  11.890  17.456  0.00  0.00    +0.000 A 
ATOM     27  C   UNL     1      -4.714  11.793  17.846  0.00  0.00    +0.000 A 
ATOM     28  N   UNL     1      -3.722  11.107  17.130  0.00  0.00    +0.000 N 
ATOM     29  N   UNL     1      -3.854  10.599  15.892  0.00  0.00    +0.000 NA
ATOM     30  N   UNL     1      -2.695  10.007  15.633  0.00  0.00    +0.000 NA
ATOM     31  N   UNL     1      -1.836  10.089  16.711  0.00  0.00    +0.000 NA
ATOM     32  C   UNL     1      -2.466  10.784  17.636  0.00  0.00    +0.000 A 
ENDBRANCH  18  19
ENDBRANCH   3  18
TORSDOF 5
ENDMDL
