MODEL 1
REMARK VINA RESULT:      -7.5      0.000      0.000
REMARK  Name = 
REMARK  4 active torsions:
REMARK  status: ('A' for Active; 'I' for Inactive)
REMARK    1  A    between atoms: N_2  and  C_4
REMARK    2  A    between atoms: C_6  and  N_7
REMARK    3  A    between atoms: C_10  and  N_11
REMARK    4  A    between atoms: N_11  and  C_12
REMARK                            x       y       z     vdW  Elec       q    Type
REMARK                         _______ _______ _______ _____ _____    ______ ____
ROOT
ATOM      1  C   UNL     1       6.214   4.986  17.162  0.00  0.00    +0.000 A 
ATOM      2  C   UNL     1       5.181   4.044  17.229  0.00  0.00    +0.000 A 
ATOM      3  C   UNL     1       3.885   4.466  17.584  0.00  0.00    +0.000 A 
ATOM      4  C   UNL     1       3.622   5.826  17.880  0.00  0.00    +0.000 A 
ATOM      5  C   UNL     1       4.700   6.736  17.790  0.00  0.00    +0.000 A 
ATOM      6  C   UNL     1       5.993   6.329  17.441  0.00  0.00    +0.000 A 
ATOM      7 CL   UNL     1       7.233   7.528  17.420  0.00  0.00    +0.000 Cl
ENDROOT
BRANCH   1   9
ATOM      8  O   UNL     1       7.826   4.605  15.590  0.00  0.00    +0.000 OA
ATOM      9  N   UNL     1       7.530   4.520  16.789  0.00  0.00    +0.000 N 
ATOM     10  O   UNL     1       8.274   4.134  17.698  0.00  0.00    +0.000 OA
ENDBRANCH   1   9
BRANCH   3  11
ATOM     11  N   UNL     1       2.824   3.444  17.634  0.00  0.00    +0.000 N 
ATOM     12  O   UNL     1       1.735   3.724  17.115  0.00  0.00    +0.000 OA
ATOM     13  O   UNL     1       3.070   2.368  18.201  0.00  0.00    +0.000 OA
ENDBRANCH   3  11
BRANCH   4  14
ATOM     14  N   UNL     1       2.348   6.309  18.250  0.00  0.00    +0.000 N 
ATOM     15  H   UNL     1       1.668   5.585  18.508  0.00  0.00    +0.000 HD
BRANCH  14  16
ATOM     16  C   UNL     1       1.956   7.581  18.717  0.00  0.00    +0.000 A 
ATOM     17  C   UNL     1       1.726   7.755  20.089  0.00  0.00    +0.000 A 
ATOM     18  C   UNL     1       1.284   8.983  20.591  0.00  0.00    +0.000 A 
ATOM     19  C   UNL     1       1.082  10.052  19.722  0.00  0.00    +0.000 A 
ATOM     20 CL   UNL     1       0.529  11.562  20.331  0.00  0.00    +0.000 Cl
ATOM     21  C   UNL     1       1.324   9.903  18.359  0.00  0.00    +0.000 A 
ATOM     22  C   UNL     1       1.757   8.670  17.861  0.00  0.00    +0.000 A 
ENDBRANCH  14  16
ENDBRANCH   4  14
TORSDOF 4
ENDMDL
MODEL 2
REMARK VINA RESULT:      -7.3      0.473      1.048
REMARK  Name = 
REMARK  4 active torsions:
REMARK  status: ('A' for Active; 'I' for Inactive)
REMARK    1  A    between atoms: N_2  and  C_4
REMARK    2  A    between atoms: C_6  and  N_7
REMARK    3  A    between atoms: C_10  and  N_11
REMARK    4  A    between atoms: N_11  and  C_12
REMARK                            x       y       z     vdW  Elec       q    Type
REMARK                         _______ _______ _______ _____ _____    ______ ____
ROOT
ATOM      1  C   UNL     1       6.178   5.136  17.457  0.00  0.00    +0.000 A 
ATOM      2  C   UNL     1       5.128   4.226  17.634  0.00  0.00    +0.000 A 
ATOM      3  C   UNL     1       3.821   4.711  17.830  0.00  0.00    +0.000 A 
ATOM      4  C   UNL     1       3.561   6.103  17.858  0.00  0.00    +0.000 A 
ATOM      5  C   UNL     1       4.656   6.977  17.667  0.00  0.00    +0.000 A 
ATOM      6  C   UNL     1       5.961   6.509  17.474  0.00  0.00    +0.000 A 
ATOM      7 CL   UNL     1       7.217   7.678  17.307  0.00  0.00    +0.000 Cl
ENDROOT
BRANCH   1   9
ATOM      8  O   UNL     1       8.149   4.318  18.270  0.00  0.00    +0.000 OA
ATOM      9  N   UNL     1       7.506   4.604  17.252  0.00  0.00    +0.000 N 
ATOM     10  O   UNL     1       7.867   4.419  16.084  0.00  0.00    +0.000 OA
ENDBRANCH   1   9
BRANCH   3  11
ATOM     11  N   UNL     1       2.744   3.720  18.004  0.00  0.00    +0.000 N 
ATOM     12  O   UNL     1       2.853   2.915  18.939  0.00  0.00    +0.000 OA
ATOM     13  O   UNL     1       1.796   3.735  17.203  0.00  0.00    +0.000 OA
ENDBRANCH   3  11
BRANCH   4  14
ATOM     14  N   UNL     1       2.276   6.651  18.059  0.00  0.00    +0.000 N 
ATOM     15  H   UNL     1       1.500   5.991  17.938  0.00  0.00    +0.000 HD
BRANCH  14  16
ATOM     16  C   UNL     1       1.877   7.798  18.776  0.00  0.00    +0.000 A 
ATOM     17  C   UNL     1       1.727   7.707  20.167  0.00  0.00    +0.000 A 
ATOM     18  C   UNL     1       1.281   8.803  20.912  0.00  0.00    +0.000 A 
ATOM     19  C   UNL     1       0.994  10.004  20.271  0.00  0.00    +0.000 A 
ATOM     20 CL   UNL     1       0.435  11.352  21.181  0.00  0.00    +0.000 Cl
ATOM     21  C   UNL     1       1.154  10.119  18.893  0.00  0.00    +0.000 A 
ATOM     22  C   UNL     1       1.592   9.018  18.150  0.00  0.00    +0.000 A 
ENDBRANCH  14  16
ENDBRANCH   4  14
TORSDOF 4
ENDMDL
MODEL 3
REMARK VINA RESULT:      -7.3      0.627      1.372
REMARK  Name = 
REMARK  4 active torsions:
REMARK  status: ('A' for Active; 'I' for Inactive)
REMARK    1  A    between atoms: N_2  and  C_4
REMARK    2  A    between atoms: C_6  and  N_7
REMARK    3  A    between atoms: C_10  and  N_11
REMARK    4  A    between atoms: N_11  and  C_12
REMARK                            x       y       z     vdW  Elec       q    Type
REMARK                         _______ _______ _______ _____ _____    ______ ____
ROOT
ATOM      1  C   UNL     1       5.931   4.974  16.855  0.00  0.00    +0.000 A 
ATOM      2  C   UNL     1       4.803   4.146  16.911  0.00  0.00    +0.000 A 
ATOM      3  C   UNL     1       3.675   4.568  17.641  0.00  0.00    +0.000 A 
ATOM      4  C   UNL     1       3.675   5.810  18.322  0.00  0.00    +0.000 A 
ATOM      5  C   UNL     1       4.838   6.608  18.227  0.00  0.00    +0.000 A 
ATOM      6  C   UNL     1       5.967   6.201  17.506  0.00  0.00    +0.000 A 
ATOM      7 CL   UNL     1       7.341   7.242  17.512  0.00  0.00    +0.000 Cl
ENDROOT
BRANCH   1   9
ATOM      8  O   UNL     1       6.964   4.565  14.860  0.00  0.00    +0.000 OA
ATOM      9  N   UNL     1       7.069   4.514  16.091  0.00  0.00    +0.000 N 
ATOM     10  O   UNL     1       8.073   4.167  16.724  0.00  0.00    +0.000 OA
ENDBRANCH   1   9
BRANCH   3  11
ATOM     11  N   UNL     1       2.505   3.671  17.668  0.00  0.00    +0.000 N 
ATOM     12  O   UNL     1       2.695   2.494  18.000  0.00  0.00    +0.000 OA
ATOM     13  O   UNL     1       1.400   4.137  17.347  0.00  0.00    +0.000 OA
ENDBRANCH   3  11
BRANCH   4  14
ATOM     14  N   UNL     1       2.580   6.283  19.078  0.00  0.00    +0.000 N 
ATOM     15  H   UNL     1       2.358   5.729  19.912  0.00  0.00    +0.000 HD
BRANCH  14  16
ATOM     16  C   UNL     1       2.001   7.567  19.136  0.00  0.00    +0.000 A 
ATOM     17  C   UNL     1       1.904   8.318  17.956  0.00  0.00    +0.000 A 
ATOM     18  C   UNL     1       1.387   9.617  17.975  0.00  0.00    +0.000 A 
ATOM     19  C   UNL     1       0.951  10.170  19.175  0.00  0.00    +0.000 A 
ATOM     20 CL   UNL     1       0.323  11.772  19.207  0.00  0.00    +0.000 Cl
ATOM     21  C   UNL     1       1.022   9.433  20.354  0.00  0.00    +0.000 A 
ATOM     22  C   UNL     1       1.549   8.138  20.332  0.00  0.00    +0.000 A 
ENDBRANCH  14  16
ENDBRANCH   4  14
TORSDOF 4
ENDMDL
MODEL 4
REMARK VINA RESULT:      -7.2      3.213      4.442
REMARK  Name = 
REMARK  4 active torsions:
REMARK  status: ('A' for Active; 'I' for Inactive)
REMARK    1  A    between atoms: N_2  and  C_4
REMARK    2  A    between atoms: C_6  and  N_7
REMARK    3  A    between atoms: C_10  and  N_11
REMARK    4  A    between atoms: N_11  and  C_12
REMARK                            x       y       z     vdW  Elec       q    Type
REMARK                         _______ _______ _______ _____ _____    ______ ____
ROOT
ATOM      1  C   UNL     1       7.017   4.794  14.105  0.00  0.00    +0.000 A 
ATOM      2  C   UNL     1       7.567   5.196  15.328  0.00  0.00    +0.000 A 
ATOM      3  C   UNL     1       6.896   4.878  16.524  0.00  0.00    +0.000 A 
ATOM      4  C   UNL     1       5.671   4.167  16.501  0.00  0.00    +0.000 A 
ATOM      5  C   UNL     1       5.164   3.780  15.239  0.00  0.00    +0.000 A 
ATOM      6  C   UNL     1       5.819   4.091  14.042  0.00  0.00    +0.000 A 
ATOM      7 CL   UNL     1       5.069   3.609  12.567  0.00  0.00    +0.000 Cl
ENDROOT
BRANCH   1   9
ATOM      8  O   UNL     1       8.614   5.996  13.001  0.00  0.00    +0.000 OA
ATOM      9  N   UNL     1       7.735   5.131  12.897  0.00  0.00    +0.000 N 
ATOM     10  O   UNL     1       7.461   4.489  11.877  0.00  0.00    +0.000 OA
ENDBRANCH   1   9
BRANCH   3  11
ATOM     11  N   UNL     1       7.514   5.312  17.790  0.00  0.00    +0.000 N 
ATOM     12  O   UNL     1       7.636   6.530  17.979  0.00  0.00    +0.000 OA
ATOM     13  O   UNL     1       7.888   4.441  18.591  0.00  0.00    +0.000 OA
ENDBRANCH   3  11
BRANCH   4  14
ATOM     14  N   UNL     1       4.946   3.827  17.663  0.00  0.00    +0.000 N 
ATOM     15  H   UNL     1       5.337   3.047  18.204  0.00  0.00    +0.000 HD
BRANCH  14  16
ATOM     16  C   UNL     1       4.043   4.591  18.430  0.00  0.00    +0.000 A 
ATOM     17  C   UNL     1       3.742   5.897  18.015  0.00  0.00    +0.000 A 
ATOM     18  C   UNL     1       2.894   6.710  18.772  0.00  0.00    +0.000 A 
ATOM     19  C   UNL     1       2.330   6.219  19.945  0.00  0.00    +0.000 A 
ATOM     20 CL   UNL     1       1.294   7.219  20.887  0.00  0.00    +0.000 Cl
ATOM     21  C   UNL     1       2.602   4.919  20.363  0.00  0.00    +0.000 A 
ATOM     22  C   UNL     1       3.458   4.112  19.608  0.00  0.00    +0.000 A 
ENDBRANCH  14  16
ENDBRANCH   4  14
TORSDOF 4
ENDMDL
MODEL 5
REMARK VINA RESULT:      -7.2      0.340      1.105
REMARK  Name = 
REMARK  4 active torsions:
REMARK  status: ('A' for Active; 'I' for Inactive)
REMARK    1  A    between atoms: N_2  and  C_4
REMARK    2  A    between atoms: C_6  and  N_7
REMARK    3  A    between atoms: C_10  and  N_11
REMARK    4  A    between atoms: N_11  and  C_12
REMARK                            x       y       z     vdW  Elec       q    Type
REMARK                         _______ _______ _______ _____ _____    ______ ____
ROOT
ATOM      1  C   UNL     1       6.165   5.083  17.445  0.00  0.00    +0.000 A 
ATOM      2  C   UNL     1       5.119   4.164  17.589  0.00  0.00    +0.000 A 
ATOM      3  C   UNL     1       3.807   4.638  17.783  0.00  0.00    +0.000 A 
ATOM      4  C   UNL     1       3.540   6.027  17.842  0.00  0.00    +0.000 A 
ATOM      5  C   UNL     1       4.632   6.911  17.683  0.00  0.00    +0.000 A 
ATOM      6  C   UNL     1       5.941   6.454  17.492  0.00  0.00    +0.000 A 
ATOM      7 CL   UNL     1       7.193   7.633  17.366  0.00  0.00    +0.000 Cl
ENDROOT
BRANCH   1   9
ATOM      8  O   UNL     1       7.876   4.459  16.066  0.00  0.00    +0.000 OA
ATOM      9  N   UNL     1       7.498   4.562  17.240  0.00  0.00    +0.000 N 
ATOM     10  O   UNL     1       8.173   4.323  18.248  0.00  0.00    +0.000 OA
ENDBRANCH   1   9
BRANCH   3  11
ATOM     11  N   UNL     1       2.734   3.637  17.922  0.00  0.00    +0.000 N 
ATOM     12  O   UNL     1       1.745   3.753  17.185  0.00  0.00    +0.000 OA
ATOM     13  O   UNL     1       2.869   2.744  18.773  0.00  0.00    +0.000 OA
ENDBRANCH   3  11
BRANCH   4  14
ATOM     14  N   UNL     1       2.250   6.564  18.043  0.00  0.00    +0.000 N 
ATOM     15  H   UNL     1       1.484   5.882  17.990  0.00  0.00    +0.000 HD
BRANCH  14  16
ATOM     16  C   UNL     1       1.847   7.749  18.692  0.00  0.00    +0.000 A 
ATOM     17  C   UNL     1       1.641   8.903  17.922  0.00  0.00    +0.000 A 
ATOM     18  C   UNL     1       1.294  10.115  18.528  0.00  0.00    +0.000 A 
ATOM     19  C   UNL     1       1.139  10.178  19.910  0.00  0.00    +0.000 A 
ATOM     20 CL   UNL     1       0.723  11.668  20.661  0.00  0.00    +0.000 Cl
ATOM     21  C   UNL     1       1.321   9.038  20.688  0.00  0.00    +0.000 A 
ATOM     22  C   UNL     1       1.677   7.830  20.079  0.00  0.00    +0.000 A 
ENDBRANCH  14  16
ENDBRANCH   4  14
TORSDOF 4
ENDMDL
MODEL 6
REMARK VINA RESULT:      -7.2      0.972      1.047
REMARK  Name = 
REMARK  4 active torsions:
REMARK  status: ('A' for Active; 'I' for Inactive)
REMARK    1  A    between atoms: N_2  and  C_4
REMARK    2  A    between atoms: C_6  and  N_7
REMARK    3  A    between atoms: C_10  and  N_11
REMARK    4  A    between atoms: N_11  and  C_12
REMARK                            x       y       z     vdW  Elec       q    Type
REMARK                         _______ _______ _______ _____ _____    ______ ____
ROOT
ATOM      1  C   UNL     1       6.329   5.312  17.855  0.00  0.00    +0.000 A 
ATOM      2  C   UNL     1       5.202   4.538  18.153  0.00  0.00    +0.000 A 
ATOM      3  C   UNL     1       3.930   5.143  18.154  0.00  0.00    +0.000 A 
ATOM      4  C   UNL     1       3.783   6.522  17.866  0.00  0.00    +0.000 A 
ATOM      5  C   UNL     1       4.954   7.255  17.565  0.00  0.00    +0.000 A 
ATOM      6  C   UNL     1       6.224   6.667  17.563  0.00  0.00    +0.000 A 
ATOM      7 CL   UNL     1       7.578   7.683  17.233  0.00  0.00    +0.000 Cl
ENDROOT
BRANCH   1   9
ATOM      8  O   UNL     1       8.014   4.219  16.769  0.00  0.00    +0.000 OA
ATOM      9  N   UNL     1       7.618   4.658  17.856  0.00  0.00    +0.000 N 
ATOM     10  O   UNL     1       8.245   4.645  18.921  0.00  0.00    +0.000 OA
ENDBRANCH   1   9
BRANCH   3  11
ATOM     11  N   UNL     1       2.768   4.290  18.464  0.00  0.00    +0.000 N 
ATOM     12  O   UNL     1       1.794   4.352  17.702  0.00  0.00    +0.000 OA
ATOM     13  O   UNL     1       2.822   3.568  19.472  0.00  0.00    +0.000 OA
ENDBRANCH   3  11
BRANCH   4  14
ATOM     14  N   UNL     1       2.538   7.187  17.861  0.00  0.00    +0.000 N 
ATOM     15  H   UNL     1       1.830   6.776  17.243  0.00  0.00    +0.000 HD
BRANCH  14  16
ATOM     16  C   UNL     1       1.959   8.043  18.819  0.00  0.00    +0.000 A 
ATOM     17  C   UNL     1       1.860   7.602  20.147  0.00  0.00    +0.000 A 
ATOM     18  C   UNL     1       1.245   8.394  21.121  0.00  0.00    +0.000 A 
ATOM     19  C   UNL     1       0.734   9.643  20.775  0.00  0.00    +0.000 A 
ATOM     20 CL   UNL     1      -0.033  10.617  21.966  0.00  0.00    +0.000 Cl
ATOM     21  C   UNL     1       0.840  10.106  19.467  0.00  0.00    +0.000 A 
ATOM     22  C   UNL     1       1.448   9.306  18.494  0.00  0.00    +0.000 A 
ENDBRANCH  14  16
ENDBRANCH   4  14
TORSDOF 4
ENDMDL
MODEL 7
REMARK VINA RESULT:      -7.1      3.203      4.383
REMARK  Name = 
REMARK  4 active torsions:
REMARK  status: ('A' for Active; 'I' for Inactive)
REMARK    1  A    between atoms: N_2  and  C_4
REMARK    2  A    between atoms: C_6  and  N_7
REMARK    3  A    between atoms: C_10  and  N_11
REMARK    4  A    between atoms: N_11  and  C_12
REMARK                            x       y       z     vdW  Elec       q    Type
REMARK                         _______ _______ _______ _____ _____    ______ ____
ROOT
ATOM      1  C   UNL     1       7.045   4.800  14.056  0.00  0.00    +0.000 A 
ATOM      2  C   UNL     1       7.561   5.230  15.284  0.00  0.00    +0.000 A 
ATOM      3  C   UNL     1       6.864   4.925  16.470  0.00  0.00    +0.000 A 
ATOM      4  C   UNL     1       5.649   4.200  16.430  0.00  0.00    +0.000 A 
ATOM      5  C   UNL     1       5.176   3.784  15.163  0.00  0.00    +0.000 A 
ATOM      6  C   UNL     1       5.857   4.082  13.977  0.00  0.00    +0.000 A 
ATOM      7 CL   UNL     1       5.148   3.565  12.493  0.00  0.00    +0.000 Cl
ENDROOT
BRANCH   1   9
ATOM      8  O   UNL     1       8.700   5.952  12.984  0.00  0.00    +0.000 OA
ATOM      9  N   UNL     1       7.788   5.124  12.860  0.00  0.00    +0.000 N 
ATOM     10  O   UNL     1       7.499   4.506  11.829  0.00  0.00    +0.000 OA
ENDBRANCH   1   9
BRANCH   3  11
ATOM     11  N   UNL     1       7.446   5.389  17.742  0.00  0.00    +0.000 N 
ATOM     12  O   UNL     1       7.767   4.528  18.572  0.00  0.00    +0.000 OA
ATOM     13  O   UNL     1       7.574   6.611  17.920  0.00  0.00    +0.000 OA
ENDBRANCH   3  11
BRANCH   4  14
ATOM     14  N   UNL     1       4.900   3.872  17.581  0.00  0.00    +0.000 N 
ATOM     15  H   UNL     1       5.225   3.041  18.086  0.00  0.00    +0.000 HD
BRANCH  14  16
ATOM     16  C   UNL     1       4.064   4.676  18.383  0.00  0.00    +0.000 A 
ATOM     17  C   UNL     1       3.585   4.155  19.593  0.00  0.00    +0.000 A 
ATOM     18  C   UNL     1       2.711   4.895  20.395  0.00  0.00    +0.000 A 
ATOM     19  C   UNL     1       2.318   6.169  19.996  0.00  0.00    +0.000 A 
ATOM     20 CL   UNL     1       1.234   7.080  20.973  0.00  0.00    +0.000 Cl
ATOM     21  C   UNL     1       2.797   6.710  18.807  0.00  0.00    +0.000 A 
ATOM     22  C   UNL     1       3.665   5.963  18.003  0.00  0.00    +0.000 A 
ENDBRANCH  14  16
ENDBRANCH   4  14
TORSDOF 4
ENDMDL
MODEL 8
REMARK VINA RESULT:      -7.1      3.411      4.745
REMARK  Name = 
REMARK  4 active torsions:
REMARK  status: ('A' for Active; 'I' for Inactive)
REMARK    1  A    between atoms: N_2  and  C_4
REMARK    2  A    between atoms: C_6  and  N_7
REMARK    3  A    between atoms: C_10  and  N_11
REMARK    4  A    between atoms: N_11  and  C_12
REMARK                            x       y       z     vdW  Elec       q    Type
REMARK                         _______ _______ _______ _____ _____    ______ ____
ROOT
ATOM      1  C   UNL     1       1.895   4.017  18.894  0.00  0.00    +0.000 A 
ATOM      2  C   UNL     1       2.323   5.066  18.071  0.00  0.00    +0.000 A 
ATOM      3  C   UNL     1       2.457   6.358  18.615  0.00  0.00    +0.000 A 
ATOM      4  C   UNL     1       2.155   6.607  19.976  0.00  0.00    +0.000 A 
ATOM      5  C   UNL     1       1.733   5.511  20.763  0.00  0.00    +0.000 A 
ATOM      6  C   UNL     1       1.594   4.222  20.236  0.00  0.00    +0.000 A 
ATOM      7 CL   UNL     1       1.020   2.982  21.287  0.00  0.00    +0.000 Cl
ENDROOT
BRANCH   1   9
ATOM      8  O   UNL     1       0.634   2.230  18.238  0.00  0.00    +0.000 OA
ATOM      9  N   UNL     1       1.776   2.703  18.306  0.00  0.00    +0.000 N 
ATOM     10  O   UNL     1       2.808   2.185  17.864  0.00  0.00    +0.000 OA
ENDBRANCH   1   9
BRANCH   3  11
ATOM     11  N   UNL     1       2.918   7.432  17.717  0.00  0.00    +0.000 N 
ATOM     12  O   UNL     1       4.027   7.294  17.183  0.00  0.00    +0.000 OA
ATOM     13  O   UNL     1       2.183   8.418  17.552  0.00  0.00    +0.000 OA
ENDBRANCH   3  11
BRANCH   4  14
ATOM     14  N   UNL     1       2.259   7.880  20.577  0.00  0.00    +0.000 N 
ATOM     15  H   UNL     1       3.086   8.422  20.301  0.00  0.00    +0.000 HD
BRANCH  14  16
ATOM     16  C   UNL     1       1.267   8.700  21.152  0.00  0.00    +0.000 A 
ATOM     17  C   UNL     1       0.477   9.496  20.310  0.00  0.00    +0.000 A 
ATOM     18  C   UNL     1      -0.483  10.365  20.839  0.00  0.00    +0.000 A 
ATOM     19  C   UNL     1      -0.668  10.434  22.217  0.00  0.00    +0.000 A 
ATOM     20 CL   UNL     1      -1.839  11.508  22.874  0.00  0.00    +0.000 Cl
ATOM     21  C   UNL     1       0.094   9.637  23.067  0.00  0.00    +0.000 A 
ATOM     22  C   UNL     1       1.059   8.777  22.534  0.00  0.00    +0.000 A 
ENDBRANCH  14  16
ENDBRANCH   4  14
TORSDOF 4
ENDMDL
MODEL 9
REMARK VINA RESULT:      -7.0      0.848      1.532
REMARK  Name = 
REMARK  4 active torsions:
REMARK  status: ('A' for Active; 'I' for Inactive)
REMARK    1  A    between atoms: N_2  and  C_4
REMARK    2  A    between atoms: C_6  and  N_7
REMARK    3  A    between atoms: C_10  and  N_11
REMARK    4  A    between atoms: N_11  and  C_12
REMARK                            x       y       z     vdW  Elec       q    Type
REMARK                         _______ _______ _______ _____ _____    ______ ____
ROOT
ATOM      1  C   UNL     1       5.763   5.134  16.624  0.00  0.00    +0.000 A 
ATOM      2  C   UNL     1       4.617   4.342  16.768  0.00  0.00    +0.000 A 
ATOM      3  C   UNL     1       3.654   4.691  17.734  0.00  0.00    +0.000 A 
ATOM      4  C   UNL     1       3.837   5.825  18.562  0.00  0.00    +0.000 A 
ATOM      5  C   UNL     1       5.009   6.593  18.371  0.00  0.00    +0.000 A 
ATOM      6  C   UNL     1       5.975   6.256  17.416  0.00  0.00    +0.000 A 
ATOM      7 CL   UNL     1       7.385   7.244  17.318  0.00  0.00    +0.000 Cl
ENDROOT
BRANCH   1   9
ATOM      8  O   UNL     1       7.836   4.383  16.029  0.00  0.00    +0.000 OA
ATOM      9  N   UNL     1       6.727   4.751  15.619  0.00  0.00    +0.000 N 
ATOM     10  O   UNL     1       6.352   4.760  14.441  0.00  0.00    +0.000 OA
ENDBRANCH   1   9
BRANCH   3  11
ATOM     11  N   UNL     1       2.459   3.836  17.846  0.00  0.00    +0.000 N 
ATOM     12  O   UNL     1       1.383   4.301  17.446  0.00  0.00    +0.000 OA
ATOM     13  O   UNL     1       2.589   2.706  18.342  0.00  0.00    +0.000 OA
ENDBRANCH   3  11
BRANCH   4  14
ATOM     14  N   UNL     1       2.914   6.221  19.554  0.00  0.00    +0.000 N 
ATOM     15  H   UNL     1       3.051   5.784  20.472  0.00  0.00    +0.000 HD
BRANCH  14  16
ATOM     16  C   UNL     1       2.112   7.377  19.642  0.00  0.00    +0.000 A 
ATOM     17  C   UNL     1       1.981   8.196  18.511  0.00  0.00    +0.000 A 
ATOM     18  C   UNL     1       1.240   9.380  18.567  0.00  0.00    +0.000 A 
ATOM     19  C   UNL     1       0.613   9.748  19.754  0.00  0.00    +0.000 A 
ATOM     20 CL   UNL     1      -0.291  11.209  19.831  0.00  0.00    +0.000 Cl
ATOM     21  C   UNL     1       0.716   8.939  20.881  0.00  0.00    +0.000 A 
ATOM     22  C   UNL     1       1.465   7.759  20.824  0.00  0.00    +0.000 A 
ENDBRANCH  14  16
ENDBRANCH   4  14
TORSDOF 4
ENDMDL
