MODEL 1
REMARK VINA RESULT:      -8.4      0.000      0.000
REMARK  Name = 
REMARK  6 active torsions:
REMARK  status: ('A' for Active; 'I' for Inactive)
REMARK    1  A    between atoms: C_2  and  C_3
REMARK    2  A    between atoms: C_3  and  S_4
REMARK    3  A    between atoms: S_4  and  C_5
REMARK    4  A    between atoms: C_5  and  C_6
REMARK    5  A    between atoms: C_6  and  N_7
REMARK    6  A    between atoms: N_18  and  C_19
REMARK                            x       y       z     vdW  Elec       q    Type
REMARK                         _______ _______ _______ _____ _____    ______ ____
ROOT
ATOM      1  C   UNL     1       0.467   9.846  22.535  0.00  0.00    +0.000 C 
ENDROOT
BRANCH   1   3
ATOM      2  O   UNL     1      -0.649   7.959  21.606  0.00  0.00    +0.000 OA
ATOM      3  C   UNL     1       0.415   8.569  21.715  0.00  0.00    +0.000 C 
ATOM      4  N   UNL     1       1.633   8.174  21.179  0.00  0.00    +0.000 N 
ATOM      5  H   UNL     1       2.450   8.685  21.482  0.00  0.00    +0.000 HD
BRANCH   4   6
ATOM      6  C   UNL     1       1.845   7.077  20.314  0.00  0.00    +0.000 A 
ATOM      7  C   UNL     1       2.394   7.207  19.038  0.00  0.00    +0.000 A 
ATOM      8  C   UNL     1       2.533   6.094  18.202  0.00  0.00    +0.000 A 
ATOM      9  C   UNL     1       2.138   4.823  18.631  0.00  0.00    +0.000 A 
ATOM     10  C   UNL     1       2.253   3.707  17.787  0.00  0.00    +0.000 A 
ATOM     11  C   UNL     1       1.867   2.441  18.226  0.00  0.00    +0.000 A 
ATOM     12  C   UNL     1       1.361   2.278  19.511  0.00  0.00    +0.000 A 
ATOM     13  C   UNL     1       1.238   3.381  20.361  0.00  0.00    +0.000 A 
ATOM     14  C   UNL     1       1.620   4.665  19.935  0.00  0.00    +0.000 A 
ATOM     15  C   UNL     1       1.492   5.798  20.768  0.00  0.00    +0.000 A 
ENDBRANCH   4   6
ENDBRANCH   1   3
BRANCH   1  16
ATOM     16  S   UNL     1      -1.081  10.794  22.424  0.00  0.00    +0.000 S 
BRANCH  16  17
ATOM     17  C   UNL     1      -0.382  12.474  22.218  0.00  0.00    +0.000 C 
BRANCH  17  18
ATOM     18  C   UNL     1       0.197  12.610  20.809  0.00  0.00    +0.000 C 
BRANCH  18  19
ATOM     19  N   UNL     1      -0.701  12.075  19.802  0.00  0.00    +0.000 N 
ATOM     20  C   UNL     1      -1.999  12.477  19.653  0.00  0.00    +0.000 C 
ATOM     21  O   UNL     1      -2.619  13.313  20.278  0.00  0.00    +0.000 OA
ATOM     22  C   UNL     1      -2.562  11.674  18.569  0.00  0.00    +0.000 A 
ATOM     23  C   UNL     1      -3.826  11.688  18.016  0.00  0.00    +0.000 A 
ATOM     24  C   UNL     1      -4.082  10.776  16.988  0.00  0.00    +0.000 A 
ATOM     25  C   UNL     1      -3.082   9.884  16.548  0.00  0.00    +0.000 A 
ATOM     26  C   UNL     1      -1.809   9.887  17.130  0.00  0.00    +0.000 A 
ATOM     27  C   UNL     1      -1.579  10.800  18.141  0.00  0.00    +0.000 A 
ATOM     28  C   UNL     1      -0.385  11.051  18.950  0.00  0.00    +0.000 C 
ATOM     29  O   UNL     1       0.653  10.426  18.857  0.00  0.00    +0.000 OA
ENDBRANCH  18  19
ENDBRANCH  17  18
ENDBRANCH  16  17
ENDBRANCH   1  16
TORSDOF 6
ENDMDL
MODEL 2
REMARK VINA RESULT:      -8.4      6.918     10.246
REMARK  Name = 
REMARK  6 active torsions:
REMARK  status: ('A' for Active; 'I' for Inactive)
REMARK    1  A    between atoms: C_2  and  C_3
REMARK    2  A    between atoms: C_3  and  S_4
REMARK    3  A    between atoms: S_4  and  C_5
REMARK    4  A    between atoms: C_5  and  C_6
REMARK    5  A    between atoms: C_6  and  N_7
REMARK    6  A    between atoms: N_18  and  C_19
REMARK                            x       y       z     vdW  Elec       q    Type
REMARK                         _______ _______ _______ _____ _____    ______ ____
ROOT
ATOM      1  C   UNL     1       6.763   6.812  17.021  0.00  0.00    +0.000 C 
ENDROOT
BRANCH   1   3
ATOM      2  O   UNL     1       8.226   6.975  18.893  0.00  0.00    +0.000 OA
ATOM      3  C   UNL     1       7.707   7.563  17.945  0.00  0.00    +0.000 C 
ATOM      4  N   UNL     1       7.866   8.908  17.641  0.00  0.00    +0.000 N 
ATOM      5  H   UNL     1       7.256   9.290  16.933  0.00  0.00    +0.000 HD
BRANCH   4   6
ATOM      6  C   UNL     1       8.745   9.809  18.286  0.00  0.00    +0.000 A 
ATOM      7  C   UNL     1       8.959   9.809  19.664  0.00  0.00    +0.000 A 
ATOM      8  C   UNL     1       9.800  10.757  20.257  0.00  0.00    +0.000 A 
ATOM      9  C   UNL     1      10.456  11.717  19.481  0.00  0.00    +0.000 A 
ATOM     10  C   UNL     1      11.282  12.685  20.073  0.00  0.00    +0.000 A 
ATOM     11  C   UNL     1      11.942  13.632  19.291  0.00  0.00    +0.000 A 
ATOM     12  C   UNL     1      11.782  13.621  17.909  0.00  0.00    +0.000 A 
ATOM     13  C   UNL     1      10.960  12.665  17.306  0.00  0.00    +0.000 A 
ATOM     14  C   UNL     1      10.285  11.704  18.079  0.00  0.00    +0.000 A 
ATOM     15  C   UNL     1       9.437  10.737  17.496  0.00  0.00    +0.000 A 
ENDBRANCH   4   6
ENDBRANCH   1   3
BRANCH   1  16
ATOM     16  S   UNL     1       7.296   5.094  16.750  0.00  0.00    +0.000 S 
BRANCH  16  17
ATOM     17  C   UNL     1       5.675   4.344  16.347  0.00  0.00    +0.000 C 
BRANCH  17  18
ATOM     18  C   UNL     1       4.558   5.302  16.768  0.00  0.00    +0.000 C 
BRANCH  18  19
ATOM     19  N   UNL     1       3.721   4.733  17.808  0.00  0.00    +0.000 N 
ATOM     20  C   UNL     1       3.960   4.891  19.145  0.00  0.00    +0.000 C 
ATOM     21  O   UNL     1       4.850   5.507  19.697  0.00  0.00    +0.000 OA
ATOM     22  C   UNL     1       2.924   4.136  19.845  0.00  0.00    +0.000 A 
ATOM     23  C   UNL     1       2.702   3.973  21.198  0.00  0.00    +0.000 A 
ATOM     24  C   UNL     1       1.626   3.165  21.575  0.00  0.00    +0.000 A 
ATOM     25  C   UNL     1       0.813   2.545  20.603  0.00  0.00    +0.000 A 
ATOM     26  C   UNL     1       1.062   2.722  19.237  0.00  0.00    +0.000 A 
ATOM     27  C   UNL     1       2.129   3.530  18.889  0.00  0.00    +0.000 A 
ATOM     28  C   UNL     1       2.657   3.904  17.577  0.00  0.00    +0.000 C 
ATOM     29  O   UNL     1       2.211   3.509  16.517  0.00  0.00    +0.000 OA
ENDBRANCH  18  19
ENDBRANCH  17  18
ENDBRANCH  16  17
ENDBRANCH   1  16
TORSDOF 6
ENDMDL
MODEL 3
REMARK VINA RESULT:      -8.2      3.435      8.453
REMARK  Name = 
REMARK  6 active torsions:
REMARK  status: ('A' for Active; 'I' for Inactive)
REMARK    1  A    between atoms: C_2  and  C_3
REMARK    2  A    between atoms: C_3  and  S_4
REMARK    3  A    between atoms: S_4  and  C_5
REMARK    4  A    between atoms: C_5  and  C_6
REMARK    5  A    between atoms: C_6  and  N_7
REMARK    6  A    between atoms: N_18  and  C_19
REMARK                            x       y       z     vdW  Elec       q    Type
REMARK                         _______ _______ _______ _____ _____    ______ ____
ROOT
ATOM      1  C   UNL     1       3.294   7.147  17.359  0.00  0.00    +0.000 C 
ENDROOT
BRANCH   1   3
ATOM      2  O   UNL     1       2.790   6.622  19.626  0.00  0.00    +0.000 OA
ATOM      3  C   UNL     1       2.629   7.415  18.698  0.00  0.00    +0.000 C 
ATOM      4  N   UNL     1       1.835   8.553  18.734  0.00  0.00    +0.000 N 
ATOM      5  H   UNL     1       1.669   9.019  17.853  0.00  0.00    +0.000 HD
BRANCH   4   6
ATOM      6  C   UNL     1       1.176   9.072  19.871  0.00  0.00    +0.000 A 
ATOM      7  C   UNL     1       1.341   8.549  21.154  0.00  0.00    +0.000 A 
ATOM      8  C   UNL     1       0.624   9.067  22.237  0.00  0.00    +0.000 A 
ATOM      9  C   UNL     1      -0.266  10.132  22.061  0.00  0.00    +0.000 A 
ATOM     10  C   UNL     1      -1.006  10.640  23.140  0.00  0.00    +0.000 A 
ATOM     11  C   UNL     1      -1.883  11.709  22.960  0.00  0.00    +0.000 A 
ATOM     12  C   UNL     1      -2.030  12.279  21.699  0.00  0.00    +0.000 A 
ATOM     13  C   UNL     1      -1.302  11.781  20.615  0.00  0.00    +0.000 A 
ATOM     14  C   UNL     1      -0.414  10.702  20.778  0.00  0.00    +0.000 A 
ATOM     15  C   UNL     1       0.322  10.170  19.697  0.00  0.00    +0.000 A 
ENDBRANCH   4   6
ENDBRANCH   1   3
BRANCH   1  16
ATOM     16  S   UNL     1       4.963   6.450  17.552  0.00  0.00    +0.000 S 
BRANCH  16  17
ATOM     17  C   UNL     1       4.964   5.295  16.131  0.00  0.00    +0.000 C 
BRANCH  17  18
ATOM     18  C   UNL     1       5.103   3.862  16.647  0.00  0.00    +0.000 C 
BRANCH  18  19
ATOM     19  N   UNL     1       4.163   3.578  17.715  0.00  0.00    +0.000 N 
ATOM     20  C   UNL     1       2.814   3.461  17.527  0.00  0.00    +0.000 C 
ATOM     21  O   UNL     1       2.172   3.551  16.500  0.00  0.00    +0.000 OA
ATOM     22  C   UNL     1       2.229   3.218  18.844  0.00  0.00    +0.000 A 
ATOM     23  C   UNL     1       0.913   3.020  19.211  0.00  0.00    +0.000 A 
ATOM     24  C   UNL     1       0.652   2.828  20.571  0.00  0.00    +0.000 A 
ATOM     25  C   UNL     1       1.698   2.845  21.516  0.00  0.00    +0.000 A 
ATOM     26  C   UNL     1       3.025   3.053  21.119  0.00  0.00    +0.000 A 
ATOM     27  C   UNL     1       3.258   3.235  19.769  0.00  0.00    +0.000 A 
ATOM     28  C   UNL     1       4.501   3.484  19.039  0.00  0.00    +0.000 C 
ATOM     29  O   UNL     1       5.595   3.598  19.558  0.00  0.00    +0.000 OA
ENDBRANCH  18  19
ENDBRANCH  17  18
ENDBRANCH  16  17
ENDBRANCH   1  16
TORSDOF 6
ENDMDL
MODEL 4
REMARK VINA RESULT:      -8.2      4.248      8.420
REMARK  Name = 
REMARK  6 active torsions:
REMARK  status: ('A' for Active; 'I' for Inactive)
REMARK    1  A    between atoms: C_2  and  C_3
REMARK    2  A    between atoms: C_3  and  S_4
REMARK    3  A    between atoms: S_4  and  C_5
REMARK    4  A    between atoms: C_5  and  C_6
REMARK    5  A    between atoms: C_6  and  N_7
REMARK    6  A    between atoms: N_18  and  C_19
REMARK                            x       y       z     vdW  Elec       q    Type
REMARK                         _______ _______ _______ _____ _____    ______ ____
ROOT
ATOM      1  C   UNL     1       3.147   3.575  20.008  0.00  0.00    +0.000 C 
ENDROOT
BRANCH   1   3
ATOM      2  O   UNL     1       1.000   4.508  20.445  0.00  0.00    +0.000 OA
ATOM      3  C   UNL     1       2.168   4.730  20.124  0.00  0.00    +0.000 C 
ATOM      4  N   UNL     1       2.697   5.972  19.802  0.00  0.00    +0.000 N 
ATOM      5  H   UNL     1       3.624   5.983  19.403  0.00  0.00    +0.000 HD
BRANCH   4   6
ATOM      6  C   UNL     1       2.027   7.214  19.906  0.00  0.00    +0.000 A 
ATOM      7  C   UNL     1       1.984   8.145  18.869  0.00  0.00    +0.000 A 
ATOM      8  C   UNL     1       1.352   9.381  19.043  0.00  0.00    +0.000 A 
ATOM      9  C   UNL     1       0.737   9.705  20.257  0.00  0.00    +0.000 A 
ATOM     10  C   UNL     1       0.123  10.954  20.445  0.00  0.00    +0.000 A 
ATOM     11  C   UNL     1      -0.497  11.265  21.654  0.00  0.00    +0.000 A 
ATOM     12  C   UNL     1      -0.509  10.333  22.687  0.00  0.00    +0.000 A 
ATOM     13  C   UNL     1       0.102   9.088  22.514  0.00  0.00    +0.000 A 
ATOM     14  C   UNL     1       0.734   8.758  21.303  0.00  0.00    +0.000 A 
ATOM     15  C   UNL     1       1.371   7.512  21.108  0.00  0.00    +0.000 A 
ENDBRANCH   4   6
ENDBRANCH   1   3
BRANCH   1  16
ATOM     16  S   UNL     1       2.967   2.681  18.435  0.00  0.00    +0.000 S 
BRANCH  16  17
ATOM     17  C   UNL     1       3.045   4.101  17.281  0.00  0.00    +0.000 C 
BRANCH  17  18
ATOM     18  C   UNL     1       4.369   4.057  16.516  0.00  0.00    +0.000 C 
BRANCH  18  19
ATOM     19  N   UNL     1       5.314   5.039  17.015  0.00  0.00    +0.000 N 
ATOM     20  C   UNL     1       5.536   6.250  16.420  0.00  0.00    +0.000 C 
ATOM     21  O   UNL     1       5.016   6.724  15.430  0.00  0.00    +0.000 OA
ATOM     22  C   UNL     1       6.579   6.913  17.199  0.00  0.00    +0.000 A 
ATOM     23  C   UNL     1       7.162   8.153  17.033  0.00  0.00    +0.000 A 
ATOM     24  C   UNL     1       8.164   8.514  17.939  0.00  0.00    +0.000 A 
ATOM     25  C   UNL     1       8.554   7.635  18.971  0.00  0.00    +0.000 A 
ATOM     26  C   UNL     1       7.950   6.380  19.116  0.00  0.00    +0.000 A 
ATOM     27  C   UNL     1       6.959   6.049  18.211  0.00  0.00    +0.000 A 
ATOM     28  C   UNL     1       6.153   4.835  18.078  0.00  0.00    +0.000 C 
ATOM     29  O   UNL     1       6.262   3.854  18.788  0.00  0.00    +0.000 OA
ENDBRANCH  18  19
ENDBRANCH  17  18
ENDBRANCH  16  17
ENDBRANCH   1  16
TORSDOF 6
ENDMDL
MODEL 5
REMARK VINA RESULT:      -8.2      6.944     10.189
REMARK  Name = 
REMARK  6 active torsions:
REMARK  status: ('A' for Active; 'I' for Inactive)
REMARK    1  A    between atoms: C_2  and  C_3
REMARK    2  A    between atoms: C_3  and  S_4
REMARK    3  A    between atoms: S_4  and  C_5
REMARK    4  A    between atoms: C_5  and  C_6
REMARK    5  A    between atoms: C_6  and  N_7
REMARK    6  A    between atoms: N_18  and  C_19
REMARK                            x       y       z     vdW  Elec       q    Type
REMARK                         _______ _______ _______ _____ _____    ______ ____
ROOT
ATOM      1  C   UNL     1       7.600   6.868  18.109  0.00  0.00    +0.000 C 
ENDROOT
BRANCH   1   3
ATOM      2  O   UNL     1       7.451   9.070  17.214  0.00  0.00    +0.000 OA
ATOM      3  C   UNL     1       7.962   8.343  18.066  0.00  0.00    +0.000 C 
ATOM      4  N   UNL     1       8.906   8.735  19.004  0.00  0.00    +0.000 N 
ATOM      5  H   UNL     1       9.355   8.001  19.533  0.00  0.00    +0.000 HD
BRANCH   4   6
ATOM      6  C   UNL     1       9.354  10.057  19.232  0.00  0.00    +0.000 A 
ATOM      7  C   UNL     1       9.318  10.669  20.485  0.00  0.00    +0.000 A 
ATOM      8  C   UNL     1       9.725  11.998  20.644  0.00  0.00    +0.000 A 
ATOM      9  C   UNL     1      10.191  12.739  19.554  0.00  0.00    +0.000 A 
ATOM     10  C   UNL     1      10.578  14.080  19.703  0.00  0.00    +0.000 A 
ATOM     11  C   UNL     1      11.051  14.809  18.614  0.00  0.00    +0.000 A 
ATOM     12  C   UNL     1      11.142  14.206  17.363  0.00  0.00    +0.000 A 
ATOM     13  C   UNL     1      10.756  12.872  17.199  0.00  0.00    +0.000 A 
ATOM     14  C   UNL     1      10.275  12.122  18.286  0.00  0.00    +0.000 A 
ATOM     15  C   UNL     1       9.865  10.778  18.144  0.00  0.00    +0.000 A 
ENDBRANCH   4   6
ENDBRANCH   1   3
BRANCH   1  16
ATOM     16  S   UNL     1       7.332   6.181  16.447  0.00  0.00    +0.000 S 
BRANCH  16  17
ATOM     17  C   UNL     1       5.538   5.832  16.559  0.00  0.00    +0.000 C 
BRANCH  17  18
ATOM     18  C   UNL     1       4.976   6.485  17.824  0.00  0.00    +0.000 C 
BRANCH  18  19
ATOM     19  N   UNL     1       4.144   5.568  18.581  0.00  0.00    +0.000 N 
ATOM     20  C   UNL     1       2.808   5.760  18.799  0.00  0.00    +0.000 C 
ATOM     21  O   UNL     1       2.091   6.664  18.419  0.00  0.00    +0.000 OA
ATOM     22  C   UNL     1       2.357   4.646  19.631  0.00  0.00    +0.000 A 
ATOM     23  C   UNL     1       1.102   4.356  20.128  0.00  0.00    +0.000 A 
ATOM     24  C   UNL     1       0.979   3.214  20.923  0.00  0.00    +0.000 A 
ATOM     25  C   UNL     1       2.100   2.404  21.202  0.00  0.00    +0.000 A 
ATOM     26  C   UNL     1       3.364   2.723  20.691  0.00  0.00    +0.000 A 
ATOM     27  C   UNL     1       3.459   3.855  19.903  0.00  0.00    +0.000 A 
ATOM     28  C   UNL     1       4.612   4.462  19.238  0.00  0.00    +0.000 C 
ATOM     29  O   UNL     1       5.749   4.037  19.306  0.00  0.00    +0.000 OA
ENDBRANCH  18  19
ENDBRANCH  17  18
ENDBRANCH  16  17
ENDBRANCH   1  16
TORSDOF 6
ENDMDL
MODEL 6
REMARK VINA RESULT:      -8.1      3.531      8.272
REMARK  Name = 
REMARK  6 active torsions:
REMARK  status: ('A' for Active; 'I' for Inactive)
REMARK    1  A    between atoms: C_2  and  C_3
REMARK    2  A    between atoms: C_3  and  S_4
REMARK    3  A    between atoms: S_4  and  C_5
REMARK    4  A    between atoms: C_5  and  C_6
REMARK    5  A    between atoms: C_6  and  N_7
REMARK    6  A    between atoms: N_18  and  C_19
REMARK                            x       y       z     vdW  Elec       q    Type
REMARK                         _______ _______ _______ _____ _____    ______ ____
ROOT
ATOM      1  C   UNL     1       3.902   7.395  16.737  0.00  0.00    +0.000 C 
ENDROOT
BRANCH   1   3
ATOM      2  O   UNL     1       2.565   6.717  18.588  0.00  0.00    +0.000 OA
ATOM      3  C   UNL     1       2.867   7.633  17.823  0.00  0.00    +0.000 C 
ATOM      4  N   UNL     1       2.308   8.904  17.821  0.00  0.00    +0.000 N 
ATOM      5  H   UNL     1       2.536   9.500  17.039  0.00  0.00    +0.000 HD
BRANCH   4   6
ATOM      6  C   UNL     1       1.389   9.410  18.770  0.00  0.00    +0.000 A 
ATOM      7  C   UNL     1       0.381  10.318  18.446  0.00  0.00    +0.000 A 
ATOM      8  C   UNL     1      -0.468  10.827  19.433  0.00  0.00    +0.000 A 
ATOM      9  C   UNL     1      -0.335  10.428  20.767  0.00  0.00    +0.000 A 
ATOM     10  C   UNL     1      -1.169  10.954  21.766  0.00  0.00    +0.000 A 
ATOM     11  C   UNL     1      -1.037  10.543  23.091  0.00  0.00    +0.000 A 
ATOM     12  C   UNL     1      -0.070   9.602  23.432  0.00  0.00    +0.000 A 
ATOM     13  C   UNL     1       0.769   9.072  22.448  0.00  0.00    +0.000 A 
ATOM     14  C   UNL     1       0.652   9.477  21.107  0.00  0.00    +0.000 A 
ATOM     15  C   UNL     1       1.497   8.968  20.096  0.00  0.00    +0.000 A 
ENDBRANCH   4   6
ENDBRANCH   1   3
BRANCH   1  16
ATOM     16  S   UNL     1       5.236   6.292  17.295  0.00  0.00    +0.000 S 
BRANCH  16  17
ATOM     17  C   UNL     1       5.077   4.976  16.031  0.00  0.00    +0.000 C 
BRANCH  17  18
ATOM     18  C   UNL     1       5.215   3.610  16.706  0.00  0.00    +0.000 C 
BRANCH  18  19
ATOM     19  N   UNL     1       4.204   3.407  17.727  0.00  0.00    +0.000 N 
ATOM     20  C   UNL     1       2.867   3.301  17.461  0.00  0.00    +0.000 C 
ATOM     21  O   UNL     1       2.293   3.340  16.391  0.00  0.00    +0.000 OA
ATOM     22  C   UNL     1       2.196   3.148  18.749  0.00  0.00    +0.000 A 
ATOM     23  C   UNL     1       0.856   2.994  19.042  0.00  0.00    +0.000 A 
ATOM     24  C   UNL     1       0.506   2.889  20.391  0.00  0.00    +0.000 A 
ATOM     25  C   UNL     1       1.491   2.945  21.399  0.00  0.00    +0.000 A 
ATOM     26  C   UNL     1       2.844   3.107  21.076  0.00  0.00    +0.000 A 
ATOM     27  C   UNL     1       3.165   3.203  19.735  0.00  0.00    +0.000 A 
ATOM     28  C   UNL     1       4.457   3.387  19.073  0.00  0.00    +0.000 C 
ATOM     29  O   UNL     1       5.517   3.514  19.653  0.00  0.00    +0.000 OA
ENDBRANCH  18  19
ENDBRANCH  17  18
ENDBRANCH  16  17
ENDBRANCH   1  16
TORSDOF 6
ENDMDL
MODEL 7
REMARK VINA RESULT:      -8.0      7.148     10.580
REMARK  Name = 
REMARK  6 active torsions:
REMARK  status: ('A' for Active; 'I' for Inactive)
REMARK    1  A    between atoms: C_2  and  C_3
REMARK    2  A    between atoms: C_3  and  S_4
REMARK    3  A    between atoms: S_4  and  C_5
REMARK    4  A    between atoms: C_5  and  C_6
REMARK    5  A    between atoms: C_6  and  N_7
REMARK    6  A    between atoms: N_18  and  C_19
REMARK                            x       y       z     vdW  Elec       q    Type
REMARK                         _______ _______ _______ _____ _____    ______ ____
ROOT
ATOM      1  C   UNL     1       7.784   6.843  17.998  0.00  0.00    +0.000 C 
ENDROOT
BRANCH   1   3
ATOM      2  O   UNL     1       7.378   9.066  17.248  0.00  0.00    +0.000 OA
ATOM      3  C   UNL     1       8.005   8.345  18.024  0.00  0.00    +0.000 C 
ATOM      4  N   UNL     1       8.965   8.774  18.930  0.00  0.00    +0.000 N 
ATOM      5  H   UNL     1       9.512   8.058  19.387  0.00  0.00    +0.000 HD
BRANCH   4   6
ATOM      6  C   UNL     1       9.302  10.118  19.212  0.00  0.00    +0.000 A 
ATOM      7  C   UNL     1       9.203  10.678  20.486  0.00  0.00    +0.000 A 
ATOM      8  C   UNL     1       9.500  12.028  20.699  0.00  0.00    +0.000 A 
ATOM      9  C   UNL     1       9.916  12.845  19.643  0.00  0.00    +0.000 A 
ATOM     10  C   UNL     1      10.191  14.206  19.847  0.00  0.00    +0.000 A 
ATOM     11  C   UNL     1      10.616  15.012  18.791  0.00  0.00    +0.000 A 
ATOM     12  C   UNL     1      10.769  14.465  17.521  0.00  0.00    +0.000 A 
ATOM     13  C   UNL     1      10.494  13.112  17.303  0.00  0.00    +0.000 A 
ATOM     14  C   UNL     1      10.063  12.285  18.355  0.00  0.00    +0.000 A 
ATOM     15  C   UNL     1       9.765  10.919  18.159  0.00  0.00    +0.000 A 
ENDBRANCH   4   6
ENDBRANCH   1   3
BRANCH   1  16
ATOM     16  S   UNL     1       6.127   6.407  17.390  0.00  0.00    +0.000 S 
BRANCH  16  17
ATOM     17  C   UNL     1       6.346   4.597  17.214  0.00  0.00    +0.000 C 
BRANCH  17  18
ATOM     18  C   UNL     1       5.046   3.980  16.695  0.00  0.00    +0.000 C 
BRANCH  18  19
ATOM     19  N   UNL     1       4.103   3.723  17.768  0.00  0.00    +0.000 N 
ATOM     20  C   UNL     1       4.467   3.559  19.075  0.00  0.00    +0.000 C 
ATOM     21  O   UNL     1       5.574   3.605  19.574  0.00  0.00    +0.000 OA
ATOM     22  C   UNL     1       3.241   3.281  19.818  0.00  0.00    +0.000 A 
ATOM     23  C   UNL     1       3.049   3.048  21.165  0.00  0.00    +0.000 A 
ATOM     24  C   UNL     1       1.743   2.788  21.588  0.00  0.00    +0.000 A 
ATOM     25  C   UNL     1       0.676   2.763  20.665  0.00  0.00    +0.000 A 
ATOM     26  C   UNL     1       0.898   2.997  19.303  0.00  0.00    +0.000 A 
ATOM     27  C   UNL     1       2.197   3.257  18.910  0.00  0.00    +0.000 A 
ATOM     28  C   UNL     1       2.760   3.526  17.586  0.00  0.00    +0.000 C 
ATOM     29  O   UNL     1       2.118   3.539  16.554  0.00  0.00    +0.000 OA
ENDBRANCH  18  19
ENDBRANCH  17  18
ENDBRANCH  16  17
ENDBRANCH   1  16
TORSDOF 6
ENDMDL
MODEL 8
REMARK VINA RESULT:      -7.9      6.534      9.188
REMARK  Name = 
REMARK  6 active torsions:
REMARK  status: ('A' for Active; 'I' for Inactive)
REMARK    1  A    between atoms: C_2  and  C_3
REMARK    2  A    between atoms: C_3  and  S_4
REMARK    3  A    between atoms: S_4  and  C_5
REMARK    4  A    between atoms: C_5  and  C_6
REMARK    5  A    between atoms: C_6  and  N_7
REMARK    6  A    between atoms: N_18  and  C_19
REMARK                            x       y       z     vdW  Elec       q    Type
REMARK                         _______ _______ _______ _____ _____    ______ ____
ROOT
ATOM      1  C   UNL     1       7.846   6.122  18.613  0.00  0.00    +0.000 C 
ENDROOT
BRANCH   1   3
ATOM      2  O   UNL     1       7.605   7.841  16.982  0.00  0.00    +0.000 OA
ATOM      3  C   UNL     1       8.015   7.543  18.104  0.00  0.00    +0.000 C 
ATOM      4  N   UNL     1       8.683   8.394  18.974  0.00  0.00    +0.000 N 
ATOM      5  H   UNL     1       9.102   7.973  19.791  0.00  0.00    +0.000 HD
BRANCH   4   6
ATOM      6  C   UNL     1       8.898   9.779  18.782  0.00  0.00    +0.000 A 
ATOM      7  C   UNL     1       8.265  10.517  17.782  0.00  0.00    +0.000 A 
ATOM      8  C   UNL     1       8.554  11.874  17.603  0.00  0.00    +0.000 A 
ATOM      9  C   UNL     1       9.473  12.525  18.432  0.00  0.00    +0.000 A 
ATOM     10  C   UNL     1       9.785  13.881  18.241  0.00  0.00    +0.000 A 
ATOM     11  C   UNL     1      10.694  14.525  19.078  0.00  0.00    +0.000 A 
ATOM     12  C   UNL     1      11.302  13.822  20.113  0.00  0.00    +0.000 A 
ATOM     13  C   UNL     1      11.004  12.471  20.312  0.00  0.00    +0.000 A 
ATOM     14  C   UNL     1      10.091  11.804  19.477  0.00  0.00    +0.000 A 
ATOM     15  C   UNL     1       9.783  10.436  19.647  0.00  0.00    +0.000 A 
ENDBRANCH   4   6
ENDBRANCH   1   3
BRANCH   1  16
ATOM     16  S   UNL     1       6.581   5.208  17.679  0.00  0.00    +0.000 S 
BRANCH  16  17
ATOM     17  C   UNL     1       5.443   4.796  19.054  0.00  0.00    +0.000 C 
BRANCH  17  18
ATOM     18  C   UNL     1       4.017   4.684  18.512  0.00  0.00    +0.000 C 
BRANCH  18  19
ATOM     19  N   UNL     1       3.210   5.836  18.871  0.00  0.00    +0.000 N 
ATOM     20  C   UNL     1       3.130   6.972  18.115  0.00  0.00    +0.000 C 
ATOM     21  O   UNL     1       3.669   7.228  17.057  0.00  0.00    +0.000 OA
ATOM     22  C   UNL     1       2.258   7.894  18.839  0.00  0.00    +0.000 A 
ATOM     23  C   UNL     1       1.843   9.169  18.511  0.00  0.00    +0.000 A 
ATOM     24  C   UNL     1       1.011   9.823  19.424  0.00  0.00    +0.000 A 
ATOM     25  C   UNL     1       0.625   9.196  20.627  0.00  0.00    +0.000 A 
ATOM     26  C   UNL     1       1.065   7.904  20.939  0.00  0.00    +0.000 A 
ATOM     27  C   UNL     1       1.882   7.276  20.018  0.00  0.00    +0.000 A 
ATOM     28  C   UNL     1       2.511   5.955  20.043  0.00  0.00    +0.000 C 
ATOM     29  O   UNL     1       2.417   5.164  20.961  0.00  0.00    +0.000 OA
ENDBRANCH  18  19
ENDBRANCH  17  18
ENDBRANCH  16  17
ENDBRANCH   1  16
TORSDOF 6
ENDMDL
MODEL 9
REMARK VINA RESULT:      -7.9      2.163      3.435
REMARK  Name = 
REMARK  6 active torsions:
REMARK  status: ('A' for Active; 'I' for Inactive)
REMARK    1  A    between atoms: C_2  and  C_3
REMARK    2  A    between atoms: C_3  and  S_4
REMARK    3  A    between atoms: S_4  and  C_5
REMARK    4  A    between atoms: C_5  and  C_6
REMARK    5  A    between atoms: C_6  and  N_7
REMARK    6  A    between atoms: N_18  and  C_19
REMARK                            x       y       z     vdW  Elec       q    Type
REMARK                         _______ _______ _______ _____ _____    ______ ____
ROOT
ATOM      1  C   UNL     1       0.546   7.831  21.095  0.00  0.00    +0.000 C 
ENDROOT
BRANCH   1   3
ATOM      2  O   UNL     1       1.665   5.729  21.096  0.00  0.00    +0.000 OA
ATOM      3  C   UNL     1       1.447   6.773  20.482  0.00  0.00    +0.000 C 
ATOM      4  N   UNL     1       1.994   7.119  19.254  0.00  0.00    +0.000 N 
ATOM      5  H   UNL     1       1.855   8.070  18.946  0.00  0.00    +0.000 HD
BRANCH   4   6
ATOM      6  C   UNL     1       2.794   6.288  18.436  0.00  0.00    +0.000 A 
ATOM      7  C   UNL     1       2.405   5.010  18.036  0.00  0.00    +0.000 A 
ATOM      8  C   UNL     1       3.258   4.209  17.269  0.00  0.00    +0.000 A 
ATOM      9  C   UNL     1       4.514   4.678  16.872  0.00  0.00    +0.000 A 
ATOM     10  C   UNL     1       5.384   3.870  16.123  0.00  0.00    +0.000 A 
ATOM     11  C   UNL     1       6.630   4.348  15.722  0.00  0.00    +0.000 A 
ATOM     12  C   UNL     1       7.021   5.638  16.067  0.00  0.00    +0.000 A 
ATOM     13  C   UNL     1       6.167   6.452  16.817  0.00  0.00    +0.000 A 
ATOM     14  C   UNL     1       4.907   5.986  17.231  0.00  0.00    +0.000 A 
ATOM     15  C   UNL     1       4.032   6.782  18.001  0.00  0.00    +0.000 A 
ENDBRANCH   4   6
ENDBRANCH   1   3
BRANCH   1  16
ATOM     16  S   UNL     1       1.497   9.148  21.912  0.00  0.00    +0.000 S 
BRANCH  16  17
ATOM     17  C   UNL     1       0.294  10.520  21.752  0.00  0.00    +0.000 C 
BRANCH  17  18
ATOM     18  C   UNL     1       0.553  11.268  20.443  0.00  0.00    +0.000 C 
BRANCH  18  19
ATOM     19  N   UNL     1      -0.528  11.083  19.492  0.00  0.00    +0.000 N 
ATOM     20  C   UNL     1      -0.436  10.290  18.383  0.00  0.00    +0.000 C 
ATOM     21  O   UNL     1       0.498   9.614  17.999  0.00  0.00    +0.000 OA
ATOM     22  C   UNL     1      -1.710  10.410  17.677  0.00  0.00    +0.000 A 
ATOM     23  C   UNL     1      -2.141   9.812  16.510  0.00  0.00    +0.000 A 
ATOM     24  C   UNL     1      -3.424  10.139  16.062  0.00  0.00    +0.000 A 
ATOM     25  C   UNL     1      -4.229  11.048  16.779  0.00  0.00    +0.000 A 
ATOM     26  C   UNL     1      -3.766  11.646  17.958  0.00  0.00    +0.000 A 
ATOM     27  C   UNL     1      -2.497  11.302  18.383  0.00  0.00    +0.000 A 
ATOM     28  C   UNL     1      -1.725  11.747  19.544  0.00  0.00    +0.000 C 
ATOM     29  O   UNL     1      -2.110  12.566  20.355  0.00  0.00    +0.000 OA
ENDBRANCH  18  19
ENDBRANCH  17  18
ENDBRANCH  16  17
ENDBRANCH   1  16
TORSDOF 6
ENDMDL
