MODEL 1
REMARK VINA RESULT:      -7.7      0.000      0.000
REMARK  Name = 
REMARK  4 active torsions:
REMARK  status: ('A' for Active; 'I' for Inactive)
REMARK    1  A    between atoms: C_2  and  C_10
REMARK    2  A    between atoms: N_3  and  C_4
REMARK    3  A    between atoms: N_14  and  S_15
REMARK    4  A    between atoms: S_15  and  C_18
REMARK                            x       y       z     vdW  Elec       q    Type
REMARK                         _______ _______ _______ _____ _____    ______ ____
ROOT
ATOM      1  C   UNL     1       4.280   5.758  17.599  0.00  0.00    +0.000 C 
ATOM      2  C   UNL     1       5.545   6.430  18.131  0.00  0.00    +0.000 C 
ATOM      3  C   UNL     1       6.449   5.262  18.514  0.00  0.00    +0.000 C 
ATOM      4  C   UNL     1       7.295   4.699  17.353  0.00  0.00    +0.000 C 
ATOM      5  N   UNL     1       6.477   4.130  16.241  0.00  0.00    +0.000 NA
ATOM      6  C   UNL     1       5.155   3.554  16.648  0.00  0.00    +0.000 C 
ATOM      7  C   UNL     1       4.538   4.267  17.863  0.00  0.00    +0.000 C 
ATOM      8  O   UNL     1       5.518   4.249  18.927  0.00  0.00    +0.000 OA
ENDROOT
BRANCH   1  10
ATOM      9  O   UNL     1       2.158   5.448  18.695  0.00  0.00    +0.000 OA
ATOM     10  C   UNL     1       3.024   6.236  18.326  0.00  0.00    +0.000 C 
ATOM     11  N   UNL     1       2.947   7.617  18.446  0.00  0.00    +0.000 N 
ATOM     12  H   UNL     1       3.596   8.170  17.898  0.00  0.00    +0.000 HD
BRANCH  11  13
ATOM     13  C   UNL     1       1.922   8.330  19.119  0.00  0.00    +0.000 A 
ATOM     14  C   UNL     1       1.607   8.125  20.465  0.00  0.00    +0.000 A 
ATOM     15  C   UNL     1       0.573   8.840  21.077  0.00  0.00    +0.000 A 
ATOM     16  C   UNL     1      -0.155   9.774  20.348  0.00  0.00    +0.000 A 
ATOM     17  C   UNL     1       0.163  10.007  19.012  0.00  0.00    +0.000 A 
ATOM     18  C   UNL     1       1.205   9.298  18.402  0.00  0.00    +0.000 A 
ENDBRANCH  11  13
ENDBRANCH   1  10
BRANCH   5  19
ATOM     19  S   UNL     1       6.578   4.833  14.713  0.00  0.00    +0.000 S 
ATOM     20  O   UNL     1       5.459   5.741  14.573  0.00  0.00    +0.000 OA
ATOM     21  O   UNL     1       7.939   5.304  14.559  0.00  0.00    +0.000 OA
BRANCH  19  22
ATOM     22  C   UNL     1       6.369   3.505  13.481  0.00  0.00    +0.000 C 
ATOM     23  C   UNL     1       5.276   3.726  12.470  0.00  0.00    +0.000 C 
ATOM     24  C   UNL     1       6.715   3.899  12.066  0.00  0.00    +0.000 C 
ENDBRANCH  19  22
ENDBRANCH   5  19
TORSDOF 4
ENDMDL
MODEL 2
REMARK VINA RESULT:      -7.7      0.137      1.011
REMARK  Name = 
REMARK  4 active torsions:
REMARK  status: ('A' for Active; 'I' for Inactive)
REMARK    1  A    between atoms: C_2  and  C_10
REMARK    2  A    between atoms: N_3  and  C_4
REMARK    3  A    between atoms: N_14  and  S_15
REMARK    4  A    between atoms: S_15  and  C_18
REMARK                            x       y       z     vdW  Elec       q    Type
REMARK                         _______ _______ _______ _____ _____    ______ ____
ROOT
ATOM      1  C   UNL     1       4.196   5.819  17.472  0.00  0.00    +0.000 C 
ATOM      2  C   UNL     1       5.444   6.501  18.032  0.00  0.00    +0.000 C 
ATOM      3  C   UNL     1       6.335   5.340  18.460  0.00  0.00    +0.000 C 
ATOM      4  C   UNL     1       7.216   4.758  17.335  0.00  0.00    +0.000 C 
ATOM      5  N   UNL     1       6.432   4.170  16.209  0.00  0.00    +0.000 NA
ATOM      6  C   UNL     1       5.098   3.600  16.586  0.00  0.00    +0.000 C 
ATOM      7  C   UNL     1       4.445   4.333  17.770  0.00  0.00    +0.000 C 
ATOM      8  O   UNL     1       5.393   4.334  18.862  0.00  0.00    +0.000 OA
ENDROOT
BRANCH   1  10
ATOM      9  O   UNL     1       1.984   5.548  18.387  0.00  0.00    +0.000 OA
ATOM     10  C   UNL     1       2.917   6.309  18.153  0.00  0.00    +0.000 C 
ATOM     11  N   UNL     1       2.910   7.676  18.397  0.00  0.00    +0.000 N 
ATOM     12  H   UNL     1       3.628   8.234  17.948  0.00  0.00    +0.000 HD
BRANCH  11  13
ATOM     13  C   UNL     1       1.880   8.389  19.062  0.00  0.00    +0.000 A 
ATOM     14  C   UNL     1       1.099   9.363  18.436  0.00  0.00    +0.000 A 
ATOM     15  C   UNL     1       0.108  10.052  19.142  0.00  0.00    +0.000 A 
ATOM     16  C   UNL     1      -0.115   9.768  20.485  0.00  0.00    +0.000 A 
ATOM     17  C   UNL     1       0.639   8.782  21.116  0.00  0.00    +0.000 A 
ATOM     18  C   UNL     1       1.624   8.086  20.406  0.00  0.00    +0.000 A 
ENDBRANCH  11  13
ENDBRANCH   1  10
BRANCH   5  19
ATOM     19  S   UNL     1       6.579   4.847  14.673  0.00  0.00    +0.000 S 
ATOM     20  O   UNL     1       5.480   5.772  14.494  0.00  0.00    +0.000 OA
ATOM     21  O   UNL     1       7.951   5.293  14.543  0.00  0.00    +0.000 OA
BRANCH  19  22
ATOM     22  C   UNL     1       6.374   3.504  13.457  0.00  0.00    +0.000 C 
ATOM     23  C   UNL     1       5.292   3.717  12.433  0.00  0.00    +0.000 C 
ATOM     24  C   UNL     1       6.735   3.878  12.040  0.00  0.00    +0.000 C 
ENDBRANCH  19  22
ENDBRANCH   5  19
TORSDOF 4
ENDMDL
MODEL 3
REMARK VINA RESULT:      -7.5      2.981      4.832
REMARK  Name = 
REMARK  4 active torsions:
REMARK  status: ('A' for Active; 'I' for Inactive)
REMARK    1  A    between atoms: C_2  and  C_10
REMARK    2  A    between atoms: N_3  and  C_4
REMARK    3  A    between atoms: N_14  and  S_15
REMARK    4  A    between atoms: S_15  and  C_18
REMARK                            x       y       z     vdW  Elec       q    Type
REMARK                         _______ _______ _______ _____ _____    ______ ____
ROOT
ATOM      1  C   UNL     1       2.906   6.031  19.072  0.00  0.00    +0.000 C 
ATOM      2  C   UNL     1       2.487   5.421  17.736  0.00  0.00    +0.000 C 
ATOM      3  C   UNL     1       3.809   5.079  17.057  0.00  0.00    +0.000 C 
ATOM      4  C   UNL     1       4.393   3.704  17.446  0.00  0.00    +0.000 C 
ATOM      5  N   UNL     1       4.729   3.590  18.896  0.00  0.00    +0.000 NA
ATOM      6  C   UNL     1       5.127   4.869  19.565  0.00  0.00    +0.000 C 
ATOM      7  C   UNL     1       4.437   6.103  18.960  0.00  0.00    +0.000 C 
ATOM      8  O   UNL     1       4.698   6.099  17.537  0.00  0.00    +0.000 OA
ENDROOT
BRANCH   1  10
ATOM      9  O   UNL     1       2.401   8.298  18.435  0.00  0.00    +0.000 OA
ATOM     10  C   UNL     1       2.305   7.419  19.286  0.00  0.00    +0.000 C 
ATOM     11  N   UNL     1       1.726   7.584  20.538  0.00  0.00    +0.000 N 
ATOM     12  H   UNL     1       1.916   6.874  21.237  0.00  0.00    +0.000 HD
BRANCH  11  13
ATOM     13  C   UNL     1       1.049   8.747  20.987  0.00  0.00    +0.000 A 
ATOM     14  C   UNL     1       0.820   9.858  20.172  0.00  0.00    +0.000 A 
ATOM     15  C   UNL     1       0.165  10.989  20.670  0.00  0.00    +0.000 A 
ATOM     16  C   UNL     1      -0.274  11.017  21.989  0.00  0.00    +0.000 A 
ATOM     17  C   UNL     1      -0.075   9.907  22.806  0.00  0.00    +0.000 A 
ATOM     18  C   UNL     1       0.573   8.771  22.305  0.00  0.00    +0.000 A 
ENDBRANCH  11  13
ENDBRANCH   1  10
BRANCH   5  19
ATOM     19  S   UNL     1       3.920   2.445  19.832  0.00  0.00    +0.000 S 
ATOM     20  O   UNL     1       3.162   1.600  18.934  0.00  0.00    +0.000 OA
ATOM     21  O   UNL     1       4.900   1.876  20.735  0.00  0.00    +0.000 OA
BRANCH  19  22
ATOM     22  C   UNL     1       2.731   3.338  20.887  0.00  0.00    +0.000 C 
ATOM     23  C   UNL     1       1.281   3.156  20.524  0.00  0.00    +0.000 C 
ATOM     24  C   UNL     1       1.845   2.451  21.727  0.00  0.00    +0.000 C 
ENDBRANCH  19  22
ENDBRANCH   5  19
TORSDOF 4
ENDMDL
MODEL 4
REMARK VINA RESULT:      -7.5      2.955      4.696
REMARK  Name = 
REMARK  4 active torsions:
REMARK  status: ('A' for Active; 'I' for Inactive)
REMARK    1  A    between atoms: C_2  and  C_10
REMARK    2  A    between atoms: N_3  and  C_4
REMARK    3  A    between atoms: N_14  and  S_15
REMARK    4  A    between atoms: S_15  and  C_18
REMARK                            x       y       z     vdW  Elec       q    Type
REMARK                         _______ _______ _______ _____ _____    ______ ____
ROOT
ATOM      1  C   UNL     1       2.940   6.007  19.077  0.00  0.00    +0.000 C 
ATOM      2  C   UNL     1       2.516   5.411  17.735  0.00  0.00    +0.000 C 
ATOM      3  C   UNL     1       3.835   5.081  17.045  0.00  0.00    +0.000 C 
ATOM      4  C   UNL     1       4.425   3.704  17.415  0.00  0.00    +0.000 C 
ATOM      5  N   UNL     1       4.770   3.574  18.862  0.00  0.00    +0.000 NA
ATOM      6  C   UNL     1       5.167   4.847  19.544  0.00  0.00    +0.000 C 
ATOM      7  C   UNL     1       4.469   6.085  18.957  0.00  0.00    +0.000 C 
ATOM      8  O   UNL     1       4.723   6.099  17.533  0.00  0.00    +0.000 OA
ENDROOT
BRANCH   1  10
ATOM      9  O   UNL     1       2.472   8.297  18.494  0.00  0.00    +0.000 OA
ATOM     10  C   UNL     1       2.335   7.391  19.310  0.00  0.00    +0.000 C 
ATOM     11  N   UNL     1       1.702   7.517  20.540  0.00  0.00    +0.000 N 
ATOM     12  H   UNL     1       1.858   6.784  21.222  0.00  0.00    +0.000 HD
BRANCH  11  13
ATOM     13  C   UNL     1       1.011   8.668  20.996  0.00  0.00    +0.000 A 
ATOM     14  C   UNL     1       0.755   8.920  22.346  0.00  0.00    +0.000 A 
ATOM     15  C   UNL     1       0.051  10.061  22.743  0.00  0.00    +0.000 A 
ATOM     16  C   UNL     1      -0.400  10.968  21.790  0.00  0.00    +0.000 A 
ATOM     17  C   UNL     1      -0.132  10.743  20.442  0.00  0.00    +0.000 A 
ATOM     18  C   UNL     1       0.581   9.605  20.046  0.00  0.00    +0.000 A 
ENDBRANCH  11  13
ENDBRANCH   1  10
BRANCH   5  19
ATOM     19  S   UNL     1       3.969   2.416  19.788  0.00  0.00    +0.000 S 
ATOM     20  O   UNL     1       3.224   1.567  18.883  0.00  0.00    +0.000 OA
ATOM     21  O   UNL     1       4.950   1.854  20.693  0.00  0.00    +0.000 OA
BRANCH  19  22
ATOM     22  C   UNL     1       2.765   3.290  20.842  0.00  0.00    +0.000 C 
ATOM     23  C   UNL     1       1.318   3.074  20.487  0.00  0.00    +0.000 C 
ATOM     24  C   UNL     1       1.902   2.390  21.693  0.00  0.00    +0.000 C 
ENDBRANCH  19  22
ENDBRANCH   5  19
TORSDOF 4
ENDMDL
MODEL 5
REMARK VINA RESULT:      -7.5      2.416      3.421
REMARK  Name = 
REMARK  4 active torsions:
REMARK  status: ('A' for Active; 'I' for Inactive)
REMARK    1  A    between atoms: C_2  and  C_10
REMARK    2  A    between atoms: N_3  and  C_4
REMARK    3  A    between atoms: N_14  and  S_15
REMARK    4  A    between atoms: S_15  and  C_18
REMARK                            x       y       z     vdW  Elec       q    Type
REMARK                         _______ _______ _______ _____ _____    ______ ____
ROOT
ATOM      1  C   UNL     1       3.207   5.635  19.364  0.00  0.00    +0.000 C 
ATOM      2  C   UNL     1       3.215   4.122  19.575  0.00  0.00    +0.000 C 
ATOM      3  C   UNL     1       3.050   3.554  18.170  0.00  0.00    +0.000 C 
ATOM      4  C   UNL     1       4.366   3.402  17.380  0.00  0.00    +0.000 C 
ATOM      5  N   UNL     1       5.063   4.698  17.130  0.00  0.00    +0.000 NA
ATOM      6  C   UNL     1       4.169   5.895  17.012  0.00  0.00    +0.000 C 
ATOM      7  C   UNL     1       2.895   5.778  17.867  0.00  0.00    +0.000 C 
ATOM      8  O   UNL     1       2.239   4.539  17.511  0.00  0.00    +0.000 OA
ENDROOT
BRANCH   1  10
ATOM      9  O   UNL     1       1.372   5.694  20.924  0.00  0.00    +0.000 OA
ATOM     10  C   UNL     1       2.145   6.331  20.215  0.00  0.00    +0.000 C 
ATOM     11  N   UNL     1       2.112   7.708  20.040  0.00  0.00    +0.000 N 
ATOM     12  H   UNL     1       2.631   8.092  19.259  0.00  0.00    +0.000 HD
BRANCH  11  13
ATOM     13  C   UNL     1       1.266   8.608  20.738  0.00  0.00    +0.000 A 
ATOM     14  C   UNL     1       1.223   8.688  22.132  0.00  0.00    +0.000 A 
ATOM     15  C   UNL     1       0.356   9.579  22.773  0.00  0.00    +0.000 A 
ATOM     16  C   UNL     1      -0.474  10.404  22.024  0.00  0.00    +0.000 A 
ATOM     17  C   UNL     1      -0.425  10.353  20.633  0.00  0.00    +0.000 A 
ATOM     18  C   UNL     1       0.449   9.468  19.991  0.00  0.00    +0.000 A 
ENDBRANCH  11  13
ENDBRANCH   1  10
BRANCH   5  19
ATOM     19  S   UNL     1       6.596   4.940  17.787  0.00  0.00    +0.000 S 
ATOM     20  O   UNL     1       6.649   4.234  19.049  0.00  0.00    +0.000 OA
ATOM     21  O   UNL     1       7.550   4.651  16.736  0.00  0.00    +0.000 OA
BRANCH  19  22
ATOM     22  C   UNL     1       6.770   6.720  18.141  0.00  0.00    +0.000 C 
ATOM     23  C   UNL     1       8.152   7.170  18.532  0.00  0.00    +0.000 C 
ATOM     24  C   UNL     1       7.628   7.476  17.156  0.00  0.00    +0.000 C 
ENDBRANCH  19  22
ENDBRANCH   5  19
TORSDOF 4
ENDMDL
MODEL 6
REMARK VINA RESULT:      -7.4      3.008      7.389
REMARK  Name = 
REMARK  4 active torsions:
REMARK  status: ('A' for Active; 'I' for Inactive)
REMARK    1  A    between atoms: C_2  and  C_10
REMARK    2  A    between atoms: N_3  and  C_4
REMARK    3  A    between atoms: N_14  and  S_15
REMARK    4  A    between atoms: S_15  and  C_18
REMARK                            x       y       z     vdW  Elec       q    Type
REMARK                         _______ _______ _______ _____ _____    ______ ____
ROOT
ATOM      1  C   UNL     1       3.802   4.173  17.575  0.00  0.00    +0.000 C 
ATOM      2  C   UNL     1       2.543   3.507  17.020  0.00  0.00    +0.000 C 
ATOM      3  C   UNL     1       2.610   2.084  17.565  0.00  0.00    +0.000 C 
ATOM      4  C   UNL     1       2.020   1.910  18.980  0.00  0.00    +0.000 C 
ATOM      5  N   UNL     1       2.741   2.695  20.025  0.00  0.00    +0.000 NA
ATOM      6  C   UNL     1       4.199   2.922  19.766  0.00  0.00    +0.000 C 
ATOM      7  C   UNL     1       4.535   3.014  18.268  0.00  0.00    +0.000 C 
ATOM      8  O   UNL     1       4.021   1.824  17.628  0.00  0.00    +0.000 OA
ENDROOT
BRANCH   1  10
ATOM      9  O   UNL     1       4.889   5.992  16.429  0.00  0.00    +0.000 OA
ATOM     10  C   UNL     1       4.663   4.786  16.471  0.00  0.00    +0.000 C 
ATOM     11  N   UNL     1       5.081   3.864  15.520  0.00  0.00    +0.000 N 
ATOM     12  H   UNL     1       4.639   2.952  15.529  0.00  0.00    +0.000 HD
BRANCH  11  13
ATOM     13  C   UNL     1       5.932   4.143  14.420  0.00  0.00    +0.000 A 
ATOM     14  C   UNL     1       7.018   5.018  14.497  0.00  0.00    +0.000 A 
ATOM     15  C   UNL     1       7.814   5.275  13.377  0.00  0.00    +0.000 A 
ATOM     16  C   UNL     1       7.534   4.652  12.166  0.00  0.00    +0.000 A 
ATOM     17  C   UNL     1       6.470   3.758  12.079  0.00  0.00    +0.000 A 
ATOM     18  C   UNL     1       5.678   3.494  13.203  0.00  0.00    +0.000 A 
ENDBRANCH  11  13
ENDBRANCH   1  10
BRANCH   5  19
ATOM     19  S   UNL     1       1.907   3.898  20.860  0.00  0.00    +0.000 S 
ATOM     20  O   UNL     1       0.569   3.966  20.313  0.00  0.00    +0.000 OA
ATOM     21  O   UNL     1       2.119   3.651  22.272  0.00  0.00    +0.000 OA
BRANCH  19  22
ATOM     22  C   UNL     1       2.730   5.487  20.505  0.00  0.00    +0.000 C 
ATOM     23  C   UNL     1       2.143   6.279  19.368  0.00  0.00    +0.000 C 
ATOM     24  C   UNL     1       1.889   6.707  20.788  0.00  0.00    +0.000 C 
ENDBRANCH  19  22
ENDBRANCH   5  19
TORSDOF 4
ENDMDL
MODEL 7
REMARK VINA RESULT:      -7.3      2.439      3.558
REMARK  Name = 
REMARK  4 active torsions:
REMARK  status: ('A' for Active; 'I' for Inactive)
REMARK    1  A    between atoms: C_2  and  C_10
REMARK    2  A    between atoms: N_3  and  C_4
REMARK    3  A    between atoms: N_14  and  S_15
REMARK    4  A    between atoms: S_15  and  C_18
REMARK                            x       y       z     vdW  Elec       q    Type
REMARK                         _______ _______ _______ _____ _____    ______ ____
ROOT
ATOM      1  C   UNL     1       3.193   5.716  19.356  0.00  0.00    +0.000 C 
ATOM      2  C   UNL     1       3.215   4.210  19.611  0.00  0.00    +0.000 C 
ATOM      3  C   UNL     1       3.071   3.600  18.221  0.00  0.00    +0.000 C 
ATOM      4  C   UNL     1       4.398   3.441  17.449  0.00  0.00    +0.000 C 
ATOM      5  N   UNL     1       5.082   4.737  17.169  0.00  0.00    +0.000 NA
ATOM      6  C   UNL     1       4.176   5.920  17.007  0.00  0.00    +0.000 C 
ATOM      7  C   UNL     1       2.895   5.813  17.852  0.00  0.00    +0.000 C 
ATOM      8  O   UNL     1       2.257   4.557  17.526  0.00  0.00    +0.000 OA
ENDROOT
BRANCH   1  10
ATOM      9  O   UNL     1       1.352   5.800  20.907  0.00  0.00    +0.000 OA
ATOM     10  C   UNL     1       2.114   6.424  20.176  0.00  0.00    +0.000 C 
ATOM     11  N   UNL     1       2.055   7.792  19.947  0.00  0.00    +0.000 N 
ATOM     12  H   UNL     1       2.570   8.155  19.153  0.00  0.00    +0.000 HD
BRANCH  11  13
ATOM     13  C   UNL     1       1.190   8.702  20.607  0.00  0.00    +0.000 A 
ATOM     14  C   UNL     1       0.343   9.581  19.928  0.00  0.00    +0.000 A 
ATOM     15  C   UNL     1      -0.477  10.472  20.627  0.00  0.00    +0.000 A 
ATOM     16  C   UNL     1      -0.462  10.488  22.017  0.00  0.00    +0.000 A 
ATOM     17  C   UNL     1       0.358   9.601  22.709  0.00  0.00    +0.000 A 
ATOM     18  C   UNL     1       1.172   8.702  22.009  0.00  0.00    +0.000 A 
ENDBRANCH  11  13
ENDBRANCH   1  10
BRANCH   5  19
ATOM     19  S   UNL     1       6.606   5.015  17.834  0.00  0.00    +0.000 S 
ATOM     20  O   UNL     1       6.642   4.375  19.131  0.00  0.00    +0.000 OA
ATOM     21  O   UNL     1       7.575   4.674  16.812  0.00  0.00    +0.000 OA
BRANCH  19  22
ATOM     22  C   UNL     1       6.773   6.811  18.098  0.00  0.00    +0.000 C 
ATOM     23  C   UNL     1       8.152   7.284  18.471  0.00  0.00    +0.000 C 
ATOM     24  C   UNL     1       7.632   7.520  17.080  0.00  0.00    +0.000 C 
ENDBRANCH  19  22
ENDBRANCH   5  19
TORSDOF 4
ENDMDL
MODEL 8
REMARK VINA RESULT:      -7.3      3.025      7.396
REMARK  Name = 
REMARK  4 active torsions:
REMARK  status: ('A' for Active; 'I' for Inactive)
REMARK    1  A    between atoms: C_2  and  C_10
REMARK    2  A    between atoms: N_3  and  C_4
REMARK    3  A    between atoms: N_14  and  S_15
REMARK    4  A    between atoms: S_15  and  C_18
REMARK                            x       y       z     vdW  Elec       q    Type
REMARK                         _______ _______ _______ _____ _____    ______ ____
ROOT
ATOM      1  C   UNL     1       3.745   4.163  17.571  0.00  0.00    +0.000 C 
ATOM      2  C   UNL     1       2.486   3.472  17.049  0.00  0.00    +0.000 C 
ATOM      3  C   UNL     1       2.586   2.056  17.608  0.00  0.00    +0.000 C 
ATOM      4  C   UNL     1       2.028   1.889  19.037  0.00  0.00    +0.000 C 
ATOM      5  N   UNL     1       2.757   2.697  20.058  0.00  0.00    +0.000 NA
ATOM      6  C   UNL     1       4.206   2.943  19.767  0.00  0.00    +0.000 C 
ATOM      7  C   UNL     1       4.510   3.024  18.261  0.00  0.00    +0.000 C 
ATOM      8  O   UNL     1       4.001   1.818  17.645  0.00  0.00    +0.000 OA
ENDROOT
BRANCH   1  10
ATOM      9  O   UNL     1       4.726   5.991  16.346  0.00  0.00    +0.000 OA
ATOM     10  C   UNL     1       4.574   4.777  16.443  0.00  0.00    +0.000 C 
ATOM     11  N   UNL     1       5.053   3.840  15.537  0.00  0.00    +0.000 N 
ATOM     12  H   UNL     1       4.668   2.904  15.586  0.00  0.00    +0.000 HD
BRANCH  11  13
ATOM     13  C   UNL     1       5.892   4.120  14.428  0.00  0.00    +0.000 A 
ATOM     14  C   UNL     1       5.685   3.577  13.158  0.00  0.00    +0.000 A 
ATOM     15  C   UNL     1       6.554   3.869  12.102  0.00  0.00    +0.000 A 
ATOM     16  C   UNL     1       7.638   4.716  12.306  0.00  0.00    +0.000 A 
ATOM     17  C   UNL     1       7.843   5.286  13.560  0.00  0.00    +0.000 A 
ATOM     18  C   UNL     1       6.968   5.000  14.614  0.00  0.00    +0.000 A 
ENDBRANCH  11  13
ENDBRANCH   1  10
BRANCH   5  19
ATOM     19  S   UNL     1       1.921   3.896  20.897  0.00  0.00    +0.000 S 
ATOM     20  O   UNL     1       0.584   3.964  20.349  0.00  0.00    +0.000 OA
ATOM     21  O   UNL     1       2.133   3.644  22.308  0.00  0.00    +0.000 OA
BRANCH  19  22
ATOM     22  C   UNL     1       2.743   5.486  20.548  0.00  0.00    +0.000 C 
ATOM     23  C   UNL     1       2.188   6.258  19.380  0.00  0.00    +0.000 C 
ATOM     24  C   UNL     1       1.883   6.704  20.784  0.00  0.00    +0.000 C 
ENDBRANCH  19  22
ENDBRANCH   5  19
TORSDOF 4
ENDMDL
MODEL 9
REMARK VINA RESULT:      -7.2      3.022      4.829
REMARK  Name = 
REMARK  4 active torsions:
REMARK  status: ('A' for Active; 'I' for Inactive)
REMARK    1  A    between atoms: C_2  and  C_10
REMARK    2  A    between atoms: N_3  and  C_4
REMARK    3  A    between atoms: N_14  and  S_15
REMARK    4  A    between atoms: S_15  and  C_18
REMARK                            x       y       z     vdW  Elec       q    Type
REMARK                         _______ _______ _______ _____ _____    ______ ____
ROOT
ATOM      1  C   UNL     1       2.749   6.133  19.230  0.00  0.00    +0.000 C 
ATOM      2  C   UNL     1       2.257   5.591  17.889  0.00  0.00    +0.000 C 
ATOM      3  C   UNL     1       3.540   5.305  17.115  0.00  0.00    +0.000 C 
ATOM      4  C   UNL     1       4.161   3.920  17.392  0.00  0.00    +0.000 C 
ATOM      5  N   UNL     1       4.585   3.732  18.811  0.00  0.00    +0.000 NA
ATOM      6  C   UNL     1       5.008   4.979  19.526  0.00  0.00    +0.000 C 
ATOM      7  C   UNL     1       4.269   6.233  19.031  0.00  0.00    +0.000 C 
ATOM      8  O   UNL     1       4.445   6.310  17.598  0.00  0.00    +0.000 OA
ENDROOT
BRANCH   1  10
ATOM      9  O   UNL     1       1.802   7.793  20.696  0.00  0.00    +0.000 OA
ATOM     10  C   UNL     1       2.146   7.499  19.556  0.00  0.00    +0.000 C 
ATOM     11  N   UNL     1       1.974   8.307  18.439  0.00  0.00    +0.000 N 
ATOM     12  H   UNL     1       2.072   7.872  17.529  0.00  0.00    +0.000 HD
BRANCH  11  13
ATOM     13  C   UNL     1       1.487   9.639  18.453  0.00  0.00    +0.000 A 
ATOM     14  C   UNL     1       2.315  10.756  18.309  0.00  0.00    +0.000 A 
ATOM     15  C   UNL     1       1.787  12.050  18.351  0.00  0.00    +0.000 A 
ATOM     16  C   UNL     1       0.422  12.241  18.530  0.00  0.00    +0.000 A 
ATOM     17  C   UNL     1      -0.419  11.137  18.650  0.00  0.00    +0.000 A 
ATOM     18  C   UNL     1       0.108   9.842  18.600  0.00  0.00    +0.000 A 
ENDBRANCH  11  13
ENDBRANCH   1  10
BRANCH   5  19
ATOM     19  S   UNL     1       3.846   2.527  19.729  0.00  0.00    +0.000 S 
ATOM     20  O   UNL     1       3.072   1.700  18.827  0.00  0.00    +0.000 OA
ATOM     21  O   UNL     1       4.878   1.947  20.565  0.00  0.00    +0.000 OA
BRANCH  19  22
ATOM     22  C   UNL     1       2.681   3.341  20.871  0.00  0.00    +0.000 C 
ATOM     23  C   UNL     1       1.222   3.134  20.562  0.00  0.00    +0.000 C 
ATOM     24  C   UNL     1       1.855   2.394  21.708  0.00  0.00    +0.000 C 
ENDBRANCH  19  22
ENDBRANCH   5  19
TORSDOF 4
ENDMDL
