MODEL 1
REMARK VINA RESULT:      -7.3      0.000      0.000
REMARK  Name = 
REMARK  3 active torsions:
REMARK  status: ('A' for Active; 'I' for Inactive)
REMARK    1  A    between atoms: C_1  and  C_2
REMARK    2  A    between atoms: C_5  and  C_7
REMARK    3  A    between atoms: C_7  and  N_8
REMARK                            x       y       z     vdW  Elec       q    Type
REMARK                         _______ _______ _______ _____ _____    ______ ____
ROOT
ATOM      1  N   UNL     1       6.053   4.764  16.582  0.00  0.00    +0.000 N 
ATOM      2  C   UNL     1       7.013   5.430  15.864  0.00  0.00    +0.000 C 
ATOM      3  O   UNL     1       7.776   6.305  16.217  0.00  0.00    +0.000 OA
ATOM      4  C   UNL     1       6.929   4.925  14.494  0.00  0.00    +0.000 A 
ATOM      5  C   UNL     1       7.691   5.211  13.377  0.00  0.00    +0.000 A 
ATOM      6  C   UNL     1       7.386   4.515  12.200  0.00  0.00    +0.000 A 
ATOM      7  C   UNL     1       6.338   3.570  12.166  0.00  0.00    +0.000 A 
ATOM      8  C   UNL     1       5.564   3.322  13.300  0.00  0.00    +0.000 A 
ATOM      9  C   UNL     1       5.889   4.021  14.447  0.00  0.00    +0.000 A 
ATOM     10  C   UNL     1       5.275   3.991  15.770  0.00  0.00    +0.000 C 
ATOM     11  O   UNL     1       4.236   3.408  16.008  0.00  0.00    +0.000 OA
ENDROOT
BRANCH   1  12
ATOM     12  C   UNL     1       5.803   4.990  17.993  0.00  0.00    +0.000 C 
BRANCH  12  17
ATOM     13  C   UNL     1       2.302   2.978  21.418  0.00  0.00    +0.000 C 
ATOM     14  C   UNL     1       2.687   4.346  20.871  0.00  0.00    +0.000 C 
ATOM     15  C   UNL     1       3.248   4.228  19.441  0.00  0.00    +0.000 C 
ATOM     16  N   UNL     1       3.501   5.555  18.876  0.00  0.00    +0.000 N 
ATOM     17  C   UNL     1       4.639   5.973  18.202  0.00  0.00    +0.000 C 
ATOM     18  O   UNL     1       4.750   7.139  17.810  0.00  0.00    +0.000 OA
ATOM     19  C   UNL     1       2.338   6.446  18.966  0.00  0.00    +0.000 C 
ATOM     20  C   UNL     1       1.799   6.492  20.398  0.00  0.00    +0.000 C 
ATOM     21  O   UNL     1       1.506   5.171  20.883  0.00  0.00    +0.000 OA
ENDBRANCH  12  17
ENDBRANCH   1  12
TORSDOF 2
ENDMDL
MODEL 2
REMARK VINA RESULT:      -6.9      0.208      1.906
REMARK  Name = 
REMARK  3 active torsions:
REMARK  status: ('A' for Active; 'I' for Inactive)
REMARK    1  A    between atoms: C_1  and  C_2
REMARK    2  A    between atoms: C_5  and  C_7
REMARK    3  A    between atoms: C_7  and  N_8
REMARK                            x       y       z     vdW  Elec       q    Type
REMARK                         _______ _______ _______ _____ _____    ______ ____
ROOT
ATOM      1  N   UNL     1       6.058   4.813  16.600  0.00  0.00    +0.000 N 
ATOM      2  C   UNL     1       5.505   3.812  15.845  0.00  0.00    +0.000 C 
ATOM      3  O   UNL     1       4.735   2.932  16.169  0.00  0.00    +0.000 OA
ATOM      4  C   UNL     1       6.072   3.944  14.503  0.00  0.00    +0.000 A 
ATOM      5  C   UNL     1       5.826   3.233  13.343  0.00  0.00    +0.000 A 
ATOM      6  C   UNL     1       6.507   3.639  12.189  0.00  0.00    +0.000 A 
ATOM      7  C   UNL     1       7.410   4.723  12.221  0.00  0.00    +0.000 A 
ATOM      8  C   UNL     1       7.665   5.404  13.413  0.00  0.00    +0.000 A 
ATOM      9  C   UNL     1       6.977   4.984  14.535  0.00  0.00    +0.000 A 
ATOM     10  C   UNL     1       7.027   5.478  15.907  0.00  0.00    +0.000 C 
ATOM     11  O   UNL     1       7.845   6.290  16.292  0.00  0.00    +0.000 OA
ENDROOT
BRANCH   1  12
ATOM     12  C   UNL     1       5.760   5.019  18.005  0.00  0.00    +0.000 C 
BRANCH  12  17
ATOM     13  C   UNL     1       2.299   3.007  21.470  0.00  0.00    +0.000 C 
ATOM     14  C   UNL     1       2.652   4.370  20.890  0.00  0.00    +0.000 C 
ATOM     15  C   UNL     1       3.220   4.230  19.465  0.00  0.00    +0.000 C 
ATOM     16  N   UNL     1       3.442   5.549  18.868  0.00  0.00    +0.000 N 
ATOM     17  C   UNL     1       4.571   5.978  18.186  0.00  0.00    +0.000 C 
ATOM     18  O   UNL     1       4.654   7.136  17.765  0.00  0.00    +0.000 OA
ATOM     19  C   UNL     1       2.257   6.413  18.932  0.00  0.00    +0.000 C 
ATOM     20  C   UNL     1       1.713   6.481  20.361  0.00  0.00    +0.000 C 
ATOM     21  O   UNL     1       1.451   5.165  20.879  0.00  0.00    +0.000 OA
ENDBRANCH  12  17
ENDBRANCH   1  12
TORSDOF 2
ENDMDL
MODEL 3
REMARK VINA RESULT:      -6.8      1.578      2.842
REMARK  Name = 
REMARK  3 active torsions:
REMARK  status: ('A' for Active; 'I' for Inactive)
REMARK    1  A    between atoms: C_1  and  C_2
REMARK    2  A    between atoms: C_5  and  C_7
REMARK    3  A    between atoms: C_7  and  N_8
REMARK                            x       y       z     vdW  Elec       q    Type
REMARK                         _______ _______ _______ _____ _____    ______ ____
ROOT
ATOM      1  N   UNL     1       5.685   5.381  16.328  0.00  0.00    +0.000 N 
ATOM      2  C   UNL     1       5.031   4.415  15.608  0.00  0.00    +0.000 C 
ATOM      3  O   UNL     1       4.063   3.748  15.908  0.00  0.00    +0.000 OA
ATOM      4  C   UNL     1       5.769   4.263  14.355  0.00  0.00    +0.000 A 
ATOM      5  C   UNL     1       5.522   3.469  13.250  0.00  0.00    +0.000 A 
ATOM      6  C   UNL     1       6.405   3.586  12.169  0.00  0.00    +0.000 A 
ATOM      7  C   UNL     1       7.502   4.472  12.219  0.00  0.00    +0.000 A 
ATOM      8  C   UNL     1       7.747   5.240  13.359  0.00  0.00    +0.000 A 
ATOM      9  C   UNL     1       6.859   5.107  14.409  0.00  0.00    +0.000 A 
ATOM     10  C   UNL     1       6.846   5.755  15.716  0.00  0.00    +0.000 C 
ATOM     11  O   UNL     1       7.761   6.437  16.129  0.00  0.00    +0.000 OA
ENDROOT
BRANCH   1  12
ATOM     12  C   UNL     1       5.270   5.820  17.648  0.00  0.00    +0.000 C 
BRANCH  12  17
ATOM     13  C   UNL     1       0.774   3.192  18.602  0.00  0.00    +0.000 C 
ATOM     14  C   UNL     1       2.269   2.966  18.770  0.00  0.00    +0.000 C 
ATOM     15  C   UNL     1       3.007   4.302  18.982  0.00  0.00    +0.000 C 
ATOM     16  N   UNL     1       4.425   4.068  19.265  0.00  0.00    +0.000 N 
ATOM     17  C   UNL     1       5.509   4.723  18.698  0.00  0.00    +0.000 C 
ATOM     18  O   UNL     1       6.665   4.401  18.991  0.00  0.00    +0.000 OA
ATOM     19  C   UNL     1       4.640   3.113  20.359  0.00  0.00    +0.000 C 
ATOM     20  C   UNL     1       3.852   1.824  20.116  0.00  0.00    +0.000 C 
ATOM     21  O   UNL     1       2.456   2.101  19.907  0.00  0.00    +0.000 OA
ENDBRANCH  12  17
ENDBRANCH   1  12
TORSDOF 2
ENDMDL
MODEL 4
REMARK VINA RESULT:      -6.8      3.778      6.171
REMARK  Name = 
REMARK  3 active torsions:
REMARK  status: ('A' for Active; 'I' for Inactive)
REMARK    1  A    between atoms: C_1  and  C_2
REMARK    2  A    between atoms: C_5  and  C_7
REMARK    3  A    between atoms: C_7  and  N_8
REMARK                            x       y       z     vdW  Elec       q    Type
REMARK                         _______ _______ _______ _____ _____    ______ ____
ROOT
ATOM      1  N   UNL     1       2.520   6.642  19.072  0.00  0.00    +0.000 N 
ATOM      2  C   UNL     1       1.841   5.806  19.922  0.00  0.00    +0.000 C 
ATOM      3  O   UNL     1       1.322   6.045  20.992  0.00  0.00    +0.000 OA
ATOM      4  C   UNL     1       1.894   4.474  19.320  0.00  0.00    +0.000 A 
ATOM      5  C   UNL     1       1.333   3.277  19.724  0.00  0.00    +0.000 A 
ATOM      6  C   UNL     1       1.530   2.167  18.893  0.00  0.00    +0.000 A 
ATOM      7  C   UNL     1       2.277   2.275  17.700  0.00  0.00    +0.000 A 
ATOM      8  C   UNL     1       2.859   3.489  17.331  0.00  0.00    +0.000 A 
ATOM      9  C   UNL     1       2.646   4.568  18.168  0.00  0.00    +0.000 A 
ATOM     10  C   UNL     1       3.118   5.944  18.064  0.00  0.00    +0.000 C 
ATOM     11  O   UNL     1       3.934   6.307  17.241  0.00  0.00    +0.000 OA
ENDROOT
BRANCH   1  12
ATOM     12  C   UNL     1       2.706   8.060  19.319  0.00  0.00    +0.000 C 
BRANCH  12  17
ATOM     13  C   UNL     1      -0.546  10.703  22.555  0.00  0.00    +0.000 C 
ATOM     14  C   UNL     1      -0.066  10.798  21.114  0.00  0.00    +0.000 C 
ATOM     15  C   UNL     1       0.285   9.406  20.557  0.00  0.00    +0.000 C 
ATOM     16  N   UNL     1       0.628   9.490  19.136  0.00  0.00    +0.000 N 
ATOM     17  C   UNL     1       1.712   8.901  18.502  0.00  0.00    +0.000 C 
ATOM     18  O   UNL     1       1.917   9.086  17.297  0.00  0.00    +0.000 OA
ATOM     19  C   UNL     1      -0.392  10.186  18.342  0.00  0.00    +0.000 C 
ATOM     20  C   UNL     1      -0.731  11.543  18.963  0.00  0.00    +0.000 C 
ATOM     21  O   UNL     1      -1.122  11.399  20.340  0.00  0.00    +0.000 OA
ENDBRANCH  12  17
ENDBRANCH   1  12
TORSDOF 2
ENDMDL
MODEL 5
REMARK VINA RESULT:      -6.7      1.720      6.872
REMARK  Name = 
REMARK  3 active torsions:
REMARK  status: ('A' for Active; 'I' for Inactive)
REMARK    1  A    between atoms: C_1  and  C_2
REMARK    2  A    between atoms: C_5  and  C_7
REMARK    3  A    between atoms: C_7  and  N_8
REMARK                            x       y       z     vdW  Elec       q    Type
REMARK                         _______ _______ _______ _____ _____    ______ ____
ROOT
ATOM      1  N   UNL     1       2.904   5.776  19.078  0.00  0.00    +0.000 N 
ATOM      2  C   UNL     1       2.940   6.903  18.298  0.00  0.00    +0.000 C 
ATOM      3  O   UNL     1       3.541   7.112  17.265  0.00  0.00    +0.000 OA
ATOM      4  C   UNL     1       2.128   7.907  18.985  0.00  0.00    +0.000 A 
ATOM      5  C   UNL     1       1.784   9.196  18.621  0.00  0.00    +0.000 A 
ATOM      6  C   UNL     1       0.938   9.900  19.488  0.00  0.00    +0.000 A 
ATOM      7  C   UNL     1       0.470   9.313  20.683  0.00  0.00    +0.000 A 
ATOM      8  C   UNL     1       0.858   8.021  21.042  0.00  0.00    +0.000 A 
ATOM      9  C   UNL     1       1.690   7.349  20.168  0.00  0.00    +0.000 A 
ATOM     10  C   UNL     1       2.267   6.012  20.261  0.00  0.00    +0.000 C 
ATOM     11  O   UNL     1       2.196   5.325  21.259  0.00  0.00    +0.000 OA
ENDROOT
BRANCH   1  12
ATOM     12  C   UNL     1       3.602   4.547  18.746  0.00  0.00    +0.000 C 
BRANCH  12  17
ATOM     13  C   UNL     1       5.414   4.090  13.793  0.00  0.00    +0.000 C 
ATOM     14  C   UNL     1       5.866   4.713  15.106  0.00  0.00    +0.000 C 
ATOM     15  C   UNL     1       5.300   3.933  16.308  0.00  0.00    +0.000 C 
ATOM     16  N   UNL     1       5.836   4.462  17.564  0.00  0.00    +0.000 N 
ATOM     17  C   UNL     1       5.124   4.763  18.716  0.00  0.00    +0.000 C 
ATOM     18  O   UNL     1       5.690   5.248  19.701  0.00  0.00    +0.000 OA
ATOM     19  C   UNL     1       7.301   4.544  17.571  0.00  0.00    +0.000 C 
ATOM     20  C   UNL     1       7.809   5.291  16.335  0.00  0.00    +0.000 C 
ATOM     21  O   UNL     1       7.307   4.695  15.127  0.00  0.00    +0.000 OA
ENDBRANCH  12  17
ENDBRANCH   1  12
TORSDOF 2
ENDMDL
MODEL 6
REMARK VINA RESULT:      -6.7      1.694      6.971
REMARK  Name = 
REMARK  3 active torsions:
REMARK  status: ('A' for Active; 'I' for Inactive)
REMARK    1  A    between atoms: C_1  and  C_2
REMARK    2  A    between atoms: C_5  and  C_7
REMARK    3  A    between atoms: C_7  and  N_8
REMARK                            x       y       z     vdW  Elec       q    Type
REMARK                         _______ _______ _______ _____ _____    ______ ____
ROOT
ATOM      1  N   UNL     1       3.087   5.666  19.243  0.00  0.00    +0.000 N 
ATOM      2  C   UNL     1       2.306   5.827  20.358  0.00  0.00    +0.000 C 
ATOM      3  O   UNL     1       2.061   5.044  21.252  0.00  0.00    +0.000 OA
ATOM      4  C   UNL     1       1.726   7.167  20.266  0.00  0.00    +0.000 A 
ATOM      5  C   UNL     1       0.909   7.860  21.140  0.00  0.00    +0.000 A 
ATOM      6  C   UNL     1       0.555   9.167  20.781  0.00  0.00    +0.000 A 
ATOM      7  C   UNL     1       1.012   9.739  19.575  0.00  0.00    +0.000 A 
ATOM      8  C   UNL     1       1.811   9.006  18.696  0.00  0.00    +0.000 A 
ATOM      9  C   UNL     1       2.146   7.721  19.075  0.00  0.00    +0.000 A 
ATOM     10  C   UNL     1       2.947   6.717  18.384  0.00  0.00    +0.000 C 
ATOM     11  O   UNL     1       3.331   6.845  17.239  0.00  0.00    +0.000 OA
ENDROOT
BRANCH   1  12
ATOM     12  C   UNL     1       3.832   4.455  18.952  0.00  0.00    +0.000 C 
BRANCH  12  17
ATOM     13  C   UNL     1       5.307   4.057  13.883  0.00  0.00    +0.000 C 
ATOM     14  C   UNL     1       5.819   4.711  15.158  0.00  0.00    +0.000 C 
ATOM     15  C   UNL     1       5.381   3.912  16.400  0.00  0.00    +0.000 C 
ATOM     16  N   UNL     1       5.978   4.476  17.613  0.00  0.00    +0.000 N 
ATOM     17  C   UNL     1       5.335   4.747  18.812  0.00  0.00    +0.000 C 
ATOM     18  O   UNL     1       5.945   5.268  19.752  0.00  0.00    +0.000 OA
ATOM     19  C   UNL     1       7.434   4.631  17.514  0.00  0.00    +0.000 C 
ATOM     20  C   UNL     1       7.813   5.395  16.243  0.00  0.00    +0.000 C 
ATOM     21  O   UNL     1       7.256   4.766  15.075  0.00  0.00    +0.000 OA
ENDBRANCH  12  17
ENDBRANCH   1  12
TORSDOF 2
ENDMDL
MODEL 7
REMARK VINA RESULT:      -6.6      2.171      7.441
REMARK  Name = 
REMARK  3 active torsions:
REMARK  status: ('A' for Active; 'I' for Inactive)
REMARK    1  A    between atoms: C_1  and  C_2
REMARK    2  A    between atoms: C_5  and  C_7
REMARK    3  A    between atoms: C_7  and  N_8
REMARK                            x       y       z     vdW  Elec       q    Type
REMARK                         _______ _______ _______ _____ _____    ______ ____
ROOT
ATOM      1  N   UNL     1       2.382   6.845  18.849  0.00  0.00    +0.000 N 
ATOM      2  C   UNL     1       1.836   6.723  20.101  0.00  0.00    +0.000 C 
ATOM      3  O   UNL     1       1.706   5.738  20.797  0.00  0.00    +0.000 OA
ATOM      4  C   UNL     1       1.346   8.052  20.469  0.00  0.00    +0.000 A 
ATOM      5  C   UNL     1       0.758   8.508  21.634  0.00  0.00    +0.000 A 
ATOM      6  C   UNL     1       0.439   9.870  21.697  0.00  0.00    +0.000 A 
ATOM      7  C   UNL     1       0.703  10.730  20.609  0.00  0.00    +0.000 A 
ATOM      8  C   UNL     1       1.269  10.237  19.433  0.00  0.00    +0.000 A 
ATOM      9  C   UNL     1       1.576   8.891  19.399  0.00  0.00    +0.000 A 
ATOM     10  C   UNL     1       2.160   8.088  18.330  0.00  0.00    +0.000 C 
ATOM     11  O   UNL     1       2.332   8.504  17.203  0.00  0.00    +0.000 OA
ENDROOT
BRANCH   1  12
ATOM     12  C   UNL     1       2.971   5.738  18.118  0.00  0.00    +0.000 C 
BRANCH  12  17
ATOM     13  C   UNL     1       5.965   4.229  14.021  0.00  0.00    +0.000 C 
ATOM     14  C   UNL     1       6.169   4.815  15.411  0.00  0.00    +0.000 C 
ATOM     15  C   UNL     1       5.038   4.378  16.362  0.00  0.00    +0.000 C 
ATOM     16  N   UNL     1       5.304   4.843  17.726  0.00  0.00    +0.000 N 
ATOM     17  C   UNL     1       4.411   5.468  18.584  0.00  0.00    +0.000 C 
ATOM     18  O   UNL     1       4.772   5.854  19.701  0.00  0.00    +0.000 OA
ATOM     19  C   UNL     1       6.638   4.468  18.208  0.00  0.00    +0.000 C 
ATOM     20  C   UNL     1       7.716   4.889  17.206  0.00  0.00    +0.000 C 
ATOM     21  O   UNL     1       7.444   4.355  15.898  0.00  0.00    +0.000 OA
ENDBRANCH  12  17
ENDBRANCH   1  12
TORSDOF 2
ENDMDL
MODEL 8
REMARK VINA RESULT:      -6.5      2.871      6.126
REMARK  Name = 
REMARK  3 active torsions:
REMARK  status: ('A' for Active; 'I' for Inactive)
REMARK    1  A    between atoms: C_1  and  C_2
REMARK    2  A    between atoms: C_5  and  C_7
REMARK    3  A    between atoms: C_7  and  N_8
REMARK                            x       y       z     vdW  Elec       q    Type
REMARK                         _______ _______ _______ _____ _____    ______ ____
ROOT
ATOM      1  N   UNL     1       4.065   3.236  17.918  0.00  0.00    +0.000 N 
ATOM      2  C   UNL     1       4.297   2.835  19.209  0.00  0.00    +0.000 C 
ATOM      3  O   UNL     1       5.330   2.475  19.734  0.00  0.00    +0.000 OA
ATOM      4  C   UNL     1       3.002   2.855  19.887  0.00  0.00    +0.000 A 
ATOM      5  C   UNL     1       2.666   2.593  21.202  0.00  0.00    +0.000 A 
ATOM      6  C   UNL     1       1.320   2.747  21.560  0.00  0.00    +0.000 A 
ATOM      7  C   UNL     1       0.356   3.144  20.609  0.00  0.00    +0.000 A 
ATOM      8  C   UNL     1       0.717   3.372  19.280  0.00  0.00    +0.000 A 
ATOM      9  C   UNL     1       2.050   3.216  18.956  0.00  0.00    +0.000 A 
ATOM     10  C   UNL     1       2.729   3.371  17.674  0.00  0.00    +0.000 C 
ATOM     11  O   UNL     1       2.141   3.533  16.625  0.00  0.00    +0.000 OA
ENDROOT
BRANCH   1  12
ATOM     12  C   UNL     1       5.103   3.338  16.909  0.00  0.00    +0.000 C 
BRANCH  12  17
ATOM     13  C   UNL     1       8.494   5.534  20.331  0.00  0.00    +0.000 C 
ATOM     14  C   UNL     1       7.996   5.790  18.916  0.00  0.00    +0.000 C 
ATOM     15  C   UNL     1       6.555   5.275  18.738  0.00  0.00    +0.000 C 
ATOM     16  N   UNL     1       6.039   5.633  17.415  0.00  0.00    +0.000 N 
ATOM     17  C   UNL     1       5.366   4.804  16.529  0.00  0.00    +0.000 C 
ATOM     18  O   UNL     1       5.019   5.217  15.417  0.00  0.00    +0.000 OA
ATOM     19  C   UNL     1       6.180   7.062  17.114  0.00  0.00    +0.000 C 
ATOM     20  C   UNL     1       7.620   7.526  17.346  0.00  0.00    +0.000 C 
ATOM     21  O   UNL     1       8.058   7.209  18.679  0.00  0.00    +0.000 OA
ENDBRANCH  12  17
ENDBRANCH   1  12
TORSDOF 2
ENDMDL
MODEL 9
REMARK VINA RESULT:      -6.4      2.947      3.964
REMARK  Name = 
REMARK  3 active torsions:
REMARK  status: ('A' for Active; 'I' for Inactive)
REMARK    1  A    between atoms: C_1  and  C_2
REMARK    2  A    between atoms: C_5  and  C_7
REMARK    3  A    between atoms: C_7  and  N_8
REMARK                            x       y       z     vdW  Elec       q    Type
REMARK                         _______ _______ _______ _____ _____    ______ ____
ROOT
ATOM      1  N   UNL     1       5.066   5.185  17.258  0.00  0.00    +0.000 N 
ATOM      2  C   UNL     1       5.259   6.395  16.644  0.00  0.00    +0.000 C 
ATOM      3  O   UNL     1       4.658   6.899  15.719  0.00  0.00    +0.000 OA
ATOM      4  C   UNL     1       6.425   7.003  17.286  0.00  0.00    +0.000 A 
ATOM      5  C   UNL     1       7.023   8.235  17.094  0.00  0.00    +0.000 A 
ATOM      6  C   UNL     1       8.116   8.548  17.912  0.00  0.00    +0.000 A 
ATOM      7  C   UNL     1       8.583   7.635  18.882  0.00  0.00    +0.000 A 
ATOM      8  C   UNL     1       7.980   6.386  19.034  0.00  0.00    +0.000 A 
ATOM      9  C   UNL     1       6.903   6.104  18.216  0.00  0.00    +0.000 A 
ATOM     10  C   UNL     1       6.079   4.904  18.129  0.00  0.00    +0.000 C 
ATOM     11  O   UNL     1       6.344   3.871  18.710  0.00  0.00    +0.000 OA
ENDROOT
BRANCH   1  12
ATOM     12  C   UNL     1       4.007   4.261  16.898  0.00  0.00    +0.000 C 
BRANCH  12  17
ATOM     13  C   UNL     1       4.859   1.254  21.172  0.00  0.00    +0.000 C 
ATOM     14  C   UNL     1       3.993   2.445  20.785  0.00  0.00    +0.000 C 
ATOM     15  C   UNL     1       3.659   2.416  19.282  0.00  0.00    +0.000 C 
ATOM     16  N   UNL     1       2.727   3.493  18.940  0.00  0.00    +0.000 N 
ATOM     17  C   UNL     1       2.820   4.370  17.869  0.00  0.00    +0.000 C 
ATOM     18  O   UNL     1       1.988   5.269  17.715  0.00  0.00    +0.000 OA
ATOM     19  C   UNL     1       1.534   3.508  19.794  0.00  0.00    +0.000 C 
ATOM     20  C   UNL     1       1.925   3.495  21.274  0.00  0.00    +0.000 C 
ATOM     21  O   UNL     1       2.788   2.383  21.571  0.00  0.00    +0.000 OA
ENDBRANCH  12  17
ENDBRANCH   1  12
TORSDOF 2
ENDMDL
