MODEL 1
REMARK VINA RESULT:      -7.6      0.000      0.000
REMARK  Name = 
REMARK  5 active torsions:
REMARK  status: ('A' for Active; 'I' for Inactive)
REMARK    1  A    between atoms: C_2  and  C_3
REMARK    2  A    between atoms: C_3  and  O_4
REMARK    3  A    between atoms: O_4  and  C_5
REMARK    4  A    between atoms: N_12  and  C_13
REMARK    5  A    between atoms: C_13  and  C_14
REMARK                            x       y       z     vdW  Elec       q    Type
REMARK                         _______ _______ _______ _____ _____    ______ ____
ROOT
ATOM      1  O   UNL     1       7.017   7.420  16.680  0.00  0.00    +0.000 OA
ATOM      2  C   UNL     1       7.595   7.206  17.745  0.00  0.00    +0.000 C 
ATOM      3  N   UNL     1       7.607   5.967  18.327  0.00  0.00    +0.000 N 
ATOM      4  H   UNL     1       8.028   5.794  19.235  0.00  0.00    +0.000 HD
ENDROOT
BRANCH   2   5
ATOM      5  C   UNL     1       8.389   8.291  18.474  0.00  0.00    +0.000 C 
BRANCH   5   6
ATOM      6  O   UNL     1       8.206   9.559  17.861  0.00  0.00    +0.000 OA
BRANCH   6   7
ATOM      7  C   UNL     1       8.817  10.645  18.438  0.00  0.00    +0.000 A 
ATOM      8  C   UNL     1       9.646  10.294  19.519  0.00  0.00    +0.000 A 
ATOM      9  C   UNL     1      10.311  11.265  20.275  0.00  0.00    +0.000 A 
ATOM     10  C   UNL     1      10.160  12.611  19.967  0.00  0.00    +0.000 A 
ATOM     11  C   UNL     1       9.330  12.977  18.909  0.00  0.00    +0.000 A 
ATOM     12  C   UNL     1       8.650  12.009  18.150  0.00  0.00    +0.000 A 
ATOM     13 CL   UNL     1       7.583  12.652  16.954  0.00  0.00    +0.000 Cl
ENDBRANCH   6   7
ENDBRANCH   5   6
ENDBRANCH   2   5
BRANCH   3  14
ATOM     14  C   UNL     1       6.996   4.824  17.685  0.00  0.00    +0.000 C 
BRANCH  14  15
ATOM     15  C   UNL     1       5.590   4.658  18.176  0.00  0.00    +0.000 A 
ATOM     16  C   UNL     1       4.987   5.284  19.294  0.00  0.00    +0.000 A 
ATOM     17  C   UNL     1       3.669   4.875  19.281  0.00  0.00    +0.000 A 
ATOM     18  N   UNL     1       3.560   4.028  18.210  0.00  0.00    +0.000 N 
ATOM     19  N   UNL     1       4.714   3.872  17.528  0.00  0.00    +0.000 NA
ATOM     20  C   UNL     1       2.367   3.385  17.716  0.00  0.00    +0.000 C 
ATOM     21  C   UNL     1       1.444   2.745  18.754  0.00  0.00    +0.000 C 
ATOM     22  C   UNL     1       1.875   2.861  20.211  0.00  0.00    +0.000 C 
ATOM     23  N   UNL     1       1.778   4.204  20.771  0.00  0.00    +0.000 NA
ATOM     24  C   UNL     1       2.508   5.279  20.109  0.00  0.00    +0.000 C 
ATOM     25  H   UNL     1       2.044   4.174  21.754  0.00  0.00    +0.000 HD
ENDBRANCH  14  15
ENDBRANCH   3  14
TORSDOF 5
ENDMDL
MODEL 2
REMARK VINA RESULT:      -7.5      1.088      1.246
REMARK  Name = 
REMARK  5 active torsions:
REMARK  status: ('A' for Active; 'I' for Inactive)
REMARK    1  A    between atoms: C_2  and  C_3
REMARK    2  A    between atoms: C_3  and  O_4
REMARK    3  A    between atoms: O_4  and  C_5
REMARK    4  A    between atoms: N_12  and  C_13
REMARK    5  A    between atoms: C_13  and  C_14
REMARK                            x       y       z     vdW  Elec       q    Type
REMARK                         _______ _______ _______ _____ _____    ______ ____
ROOT
ATOM      1  O   UNL     1       7.460   7.869  16.849  0.00  0.00    +0.000 OA
ATOM      2  C   UNL     1       7.879   7.717  17.996  0.00  0.00    +0.000 C 
ATOM      3  N   UNL     1       7.854   6.500  18.622  0.00  0.00    +0.000 N 
ATOM      4  H   UNL     1       8.141   6.376  19.588  0.00  0.00    +0.000 HD
ENDROOT
BRANCH   2   5
ATOM      5  C   UNL     1       8.509   8.861  18.791  0.00  0.00    +0.000 C 
BRANCH   5   6
ATOM      6  O   UNL     1       9.011   9.870  17.927  0.00  0.00    +0.000 OA
BRANCH   6   7
ATOM      7  C   UNL     1       9.340  11.083  18.480  0.00  0.00    +0.000 A 
ATOM      8  C   UNL     1      10.248  10.966  19.548  0.00  0.00    +0.000 A 
ATOM      9  C   UNL     1      10.662  12.085  20.281  0.00  0.00    +0.000 A 
ATOM     10  C   UNL     1      10.174  13.345  19.962  0.00  0.00    +0.000 A 
ATOM     11  C   UNL     1       9.261  13.476  18.916  0.00  0.00    +0.000 A 
ATOM     12  C   UNL     1       8.833  12.358  18.181  0.00  0.00    +0.000 A 
ATOM     13 CL   UNL     1       7.619  12.694  17.000  0.00  0.00    +0.000 Cl
ENDBRANCH   6   7
ENDBRANCH   5   6
ENDBRANCH   2   5
BRANCH   3  14
ATOM     14  C   UNL     1       7.394   5.308  17.941  0.00  0.00    +0.000 C 
BRANCH  14  15
ATOM     15  C   UNL     1       6.015   4.957  18.411  0.00  0.00    +0.000 A 
ATOM     16  C   UNL     1       4.810   5.648  18.141  0.00  0.00    +0.000 A 
ATOM     17  C   UNL     1       3.811   4.893  18.722  0.00  0.00    +0.000 A 
ATOM     18  N   UNL     1       4.451   3.839  19.317  0.00  0.00    +0.000 N 
ATOM     19  N   UNL     1       5.790   3.859  19.152  0.00  0.00    +0.000 NA
ATOM     20  C   UNL     1       3.851   2.718  20.000  0.00  0.00    +0.000 C 
ATOM     21  C   UNL     1       2.719   3.029  20.979  0.00  0.00    +0.000 C 
ATOM     22  C   UNL     1       2.330   4.495  21.127  0.00  0.00    +0.000 C 
ATOM     23  N   UNL     1       1.653   5.067  19.969  0.00  0.00    +0.000 NA
ATOM     24  C   UNL     1       2.336   5.019  18.681  0.00  0.00    +0.000 C 
ATOM     25  H   UNL     1       1.396   6.031  20.177  0.00  0.00    +0.000 HD
ENDBRANCH  14  15
ENDBRANCH   3  14
TORSDOF 5
ENDMDL
MODEL 3
REMARK VINA RESULT:      -7.4      1.412      1.597
REMARK  Name = 
REMARK  5 active torsions:
REMARK  status: ('A' for Active; 'I' for Inactive)
REMARK    1  A    between atoms: C_2  and  C_3
REMARK    2  A    between atoms: C_3  and  O_4
REMARK    3  A    between atoms: O_4  and  C_5
REMARK    4  A    between atoms: N_12  and  C_13
REMARK    5  A    between atoms: C_13  and  C_14
REMARK                            x       y       z     vdW  Elec       q    Type
REMARK                         _______ _______ _______ _____ _____    ______ ____
ROOT
ATOM      1  O   UNL     1       8.593   7.399  18.947  0.00  0.00    +0.000 OA
ATOM      2  C   UNL     1       7.996   7.807  17.951  0.00  0.00    +0.000 C 
ATOM      3  N   UNL     1       7.374   6.954  17.080  0.00  0.00    +0.000 N 
ATOM      4  H   UNL     1       6.930   7.275  16.224  0.00  0.00    +0.000 HD
ENDROOT
BRANCH   2   5
ATOM      5  C   UNL     1       7.855   9.297  17.640  0.00  0.00    +0.000 C 
BRANCH   5   6
ATOM      6  O   UNL     1       8.370  10.093  18.697  0.00  0.00    +0.000 OA
BRANCH   6   7
ATOM      7  C   UNL     1       9.263  11.086  18.377  0.00  0.00    +0.000 A 
ATOM      8  C   UNL     1      10.548  10.851  18.898  0.00  0.00    +0.000 A 
ATOM      9  C   UNL     1      11.584  11.777  18.730  0.00  0.00    +0.000 A 
ATOM     10  C   UNL     1      11.356  12.960  18.040  0.00  0.00    +0.000 A 
ATOM     11  C   UNL     1      10.084  13.215  17.531  0.00  0.00    +0.000 A 
ATOM     12  C   UNL     1       9.034  12.296  17.702  0.00  0.00    +0.000 A 
ATOM     13 CL   UNL     1       7.505  12.830  17.104  0.00  0.00    +0.000 Cl
ENDBRANCH   6   7
ENDBRANCH   5   6
ENDBRANCH   2   5
BRANCH   3  14
ATOM     14  C   UNL     1       7.328   5.528  17.319  0.00  0.00    +0.000 C 
BRANCH  14  15
ATOM     15  C   UNL     1       5.983   5.148  17.860  0.00  0.00    +0.000 A 
ATOM     16  C   UNL     1       4.748   5.801  17.638  0.00  0.00    +0.000 A 
ATOM     17  C   UNL     1       3.799   5.029  18.278  0.00  0.00    +0.000 A 
ATOM     18  N   UNL     1       4.497   4.003  18.858  0.00  0.00    +0.000 N 
ATOM     19  N   UNL     1       5.825   4.057  18.627  0.00  0.00    +0.000 NA
ATOM     20  C   UNL     1       3.961   2.878  19.586  0.00  0.00    +0.000 C 
ATOM     21  C   UNL     1       2.869   3.174  20.614  0.00  0.00    +0.000 C 
ATOM     22  C   UNL     1       2.447   4.631  20.757  0.00  0.00    +0.000 C 
ATOM     23  N   UNL     1       1.700   5.165  19.626  0.00  0.00    +0.000 NA
ATOM     24  C   UNL     1       2.321   5.115  18.307  0.00  0.00    +0.000 C 
ATOM     25  H   UNL     1       1.426   6.125  19.831  0.00  0.00    +0.000 HD
ENDBRANCH  14  15
ENDBRANCH   3  14
TORSDOF 5
ENDMDL
MODEL 4
REMARK VINA RESULT:      -7.4      1.021      1.454
REMARK  Name = 
REMARK  5 active torsions:
REMARK  status: ('A' for Active; 'I' for Inactive)
REMARK    1  A    between atoms: C_2  and  C_3
REMARK    2  A    between atoms: C_3  and  O_4
REMARK    3  A    between atoms: O_4  and  C_5
REMARK    4  A    between atoms: N_12  and  C_13
REMARK    5  A    between atoms: C_13  and  C_14
REMARK                            x       y       z     vdW  Elec       q    Type
REMARK                         _______ _______ _______ _____ _____    ______ ____
ROOT
ATOM      1  O   UNL     1       6.760   7.626  16.652  0.00  0.00    +0.000 OA
ATOM      2  C   UNL     1       7.505   7.290  17.572  0.00  0.00    +0.000 C 
ATOM      3  N   UNL     1       7.777   5.976  17.842  0.00  0.00    +0.000 N 
ATOM      4  H   UNL     1       8.341   5.687  18.635  0.00  0.00    +0.000 HD
ENDROOT
BRANCH   2   5
ATOM      5  C   UNL     1       8.228   8.314  18.450  0.00  0.00    +0.000 C 
BRANCH   5   6
ATOM      6  O   UNL     1       8.450   9.527  17.746  0.00  0.00    +0.000 OA
BRANCH   6   7
ATOM      7  C   UNL     1       8.879  10.616  18.464  0.00  0.00    +0.000 A 
ATOM      8  C   UNL     1       9.575  10.259  19.634  0.00  0.00    +0.000 A 
ATOM      9  C   UNL     1      10.041  11.226  20.530  0.00  0.00    +0.000 A 
ATOM     10  C   UNL     1       9.819  12.574  20.278  0.00  0.00    +0.000 A 
ATOM     11  C   UNL     1       9.117  12.944  19.132  0.00  0.00    +0.000 A 
ATOM     12  C   UNL     1       8.636  11.979  18.230  0.00  0.00    +0.000 A 
ATOM     13 CL   UNL     1       7.695  12.615  16.930  0.00  0.00    +0.000 Cl
ENDBRANCH   6   7
ENDBRANCH   5   6
ENDBRANCH   2   5
BRANCH   3  14
ATOM     14  C   UNL     1       7.254   4.910  17.015  0.00  0.00    +0.000 C 
BRANCH  14  15
ATOM     15  C   UNL     1       5.921   4.471  17.539  0.00  0.00    +0.000 A 
ATOM     16  C   UNL     1       4.692   4.423  16.837  0.00  0.00    +0.000 A 
ATOM     17  C   UNL     1       3.782   3.876  17.720  0.00  0.00    +0.000 A 
ATOM     18  N   UNL     1       4.482   3.660  18.877  0.00  0.00    +0.000 N 
ATOM     19  N   UNL     1       5.780   4.021  18.796  0.00  0.00    +0.000 NA
ATOM     20  C   UNL     1       4.007   3.035  20.088  0.00  0.00    +0.000 C 
ATOM     21  C   UNL     1       2.630   3.465  20.595  0.00  0.00    +0.000 C 
ATOM     22  C   UNL     1       1.892   4.506  19.761  0.00  0.00    +0.000 C 
ATOM     23  N   UNL     1       1.405   4.023  18.474  0.00  0.00    +0.000 NA
ATOM     24  C   UNL     1       2.373   3.457  17.541  0.00  0.00    +0.000 C 
ATOM     25  H   UNL     1       0.891   4.772  18.012  0.00  0.00    +0.000 HD
ENDBRANCH  14  15
ENDBRANCH   3  14
TORSDOF 5
ENDMDL
MODEL 5
REMARK VINA RESULT:      -7.4      1.782      2.017
REMARK  Name = 
REMARK  5 active torsions:
REMARK  status: ('A' for Active; 'I' for Inactive)
REMARK    1  A    between atoms: C_2  and  C_3
REMARK    2  A    between atoms: C_3  and  O_4
REMARK    3  A    between atoms: O_4  and  C_5
REMARK    4  A    between atoms: N_12  and  C_13
REMARK    5  A    between atoms: C_13  and  C_14
REMARK                            x       y       z     vdW  Elec       q    Type
REMARK                         _______ _______ _______ _____ _____    ______ ____
ROOT
ATOM      1  O   UNL     1       8.241   6.875  18.834  0.00  0.00    +0.000 OA
ATOM      2  C   UNL     1       7.971   7.619  17.892  0.00  0.00    +0.000 C 
ATOM      3  N   UNL     1       7.487   7.140  16.705  0.00  0.00    +0.000 N 
ATOM      4  H   UNL     1       7.318   7.739  15.902  0.00  0.00    +0.000 HD
ENDROOT
BRANCH   2   5
ATOM      5  C   UNL     1       8.102   9.140  17.992  0.00  0.00    +0.000 C 
BRANCH   5   6
ATOM      6  O   UNL     1       8.974   9.511  19.050  0.00  0.00    +0.000 OA
BRANCH   6   7
ATOM      7  C   UNL     1       9.464  10.793  19.058  0.00  0.00    +0.000 A 
ATOM      8  C   UNL     1      10.128  11.131  17.864  0.00  0.00    +0.000 A 
ATOM      9  C   UNL     1      10.749  12.374  17.700  0.00  0.00    +0.000 A 
ATOM     10  C   UNL     1      10.721  13.307  18.729  0.00  0.00    +0.000 A 
ATOM     11  C   UNL     1      10.082  12.982  19.924  0.00  0.00    +0.000 A 
ATOM     12  C   UNL     1       9.464  11.733  20.102  0.00  0.00    +0.000 A 
ATOM     13 CL   UNL     1       8.822  11.465  21.682  0.00  0.00    +0.000 Cl
ENDBRANCH   6   7
ENDBRANCH   5   6
ENDBRANCH   2   5
BRANCH   3  14
ATOM     14  C   UNL     1       7.203   5.734  16.516  0.00  0.00    +0.000 C 
BRANCH  14  15
ATOM     15  C   UNL     1       5.912   5.383  17.191  0.00  0.00    +0.000 A 
ATOM     16  C   UNL     1       4.720   6.146  17.224  0.00  0.00    +0.000 A 
ATOM     17  C   UNL     1       3.799   5.366  17.894  0.00  0.00    +0.000 A 
ATOM     18  N   UNL     1       4.473   4.226  18.244  0.00  0.00    +0.000 N 
ATOM     19  N   UNL     1       5.760   4.215  17.837  0.00  0.00    +0.000 NA
ATOM     20  C   UNL     1       3.940   3.056  18.900  0.00  0.00    +0.000 C 
ATOM     21  C   UNL     1       3.021   3.293  20.098  0.00  0.00    +0.000 C 
ATOM     22  C   UNL     1       2.751   4.746  20.473  0.00  0.00    +0.000 C 
ATOM     23  N   UNL     1       1.913   5.473  19.529  0.00  0.00    +0.000 NA
ATOM     24  C   UNL     1       2.350   5.551  18.139  0.00  0.00    +0.000 C 
ATOM     25  H   UNL     1       1.754   6.415  19.883  0.00  0.00    +0.000 HD
ENDBRANCH  14  15
ENDBRANCH   3  14
TORSDOF 5
ENDMDL
MODEL 6
REMARK VINA RESULT:      -7.4      4.847      7.912
REMARK  Name = 
REMARK  5 active torsions:
REMARK  status: ('A' for Active; 'I' for Inactive)
REMARK    1  A    between atoms: C_2  and  C_3
REMARK    2  A    between atoms: C_3  and  O_4
REMARK    3  A    between atoms: O_4  and  C_5
REMARK    4  A    between atoms: N_12  and  C_13
REMARK    5  A    between atoms: C_13  and  C_14
REMARK                            x       y       z     vdW  Elec       q    Type
REMARK                         _______ _______ _______ _____ _____    ______ ____
ROOT
ATOM      1  O   UNL     1       5.947   6.400  17.523  0.00  0.00    +0.000 OA
ATOM      2  C   UNL     1       5.070   5.879  18.212  0.00  0.00    +0.000 C 
ATOM      3  N   UNL     1       3.816   6.416  18.315  0.00  0.00    +0.000 N 
ATOM      4  H   UNL     1       3.105   6.029  18.928  0.00  0.00    +0.000 HD
ENDROOT
BRANCH   2   5
ATOM      5  C   UNL     1       5.296   4.564  18.960  0.00  0.00    +0.000 C 
BRANCH   5   6
ATOM      6  O   UNL     1       4.341   3.586  18.576  0.00  0.00    +0.000 OA
BRANCH   6   7
ATOM      7  C   UNL     1       3.233   3.424  19.370  0.00  0.00    +0.000 A 
ATOM      8  C   UNL     1       3.533   2.833  20.612  0.00  0.00    +0.000 A 
ATOM      9  C   UNL     1       2.530   2.531  21.539  0.00  0.00    +0.000 A 
ATOM     10  C   UNL     1       1.202   2.811  21.243  0.00  0.00    +0.000 A 
ATOM     11  C   UNL     1       0.885   3.381  20.011  0.00  0.00    +0.000 A 
ATOM     12  C   UNL     1       1.885   3.679  19.070  0.00  0.00    +0.000 A 
ATOM     13 CL   UNL     1       1.298   4.276  17.560  0.00  0.00    +0.000 Cl
ENDBRANCH   6   7
ENDBRANCH   5   6
ENDBRANCH   2   5
BRANCH   3  14
ATOM     14  C   UNL     1       3.432   7.592  17.566  0.00  0.00    +0.000 C 
BRANCH  14  15
ATOM     15  C   UNL     1       2.391   8.360  18.324  0.00  0.00    +0.000 A 
ATOM     16  C   UNL     1       1.598   9.434  17.853  0.00  0.00    +0.000 A 
ATOM     17  C   UNL     1       0.742   9.745  18.890  0.00  0.00    +0.000 A 
ATOM     18  N   UNL     1       1.076   8.890  19.907  0.00  0.00    +0.000 N 
ATOM     19  N   UNL     1       2.080   8.045  19.592  0.00  0.00    +0.000 NA
ATOM     20  C   UNL     1       0.431   8.757  21.191  0.00  0.00    +0.000 C 
ATOM     21  C   UNL     1       0.085  10.049  21.930  0.00  0.00    +0.000 C 
ATOM     22  C   UNL     1       0.448  11.352  21.228  0.00  0.00    +0.000 C 
ATOM     23  N   UNL     1      -0.362  11.660  20.055  0.00  0.00    +0.000 NA
ATOM     24  C   UNL     1      -0.400  10.684  18.971  0.00  0.00    +0.000 C 
ATOM     25  H   UNL     1      -0.075  12.564  19.682  0.00  0.00    +0.000 HD
ENDBRANCH  14  15
ENDBRANCH   3  14
TORSDOF 5
ENDMDL
MODEL 7
REMARK VINA RESULT:      -7.3      1.762      2.039
REMARK  Name = 
REMARK  5 active torsions:
REMARK  status: ('A' for Active; 'I' for Inactive)
REMARK    1  A    between atoms: C_2  and  C_3
REMARK    2  A    between atoms: C_3  and  O_4
REMARK    3  A    between atoms: O_4  and  C_5
REMARK    4  A    between atoms: N_12  and  C_13
REMARK    5  A    between atoms: C_13  and  C_14
REMARK                            x       y       z     vdW  Elec       q    Type
REMARK                         _______ _______ _______ _____ _____    ______ ____
ROOT
ATOM      1  O   UNL     1       8.335   6.840  18.763  0.00  0.00    +0.000 OA
ATOM      2  C   UNL     1       7.937   7.620  17.899  0.00  0.00    +0.000 C 
ATOM      3  N   UNL     1       7.379   7.183  16.728  0.00  0.00    +0.000 N 
ATOM      4  H   UNL     1       7.104   7.817  15.984  0.00  0.00    +0.000 HD
ENDROOT
BRANCH   2   5
ATOM      5  C   UNL     1       7.985   9.137  18.088  0.00  0.00    +0.000 C 
BRANCH   5   6
ATOM      6  O   UNL     1       8.951   9.503  19.062  0.00  0.00    +0.000 OA
BRANCH   6   7
ATOM      7  C   UNL     1       9.417  10.794  19.051  0.00  0.00    +0.000 A 
ATOM      8  C   UNL     1      10.049  11.135  17.841  0.00  0.00    +0.000 A 
ATOM      9  C   UNL     1      10.643  12.389  17.656  0.00  0.00    +0.000 A 
ATOM     10  C   UNL     1      10.619  13.329  18.678  0.00  0.00    +0.000 A 
ATOM     11  C   UNL     1      10.011  13.001  19.888  0.00  0.00    +0.000 A 
ATOM     12  C   UNL     1       9.420  11.741  20.088  0.00  0.00    +0.000 A 
ATOM     13 CL   UNL     1       8.816  11.474  21.683  0.00  0.00    +0.000 Cl
ENDBRANCH   6   7
ENDBRANCH   5   6
ENDBRANCH   2   5
BRANCH   3  14
ATOM     14  C   UNL     1       7.165   5.775  16.472  0.00  0.00    +0.000 C 
BRANCH  14  15
ATOM     15  C   UNL     1       5.945   5.306  17.205  0.00  0.00    +0.000 A 
ATOM     16  C   UNL     1       5.883   4.371  18.266  0.00  0.00    +0.000 A 
ATOM     17  C   UNL     1       4.559   4.337  18.653  0.00  0.00    +0.000 A 
ATOM     18  N   UNL     1       3.911   5.201  17.811  0.00  0.00    +0.000 N 
ATOM     19  N   UNL     1       4.729   5.796  16.917  0.00  0.00    +0.000 NA
ATOM     20  C   UNL     1       2.519   5.582  17.843  0.00  0.00    +0.000 C 
ATOM     21  C   UNL     1       1.499   4.461  18.035  0.00  0.00    +0.000 C 
ATOM     22  C   UNL     1       2.057   3.051  18.184  0.00  0.00    +0.000 C 
ATOM     23  N   UNL     1       2.753   2.800  19.440  0.00  0.00    +0.000 NA
ATOM     24  C   UNL     1       3.883   3.656  19.782  0.00  0.00    +0.000 C 
ATOM     25  H   UNL     1       3.050   1.825  19.465  0.00  0.00    +0.000 HD
ENDBRANCH  14  15
ENDBRANCH   3  14
TORSDOF 5
ENDMDL
MODEL 8
REMARK VINA RESULT:      -7.3      1.411      1.576
REMARK  Name = 
REMARK  5 active torsions:
REMARK  status: ('A' for Active; 'I' for Inactive)
REMARK    1  A    between atoms: C_2  and  C_3
REMARK    2  A    between atoms: C_3  and  O_4
REMARK    3  A    between atoms: O_4  and  C_5
REMARK    4  A    between atoms: N_12  and  C_13
REMARK    5  A    between atoms: C_13  and  C_14
REMARK                            x       y       z     vdW  Elec       q    Type
REMARK                         _______ _______ _______ _____ _____    ______ ____
ROOT
ATOM      1  O   UNL     1       7.624   7.947  16.815  0.00  0.00    +0.000 OA
ATOM      2  C   UNL     1       7.929   7.642  17.967  0.00  0.00    +0.000 C 
ATOM      3  N   UNL     1       7.664   6.403  18.484  0.00  0.00    +0.000 N 
ATOM      4  H   UNL     1       7.857   6.161  19.451  0.00  0.00    +0.000 HD
ENDROOT
BRANCH   2   5
ATOM      5  C   UNL     1       8.678   8.602  18.893  0.00  0.00    +0.000 C 
BRANCH   5   6
ATOM      6  O   UNL     1       8.613   9.936  18.410  0.00  0.00    +0.000 OA
BRANCH   6   7
ATOM      7  C   UNL     1       9.587  10.814  18.815  0.00  0.00    +0.000 A 
ATOM      8  C   UNL     1      10.508  11.115  17.794  0.00  0.00    +0.000 A 
ATOM      9  C   UNL     1      11.609  11.946  18.026  0.00  0.00    +0.000 A 
ATOM     10  C   UNL     1      11.816  12.492  19.286  0.00  0.00    +0.000 A 
ATOM     11  C   UNL     1      10.923  12.191  20.312  0.00  0.00    +0.000 A 
ATOM     12  C   UNL     1       9.819  11.350  20.092  0.00  0.00    +0.000 A 
ATOM     13 CL   UNL     1       8.887  11.000  21.502  0.00  0.00    +0.000 Cl
ENDBRANCH   6   7
ENDBRANCH   5   6
ENDBRANCH   2   5
BRANCH   3  14
ATOM     14  C   UNL     1       7.067   5.359  17.678  0.00  0.00    +0.000 C 
BRANCH  14  15
ATOM     15  C   UNL     1       5.742   4.966  18.259  0.00  0.00    +0.000 A 
ATOM     16  C   UNL     1       5.045   5.593  19.319  0.00  0.00    +0.000 A 
ATOM     17  C   UNL     1       3.847   4.915  19.427  0.00  0.00    +0.000 A 
ATOM     18  N   UNL     1       3.900   3.929  18.478  0.00  0.00    +0.000 N 
ATOM     19  N   UNL     1       5.044   3.933  17.761  0.00  0.00    +0.000 NA
ATOM     20  C   UNL     1       2.863   2.987  18.132  0.00  0.00    +0.000 C 
ATOM     21  C   UNL     1       2.128   2.310  19.288  0.00  0.00    +0.000 C 
ATOM     22  C   UNL     1       2.557   2.710  20.695  0.00  0.00    +0.000 C 
ATOM     23  N   UNL     1       2.184   4.064  21.085  0.00  0.00    +0.000 NA
ATOM     24  C   UNL     1       2.646   5.171  20.256  0.00  0.00    +0.000 C 
ATOM     25  H   UNL     1       2.473   4.223  22.049  0.00  0.00    +0.000 HD
ENDBRANCH  14  15
ENDBRANCH   3  14
TORSDOF 5
ENDMDL
MODEL 9
REMARK VINA RESULT:      -7.1      4.305      5.901
REMARK  Name = 
REMARK  5 active torsions:
REMARK  status: ('A' for Active; 'I' for Inactive)
REMARK    1  A    between atoms: C_2  and  C_3
REMARK    2  A    between atoms: C_3  and  O_4
REMARK    3  A    between atoms: O_4  and  C_5
REMARK    4  A    between atoms: N_12  and  C_13
REMARK    5  A    between atoms: C_13  and  C_14
REMARK                            x       y       z     vdW  Elec       q    Type
REMARK                         _______ _______ _______ _____ _____    ______ ____
ROOT
ATOM      1  O   UNL     1       6.374   4.758  18.783  0.00  0.00    +0.000 OA
ATOM      2  C   UNL     1       6.408   5.169  17.624  0.00  0.00    +0.000 C 
ATOM      3  N   UNL     1       5.603   6.188  17.192  0.00  0.00    +0.000 N 
ATOM      4  H   UNL     1       5.581   6.494  16.224  0.00  0.00    +0.000 HD
ENDROOT
BRANCH   2   5
ATOM      5  C   UNL     1       7.389   4.612  16.591  0.00  0.00    +0.000 C 
BRANCH   5   6
ATOM      6  O   UNL     1       7.457   5.448  15.446  0.00  0.00    +0.000 OA
BRANCH   6   7
ATOM      7  C   UNL     1       7.115   4.904  14.232  0.00  0.00    +0.000 A 
ATOM      8  C   UNL     1       6.060   3.978  14.328  0.00  0.00    +0.000 A 
ATOM      9  C   UNL     1       5.605   3.271  13.209  0.00  0.00    +0.000 A 
ATOM     10  C   UNL     1       6.197   3.474  11.969  0.00  0.00    +0.000 A 
ATOM     11  C   UNL     1       7.254   4.376  11.860  0.00  0.00    +0.000 A 
ATOM     12  C   UNL     1       7.725   5.083  12.980  0.00  0.00    +0.000 A 
ATOM     13 CL   UNL     1       9.109   6.070  12.679  0.00  0.00    +0.000 Cl
ENDBRANCH   6   7
ENDBRANCH   5   6
ENDBRANCH   2   5
BRANCH   3  14
ATOM     14  C   UNL     1       4.714   6.884  18.096  0.00  0.00    +0.000 C 
BRANCH  14  15
ATOM     15  C   UNL     1       3.635   5.954  18.563  0.00  0.00    +0.000 A 
ATOM     16  C   UNL     1       3.056   5.883  19.853  0.00  0.00    +0.000 A 
ATOM     17  C   UNL     1       2.060   4.932  19.760  0.00  0.00    +0.000 A 
ATOM     18  N   UNL     1       2.113   4.474  18.470  0.00  0.00    +0.000 N 
ATOM     19  N   UNL     1       3.066   5.072  17.725  0.00  0.00    +0.000 NA
ATOM     20  C   UNL     1       1.232   3.521  17.839  0.00  0.00    +0.000 C 
ATOM     21  C   UNL     1       0.890   2.262  18.636  0.00  0.00    +0.000 C 
ATOM     22  C   UNL     1       1.506   2.146  20.025  0.00  0.00    +0.000 C 
ATOM     23  N   UNL     1       0.962   3.070  21.013  0.00  0.00    +0.000 NA
ATOM     24  C   UNL     1       1.024   4.498  20.726  0.00  0.00    +0.000 C 
ATOM     25  H   UNL     1       1.403   2.889  21.914  0.00  0.00    +0.000 HD
ENDBRANCH  14  15
ENDBRANCH   3  14
TORSDOF 5
ENDMDL
