MODEL 1
REMARK VINA RESULT:      -6.8      0.000      0.000
REMARK  Name = 
REMARK  4 active torsions:
REMARK  status: ('A' for Active; 'I' for Inactive)
REMARK    1  A    between atoms: C_1  and  O_2
REMARK    2  A    between atoms: O_2  and  N_3
REMARK    3  A    between atoms: N_9  and  C_10
REMARK    4  A    between atoms: C_14  and  C_15
REMARK                            x       y       z     vdW  Elec       q    Type
REMARK                         _______ _______ _______ _____ _____    ______ ____
ROOT
ATOM      1  N   UNL     1       6.544   7.078  16.712  0.00  0.00    +0.000 NA
ATOM      2  C   UNL     1       6.188   5.953  17.247  0.00  0.00    +0.000 C 
ATOM      3  C   UNL     1       4.875   5.351  16.888  0.00  0.00    +0.000 C 
ATOM      4  C   UNL     1       4.596   4.549  18.158  0.00  0.00    +0.000 C 
ATOM      5  C   UNL     1       4.015   3.162  17.863  0.00  0.00    +0.000 C 
ATOM      6  C   UNL     1       2.577   3.243  17.356  0.00  0.00    +0.000 C 
ATOM      7  N   UNL     1       1.677   3.984  18.247  0.00  0.00    +0.000 NA
ATOM      8  C   UNL     1       1.324   3.216  19.441  0.00  0.00    +0.000 C 
ATOM      9  C   UNL     1       2.206   5.312  18.583  0.00  0.00    +0.000 C 
ATOM     10  C   UNL     1       3.646   5.298  19.108  0.00  0.00    +0.000 C 
ATOM     11  O   UNL     1       5.857   4.340  18.838  0.00  0.00    +0.000 OA
ATOM     12  C   UNL     1       6.940   5.027  18.165  0.00  0.00    +0.000 C 
ATOM     13  C   UNL     1       7.859   5.605  19.216  0.00  0.00    +0.000 C 
ENDROOT
BRANCH   1  15
ATOM     14  C   UNL     1       7.759   8.771  17.658  0.00  0.00    +0.000 C 
ATOM     15  O   UNL     1       7.826   7.460  17.111  0.00  0.00    +0.000 OA
ENDBRANCH   1  15
TORSDOF 1
ENDMDL
MODEL 2
REMARK VINA RESULT:      -6.6      0.972      1.056
REMARK  Name = 
REMARK  4 active torsions:
REMARK  status: ('A' for Active; 'I' for Inactive)
REMARK    1  A    between atoms: C_1  and  O_2
REMARK    2  A    between atoms: O_2  and  N_3
REMARK    3  A    between atoms: N_9  and  C_10
REMARK    4  A    between atoms: C_14  and  C_15
REMARK                            x       y       z     vdW  Elec       q    Type
REMARK                         _______ _______ _______ _____ _____    ______ ____
ROOT
ATOM      1  N   UNL     1       6.062   7.336  17.052  0.00  0.00    +0.000 NA
ATOM      2  C   UNL     1       5.572   6.141  17.150  0.00  0.00    +0.000 C 
ATOM      3  C   UNL     1       4.100   5.956  17.270  0.00  0.00    +0.000 C 
ATOM      4  C   UNL     1       4.061   4.628  18.023  0.00  0.00    +0.000 C 
ATOM      5  C   UNL     1       2.979   3.682  17.493  0.00  0.00    +0.000 C 
ATOM      6  C   UNL     1       1.575   4.160  17.857  0.00  0.00    +0.000 C 
ATOM      7  N   UNL     1       1.382   4.387  19.294  0.00  0.00    +0.000 NA
ATOM      8  C   UNL     1       1.263   3.135  20.040  0.00  0.00    +0.000 C 
ATOM      9  C   UNL     1       2.415   5.266  19.855  0.00  0.00    +0.000 C 
ATOM     10  C   UNL     1       3.850   4.834  19.532  0.00  0.00    +0.000 C 
ATOM     11  O   UNL     1       5.333   3.966  17.822  0.00  0.00    +0.000 OA
ATOM     12  C   UNL     1       6.250   4.799  17.072  0.00  0.00    +0.000 C 
ATOM     13  C   UNL     1       7.632   4.628  17.659  0.00  0.00    +0.000 C 
ENDROOT
BRANCH   1  15
ATOM     14  C   UNL     1       8.016   8.347  17.683  0.00  0.00    +0.000 C 
ATOM     15  O   UNL     1       7.448   7.318  16.883  0.00  0.00    +0.000 OA
ENDBRANCH   1  15
TORSDOF 1
ENDMDL
MODEL 3
REMARK VINA RESULT:      -6.5      1.731      2.140
REMARK  Name = 
REMARK  4 active torsions:
REMARK  status: ('A' for Active; 'I' for Inactive)
REMARK    1  A    between atoms: C_1  and  O_2
REMARK    2  A    between atoms: O_2  and  N_3
REMARK    3  A    between atoms: N_9  and  C_10
REMARK    4  A    between atoms: C_14  and  C_15
REMARK                            x       y       z     vdW  Elec       q    Type
REMARK                         _______ _______ _______ _____ _____    ______ ____
ROOT
ATOM      1  N   UNL     1       5.293   5.210  15.702  0.00  0.00    +0.000 NA
ATOM      2  C   UNL     1       5.360   4.593  16.838  0.00  0.00    +0.000 C 
ATOM      3  C   UNL     1       4.178   3.838  17.337  0.00  0.00    +0.000 C 
ATOM      4  C   UNL     1       4.432   3.914  18.842  0.00  0.00    +0.000 C 
ATOM      5  C   UNL     1       4.135   2.590  19.556  0.00  0.00    +0.000 C 
ATOM      6  C   UNL     1       2.638   2.301  19.619  0.00  0.00    +0.000 C 
ATOM      7  N   UNL     1       1.851   3.382  20.222  0.00  0.00    +0.000 NA
ATOM      8  C   UNL     1       2.008   3.437  21.675  0.00  0.00    +0.000 C 
ATOM      9  C   UNL     1       2.123   4.679  19.589  0.00  0.00    +0.000 C 
ATOM     10  C   UNL     1       3.612   5.034  19.503  0.00  0.00    +0.000 C 
ATOM     11  O   UNL     1       5.838   4.193  19.041  0.00  0.00    +0.000 OA
ATOM     12  C   UNL     1       6.519   4.406  17.781  0.00  0.00    +0.000 C 
ATOM     13  C   UNL     1       7.517   5.526  17.966  0.00  0.00    +0.000 C 
ENDROOT
BRANCH   1  15
ATOM     14  C   UNL     1       7.108   5.054  14.317  0.00  0.00    +0.000 C 
ATOM     15  O   UNL     1       6.508   5.808  15.362  0.00  0.00    +0.000 OA
ENDBRANCH   1  15
TORSDOF 1
ENDMDL
MODEL 4
REMARK VINA RESULT:      -6.2      2.019      2.825
REMARK  Name = 
REMARK  4 active torsions:
REMARK  status: ('A' for Active; 'I' for Inactive)
REMARK    1  A    between atoms: C_1  and  O_2
REMARK    2  A    between atoms: O_2  and  N_3
REMARK    3  A    between atoms: N_9  and  C_10
REMARK    4  A    between atoms: C_14  and  C_15
REMARK                            x       y       z     vdW  Elec       q    Type
REMARK                         _______ _______ _______ _____ _____    ______ ____
ROOT
ATOM      1  N   UNL     1       6.869   4.430  16.337  0.00  0.00    +0.000 NA
ATOM      2  C   UNL     1       5.856   4.829  17.040  0.00  0.00    +0.000 C 
ATOM      3  C   UNL     1       5.304   3.945  18.102  0.00  0.00    +0.000 C 
ATOM      4  C   UNL     1       3.858   4.438  18.131  0.00  0.00    +0.000 C 
ATOM      5  C   UNL     1       3.308   4.565  19.556  0.00  0.00    +0.000 C 
ATOM      6  C   UNL     1       3.068   3.201  20.198  0.00  0.00    +0.000 C 
ATOM      7  N   UNL     1       2.205   2.318  19.405  0.00  0.00    +0.000 NA
ATOM      8  C   UNL     1       0.799   2.713  19.470  0.00  0.00    +0.000 C 
ATOM      9  C   UNL     1       2.676   2.187  18.020  0.00  0.00    +0.000 C 
ATOM     10  C   UNL     1       2.928   3.525  17.315  0.00  0.00    +0.000 C 
ATOM     11  O   UNL     1       3.829   5.763  17.549  0.00  0.00    +0.000 OA
ATOM     12  C   UNL     1       5.131   6.149  17.047  0.00  0.00    +0.000 C 
ATOM     13  C   UNL     1       4.935   6.897  15.749  0.00  0.00    +0.000 C 
ENDROOT
BRANCH   1  15
ATOM     14  C   UNL     1       7.236   4.869  14.121  0.00  0.00    +0.000 C 
ATOM     15  O   UNL     1       7.293   5.408  15.435  0.00  0.00    +0.000 OA
ENDBRANCH   1  15
TORSDOF 1
ENDMDL
MODEL 5
REMARK VINA RESULT:      -6.1      1.704      2.349
REMARK  Name = 
REMARK  4 active torsions:
REMARK  status: ('A' for Active; 'I' for Inactive)
REMARK    1  A    between atoms: C_1  and  O_2
REMARK    2  A    between atoms: O_2  and  N_3
REMARK    3  A    between atoms: N_9  and  C_10
REMARK    4  A    between atoms: C_14  and  C_15
REMARK                            x       y       z     vdW  Elec       q    Type
REMARK                         _______ _______ _______ _____ _____    ______ ____
ROOT
ATOM      1  N   UNL     1       6.794   5.479  19.609  0.00  0.00    +0.000 NA
ATOM      2  C   UNL     1       5.774   5.239  18.848  0.00  0.00    +0.000 C 
ATOM      3  C   UNL     1       4.417   5.132  19.450  0.00  0.00    +0.000 C 
ATOM      4  C   UNL     1       3.746   4.215  18.428  0.00  0.00    +0.000 C 
ATOM      5  C   UNL     1       2.312   4.645  18.103  0.00  0.00    +0.000 C 
ATOM      6  C   UNL     1       1.360   4.379  19.267  0.00  0.00    +0.000 C 
ATOM      7  N   UNL     1       1.372   2.989  19.735  0.00  0.00    +0.000 NA
ATOM      8  C   UNL     1       0.671   2.090  18.819  0.00  0.00    +0.000 C 
ATOM      9  C   UNL     1       2.731   2.520  20.032  0.00  0.00    +0.000 C 
ATOM     10  C   UNL     1       3.736   2.750  18.897  0.00  0.00    +0.000 C 
ATOM     11  O   UNL     1       4.500   4.297  17.195  0.00  0.00    +0.000 OA
ATOM     12  C   UNL     1       5.677   5.126  17.350  0.00  0.00    +0.000 C 
ATOM     13  C   UNL     1       6.809   4.489  16.577  0.00  0.00    +0.000 C 
ENDROOT
BRANCH   1  15
ATOM     14  C   UNL     1       8.241   6.995  18.688  0.00  0.00    +0.000 C 
ATOM     15  O   UNL     1       7.973   5.610  18.871  0.00  0.00    +0.000 OA
ENDBRANCH   1  15
TORSDOF 1
ENDMDL
MODEL 6
REMARK VINA RESULT:      -6.1      1.862      5.508
REMARK  Name = 
REMARK  4 active torsions:
REMARK  status: ('A' for Active; 'I' for Inactive)
REMARK    1  A    between atoms: C_1  and  O_2
REMARK    2  A    between atoms: O_2  and  N_3
REMARK    3  A    between atoms: N_9  and  C_10
REMARK    4  A    between atoms: C_14  and  C_15
REMARK                            x       y       z     vdW  Elec       q    Type
REMARK                         _______ _______ _______ _____ _____    ______ ____
ROOT
ATOM      1  N   UNL     1       2.912   2.535  18.682  0.00  0.00    +0.000 NA
ATOM      2  C   UNL     1       3.202   3.796  18.617  0.00  0.00    +0.000 C 
ATOM      3  C   UNL     1       4.230   4.265  17.648  0.00  0.00    +0.000 C 
ATOM      4  C   UNL     1       4.715   5.523  18.366  0.00  0.00    +0.000 C 
ATOM      5  C   UNL     1       4.934   6.700  17.408  0.00  0.00    +0.000 C 
ATOM      6  C   UNL     1       6.159   6.491  16.520  0.00  0.00    +0.000 C 
ATOM      7  N   UNL     1       7.391   6.217  17.267  0.00  0.00    +0.000 NA
ATOM      8  C   UNL     1       7.929   7.417  17.907  0.00  0.00    +0.000 C 
ATOM      9  C   UNL     1       7.222   5.114  18.222  0.00  0.00    +0.000 C 
ATOM     10  C   UNL     1       6.013   5.268  19.151  0.00  0.00    +0.000 C 
ATOM     11  O   UNL     1       3.685   5.927  19.299  0.00  0.00    +0.000 OA
ATOM     12  C   UNL     1       2.593   4.976  19.326  0.00  0.00    +0.000 C 
ATOM     13  C   UNL     1       2.129   4.828  20.756  0.00  0.00    +0.000 C 
ENDROOT
BRANCH   1  15
ATOM     14  C   UNL     1       0.674   2.097  18.875  0.00  0.00    +0.000 C 
ATOM     15  O   UNL     1       1.885   2.285  19.595  0.00  0.00    +0.000 OA
ENDBRANCH   1  15
TORSDOF 1
ENDMDL
MODEL 7
REMARK VINA RESULT:      -6.1      1.544      2.456
REMARK  Name = 
REMARK  4 active torsions:
REMARK  status: ('A' for Active; 'I' for Inactive)
REMARK    1  A    between atoms: C_1  and  O_2
REMARK    2  A    between atoms: O_2  and  N_3
REMARK    3  A    between atoms: N_9  and  C_10
REMARK    4  A    between atoms: C_14  and  C_15
REMARK                            x       y       z     vdW  Elec       q    Type
REMARK                         _______ _______ _______ _____ _____    ______ ____
ROOT
ATOM      1  N   UNL     1       7.027   5.870  18.285  0.00  0.00    +0.000 NA
ATOM      2  C   UNL     1       5.736   5.818  18.193  0.00  0.00    +0.000 C 
ATOM      3  C   UNL     1       4.950   5.130  19.254  0.00  0.00    +0.000 C 
ATOM      4  C   UNL     1       3.723   4.713  18.446  0.00  0.00    +0.000 C 
ATOM      5  C   UNL     1       2.414   4.918  19.216  0.00  0.00    +0.000 C 
ATOM      6  C   UNL     1       2.258   3.910  20.352  0.00  0.00    +0.000 C 
ATOM      7  N   UNL     1       2.373   2.512  19.923  0.00  0.00    +0.000 NA
ATOM      8  C   UNL     1       1.181   2.052  19.210  0.00  0.00    +0.000 C 
ATOM      9  C   UNL     1       3.600   2.273  19.154  0.00  0.00    +0.000 C 
ATOM     10  C   UNL     1       3.811   3.248  17.990  0.00  0.00    +0.000 C 
ATOM     11  O   UNL     1       3.656   5.558  17.272  0.00  0.00    +0.000 OA
ATOM     12  C   UNL     1       4.802   6.440  17.190  0.00  0.00    +0.000 C 
ATOM     13  C   UNL     1       5.223   6.535  15.741  0.00  0.00    +0.000 C 
ENDROOT
BRANCH   1  15
ATOM     14  C   UNL     1       7.956   7.888  17.736  0.00  0.00    +0.000 C 
ATOM     15  O   UNL     1       7.593   6.606  17.242  0.00  0.00    +0.000 OA
ENDBRANCH   1  15
TORSDOF 1
ENDMDL
MODEL 8
REMARK VINA RESULT:      -5.9      2.071      5.508
REMARK  Name = 
REMARK  4 active torsions:
REMARK  status: ('A' for Active; 'I' for Inactive)
REMARK    1  A    between atoms: C_1  and  O_2
REMARK    2  A    between atoms: O_2  and  N_3
REMARK    3  A    between atoms: N_9  and  C_10
REMARK    4  A    between atoms: C_14  and  C_15
REMARK                            x       y       z     vdW  Elec       q    Type
REMARK                         _______ _______ _______ _____ _____    ______ ____
ROOT
ATOM      1  N   UNL     1       2.176   2.990  19.376  0.00  0.00    +0.000 NA
ATOM      2  C   UNL     1       2.577   4.154  18.974  0.00  0.00    +0.000 C 
ATOM      3  C   UNL     1       3.631   4.249  17.927  0.00  0.00    +0.000 C 
ATOM      4  C   UNL     1       4.235   5.606  18.281  0.00  0.00    +0.000 C 
ATOM      5  C   UNL     1       4.546   6.453  17.043  0.00  0.00    +0.000 C 
ATOM      6  C   UNL     1       5.737   5.902  16.261  0.00  0.00    +0.000 C 
ATOM      7  N   UNL     1       6.949   5.734  17.070  0.00  0.00    +0.000 NA
ATOM      8  C   UNL     1       7.599   7.010  17.366  0.00  0.00    +0.000 C 
ATOM      9  C   UNL     1       6.693   4.952  18.286  0.00  0.00    +0.000 C 
ATOM     10  C   UNL     1       5.514   5.460  19.123  0.00  0.00    +0.000 C 
ATOM     11  O   UNL     1       3.255   6.339  19.056  0.00  0.00    +0.000 OA
ATOM     12  C   UNL     1       2.084   5.532  19.326  0.00  0.00    +0.000 C 
ATOM     13  C   UNL     1       1.625   5.821  20.737  0.00  0.00    +0.000 C 
ENDROOT
BRANCH   1  15
ATOM     14  C   UNL     1       1.579   2.512  21.533  0.00  0.00    +0.000 C 
ATOM     15  O   UNL     1       1.142   3.090  20.309  0.00  0.00    +0.000 OA
ENDBRANCH   1  15
TORSDOF 1
ENDMDL
MODEL 9
REMARK VINA RESULT:      -5.8      2.076      5.559
REMARK  Name = 
REMARK  4 active torsions:
REMARK  status: ('A' for Active; 'I' for Inactive)
REMARK    1  A    between atoms: C_1  and  O_2
REMARK    2  A    between atoms: O_2  and  N_3
REMARK    3  A    between atoms: N_9  and  C_10
REMARK    4  A    between atoms: C_14  and  C_15
REMARK                            x       y       z     vdW  Elec       q    Type
REMARK                         _______ _______ _______ _____ _____    ______ ____
ROOT
ATOM      1  N   UNL     1       3.032   2.220  19.703  0.00  0.00    +0.000 NA
ATOM      2  C   UNL     1       3.447   2.955  18.720  0.00  0.00    +0.000 C 
ATOM      3  C   UNL     1       4.908   3.149  18.513  0.00  0.00    +0.000 C 
ATOM      4  C   UNL     1       4.898   4.507  17.813  0.00  0.00    +0.000 C 
ATOM      5  C   UNL     1       5.890   4.576  16.648  0.00  0.00    +0.000 C 
ATOM      6  C   UNL     1       7.337   4.612  17.133  0.00  0.00    +0.000 C 
ATOM      7  N   UNL     1       7.613   5.689  18.091  0.00  0.00    +0.000 NA
ATOM      8  C   UNL     1       7.687   6.999  17.444  0.00  0.00    +0.000 C 
ATOM      9  C   UNL     1       6.667   5.682  19.213  0.00  0.00    +0.000 C 
ATOM     10  C   UNL     1       5.194   5.656  18.792  0.00  0.00    +0.000 C 
ATOM     11  O   UNL     1       3.577   4.708  17.254  0.00  0.00    +0.000 OA
ATOM     12  C   UNL     1       2.681   3.629  17.613  0.00  0.00    +0.000 C 
ATOM     13  C   UNL     1       1.321   4.219  17.901  0.00  0.00    +0.000 C 
ENDROOT
BRANCH   1  15
ATOM     14  C   UNL     1       1.142   2.621  20.930  0.00  0.00    +0.000 C 
ATOM     15  O   UNL     1       1.641   2.095  19.707  0.00  0.00    +0.000 OA
ENDBRANCH   1  15
TORSDOF 1
ENDMDL
