MODEL 1
REMARK VINA RESULT:      -8.7      0.000      0.000
REMARK  Name = 
REMARK  10 active torsions:
REMARK  status: ('A' for Active; 'I' for Inactive)
REMARK    1  A    between atoms: C_1  and  C_2
REMARK    2  A    between atoms: C_2  and  N_3
REMARK    3  A    between atoms: C_2  and  C_29
REMARK    4  A    between atoms: C_4  and  C_6
REMARK    5  A    between atoms: C_8  and  C_9
REMARK    6  A    between atoms: C_9  and  C_10
REMARK    7  A    between atoms: C_11  and  C_12
REMARK    8  A    between atoms: C_29  and  C_30
REMARK    9  A    between atoms: C_29  and  C_31
REMARK   10  A    between atoms: C_29  and  O_32
REMARK                            x       y       z     vdW  Elec       q    Type
REMARK                         _______ _______ _______ _____ _____    ______ ____
ROOT
ATOM      1  C   UNL     1       3.526   4.612  18.331  0.00  0.00    +0.000 A 
ATOM      2  C   UNL     1       4.699   4.059  17.805  0.00  0.00    +0.000 A 
ATOM      3  N   UNL     1       5.059   3.036  18.665  0.00  0.00    +0.000 N 
ATOM      4  C   UNL     1       4.152   2.886  19.682  0.00  0.00    +0.000 A 
ATOM      5  C   UNL     1       4.128   1.990  20.754  0.00  0.00    +0.000 A 
ATOM      6  F   UNL     1       5.115   1.102  20.930  0.00  0.00    +0.000 F 
ATOM      7  C   UNL     1       3.060   2.029  21.645  0.00  0.00    +0.000 A 
ATOM      8  C   UNL     1       2.043   2.946  21.446  0.00  0.00    +0.000 A 
ATOM      9  F   UNL     1       0.997   2.963  22.284  0.00  0.00    +0.000 F 
ATOM     10  C   UNL     1       2.075   3.858  20.390  0.00  0.00    +0.000 A 
ATOM     11  C   UNL     1       3.162   3.837  19.488  0.00  0.00    +0.000 A 
ATOM     12  H   UNL     1       5.888   2.467  18.568  0.00  0.00    +0.000 HD
ENDROOT
BRANCH   2  13
ATOM     13  C   UNL     1       5.512   4.376  16.615  0.00  0.00    +0.000 A 
ATOM     14  C   UNL     1       6.680   5.148  16.710  0.00  0.00    +0.000 A 
ATOM     15  C   UNL     1       7.432   5.474  15.578  0.00  0.00    +0.000 A 
ATOM     16  C   UNL     1       7.039   4.999  14.335  0.00  0.00    +0.000 A 
ATOM     17  F   UNL     1       7.767   5.291  13.255  0.00  0.00    +0.000 F 
ATOM     18  C   UNL     1       5.906   4.208  14.209  0.00  0.00    +0.000 A 
ATOM     19  C   UNL     1       5.139   3.908  15.342  0.00  0.00    +0.000 A 
ENDBRANCH   2  13
BRANCH   1  20
ATOM     20  C   UNL     1       2.720   5.778  17.836  0.00  0.00    +0.000 C 
BRANCH  20  23
ATOM     21  C   UNL     1       1.654   8.554  18.035  0.00  0.00    +0.000 C 
ATOM     22  C   UNL     1       3.097   8.360  17.491  0.00  0.00    +0.000 C 
ATOM     23  C   UNL     1       3.201   7.112  18.409  0.00  0.00    +0.000 C 
ATOM     24  C   UNL     1       2.169   7.842  19.318  0.00  0.00    +0.000 C 
BRANCH  21  26
ATOM     25  N   UNL     1      -0.252  10.066  18.122  0.00  0.00    +0.000 N 
ATOM     26  C   UNL     1       1.126   9.996  18.131  0.00  0.00    +0.000 C 
ATOM     27  O   UNL     1       1.838  10.998  18.227  0.00  0.00    +0.000 OA
ATOM     28  H   UNL     1      -0.795   9.214  18.068  0.00  0.00    +0.000 HD
BRANCH  25  30
ATOM     29  C   UNL     1      -2.348  11.140  17.563  0.00  0.00    +0.000 C 
ATOM     30  C   UNL     1      -0.975  11.340  18.213  0.00  0.00    +0.000 C 
BRANCH  30  31
ATOM     31  C   UNL     1      -1.050  11.853  19.689  0.00  0.00    +0.000 C 
ATOM     32  C   UNL     1      -2.391  12.536  19.999  0.00  0.00    +0.000 C 
ATOM     33  C   UNL     1      -0.844  10.715  20.696  0.00  0.00    +0.000 C 
BRANCH  31  34
ATOM     34  O   UNL     1      -0.003  12.809  19.915  0.00  0.00    +0.000 OA
ATOM     35  H   UNL     1       0.637  12.391  20.517  0.00  0.00    +0.000 HD
ENDBRANCH  31  34
ENDBRANCH  30  31
ENDBRANCH  25  30
ENDBRANCH  21  26
ENDBRANCH  20  23
ENDBRANCH   1  20
TORSDOF 7
ENDMDL
MODEL 2
REMARK VINA RESULT:      -8.7      1.008      1.349
REMARK  Name = 
REMARK  10 active torsions:
REMARK  status: ('A' for Active; 'I' for Inactive)
REMARK    1  A    between atoms: C_1  and  C_2
REMARK    2  A    between atoms: C_2  and  N_3
REMARK    3  A    between atoms: C_2  and  C_29
REMARK    4  A    between atoms: C_4  and  C_6
REMARK    5  A    between atoms: C_8  and  C_9
REMARK    6  A    between atoms: C_9  and  C_10
REMARK    7  A    between atoms: C_11  and  C_12
REMARK    8  A    between atoms: C_29  and  C_30
REMARK    9  A    between atoms: C_29  and  C_31
REMARK   10  A    between atoms: C_29  and  O_32
REMARK                            x       y       z     vdW  Elec       q    Type
REMARK                         _______ _______ _______ _____ _____    ______ ____
ROOT
ATOM      1  C   UNL     1       3.482   4.569  18.271  0.00  0.00    +0.000 A 
ATOM      2  C   UNL     1       4.699   4.060  17.805  0.00  0.00    +0.000 A 
ATOM      3  N   UNL     1       5.073   3.077  18.705  0.00  0.00    +0.000 N 
ATOM      4  C   UNL     1       4.136   2.908  19.690  0.00  0.00    +0.000 A 
ATOM      5  C   UNL     1       4.111   2.039  20.783  0.00  0.00    +0.000 A 
ATOM      6  F   UNL     1       5.131   1.204  21.020  0.00  0.00    +0.000 F 
ATOM      7  C   UNL     1       3.009   2.048  21.632  0.00  0.00    +0.000 A 
ATOM      8  C   UNL     1       1.958   2.911  21.370  0.00  0.00    +0.000 A 
ATOM      9  F   UNL     1       0.880   2.898  22.167  0.00  0.00    +0.000 F 
ATOM     10  C   UNL     1       1.989   3.798  20.293  0.00  0.00    +0.000 A 
ATOM     11  C   UNL     1       3.110   3.806  19.434  0.00  0.00    +0.000 A 
ATOM     12  H   UNL     1       5.931   2.545  18.654  0.00  0.00    +0.000 HD
ENDROOT
BRANCH   2  13
ATOM     13  C   UNL     1       5.543   4.386  16.638  0.00  0.00    +0.000 A 
ATOM     14  C   UNL     1       6.482   5.428  16.681  0.00  0.00    +0.000 A 
ATOM     15  C   UNL     1       7.257   5.757  15.567  0.00  0.00    +0.000 A 
ATOM     16  C   UNL     1       7.126   5.019  14.399  0.00  0.00    +0.000 A 
ATOM     17  F   UNL     1       7.880   5.317  13.339  0.00  0.00    +0.000 F 
ATOM     18  C   UNL     1       6.228   3.962  14.331  0.00  0.00    +0.000 A 
ATOM     19  C   UNL     1       5.432   3.655  15.441  0.00  0.00    +0.000 A 
ENDBRANCH   2  13
BRANCH   1  20
ATOM     20  C   UNL     1       2.642   5.683  17.715  0.00  0.00    +0.000 C 
BRANCH  20  23
ATOM     21  C   UNL     1       1.489   8.134  18.956  0.00  0.00    +0.000 C 
ATOM     22  C   UNL     1       2.329   8.295  17.658  0.00  0.00    +0.000 C 
ATOM     23  C   UNL     1       3.155   7.066  18.122  0.00  0.00    +0.000 C 
ATOM     24  C   UNL     1       2.772   7.504  19.567  0.00  0.00    +0.000 C 
BRANCH  21  26
ATOM     25  N   UNL     1       0.238  10.202  18.664  0.00  0.00    +0.000 N 
ATOM     26  C   UNL     1       0.905   9.414  19.579  0.00  0.00    +0.000 C 
ATOM     27  O   UNL     1       0.993   9.716  20.771  0.00  0.00    +0.000 OA
ATOM     28  H   UNL     1       0.170   9.900  17.700  0.00  0.00    +0.000 HD
BRANCH  25  30
ATOM     29  C   UNL     1       0.558  12.602  18.678  0.00  0.00    +0.000 C 
ATOM     30  C   UNL     1      -0.407  11.467  19.037  0.00  0.00    +0.000 C 
BRANCH  30  31
ATOM     31  C   UNL     1      -1.816  11.610  18.373  0.00  0.00    +0.000 C 
ATOM     32  C   UNL     1      -2.392  10.254  17.936  0.00  0.00    +0.000 C 
ATOM     33  C   UNL     1      -2.823  12.280  19.315  0.00  0.00    +0.000 C 
BRANCH  31  34
ATOM     34  O   UNL     1      -1.712  12.444  17.208  0.00  0.00    +0.000 OA
ATOM     35  H   UNL     1      -1.678  13.363  17.521  0.00  0.00    +0.000 HD
ENDBRANCH  31  34
ENDBRANCH  30  31
ENDBRANCH  25  30
ENDBRANCH  21  26
ENDBRANCH  20  23
ENDBRANCH   1  20
TORSDOF 7
ENDMDL
MODEL 3
REMARK VINA RESULT:      -8.6      0.529      1.148
REMARK  Name = 
REMARK  10 active torsions:
REMARK  status: ('A' for Active; 'I' for Inactive)
REMARK    1  A    between atoms: C_1  and  C_2
REMARK    2  A    between atoms: C_2  and  N_3
REMARK    3  A    between atoms: C_2  and  C_29
REMARK    4  A    between atoms: C_4  and  C_6
REMARK    5  A    between atoms: C_8  and  C_9
REMARK    6  A    between atoms: C_9  and  C_10
REMARK    7  A    between atoms: C_11  and  C_12
REMARK    8  A    between atoms: C_29  and  C_30
REMARK    9  A    between atoms: C_29  and  C_31
REMARK   10  A    between atoms: C_29  and  O_32
REMARK                            x       y       z     vdW  Elec       q    Type
REMARK                         _______ _______ _______ _____ _____    ______ ____
ROOT
ATOM      1  C   UNL     1       3.511   4.614  18.353  0.00  0.00    +0.000 A 
ATOM      2  C   UNL     1       4.682   4.062  17.822  0.00  0.00    +0.000 A 
ATOM      3  N   UNL     1       5.046   3.037  18.678  0.00  0.00    +0.000 N 
ATOM      4  C   UNL     1       4.143   2.884  19.698  0.00  0.00    +0.000 A 
ATOM      5  C   UNL     1       4.123   1.985  20.767  0.00  0.00    +0.000 A 
ATOM      6  F   UNL     1       5.110   1.097  20.937  0.00  0.00    +0.000 F 
ATOM      7  C   UNL     1       3.058   2.022  21.662  0.00  0.00    +0.000 A 
ATOM      8  C   UNL     1       2.040   2.939  21.469  0.00  0.00    +0.000 A 
ATOM      9  F   UNL     1       0.997   2.954  22.311  0.00  0.00    +0.000 F 
ATOM     10  C   UNL     1       2.068   3.855  20.416  0.00  0.00    +0.000 A 
ATOM     11  C   UNL     1       3.151   3.836  19.510  0.00  0.00    +0.000 A 
ATOM     12  H   UNL     1       5.874   2.468  18.576  0.00  0.00    +0.000 HD
ENDROOT
BRANCH   2  13
ATOM     13  C   UNL     1       5.491   4.383  16.629  0.00  0.00    +0.000 A 
ATOM     14  C   UNL     1       5.033   4.093  15.335  0.00  0.00    +0.000 A 
ATOM     15  C   UNL     1       5.812   4.367  14.208  0.00  0.00    +0.000 A 
ATOM     16  C   UNL     1       7.052   4.972  14.363  0.00  0.00    +0.000 A 
ATOM     17  F   UNL     1       7.790   5.255  13.287  0.00  0.00    +0.000 F 
ATOM     18  C   UNL     1       7.522   5.300  15.628  0.00  0.00    +0.000 A 
ATOM     19  C   UNL     1       6.750   4.996  16.755  0.00  0.00    +0.000 A 
ENDBRANCH   2  13
BRANCH   1  20
ATOM     20  C   UNL     1       2.703   5.782  17.864  0.00  0.00    +0.000 C 
BRANCH  20  23
ATOM     21  C   UNL     1       1.676   8.575  18.012  0.00  0.00    +0.000 C 
ATOM     22  C   UNL     1       3.124   8.352  17.492  0.00  0.00    +0.000 C 
ATOM     23  C   UNL     1       3.197   7.115  18.427  0.00  0.00    +0.000 C 
ATOM     24  C   UNL     1       2.163   7.873  19.312  0.00  0.00    +0.000 C 
BRANCH  21  26
ATOM     25  N   UNL     1      -0.206  10.112  18.141  0.00  0.00    +0.000 N 
ATOM     26  C   UNL     1       1.169  10.026  18.082  0.00  0.00    +0.000 C 
ATOM     27  O   UNL     1       1.895  11.022  18.105  0.00  0.00    +0.000 OA
ATOM     28  H   UNL     1      -0.760   9.265  18.145  0.00  0.00    +0.000 HD
BRANCH  25  30
ATOM     29  C   UNL     1      -2.221  11.257  17.439  0.00  0.00    +0.000 C 
ATOM     30  C   UNL     1      -0.911  11.398  18.221  0.00  0.00    +0.000 C 
BRANCH  30  31
ATOM     31  C   UNL     1      -1.114  11.848  19.706  0.00  0.00    +0.000 C 
ATOM     32  C   UNL     1      -0.804  10.720  20.702  0.00  0.00    +0.000 C 
ATOM     33  C   UNL     1      -0.237  13.056  20.057  0.00  0.00    +0.000 C 
BRANCH  31  34
ATOM     34  O   UNL     1      -2.479  12.250  19.900  0.00  0.00    +0.000 OA
ATOM     35  H   UNL     1      -2.907  12.230  19.027  0.00  0.00    +0.000 HD
ENDBRANCH  31  34
ENDBRANCH  30  31
ENDBRANCH  25  30
ENDBRANCH  21  26
ENDBRANCH  20  23
ENDBRANCH   1  20
TORSDOF 7
ENDMDL
MODEL 4
REMARK VINA RESULT:      -8.5      1.098      1.523
REMARK  Name = 
REMARK  10 active torsions:
REMARK  status: ('A' for Active; 'I' for Inactive)
REMARK    1  A    between atoms: C_1  and  C_2
REMARK    2  A    between atoms: C_2  and  N_3
REMARK    3  A    between atoms: C_2  and  C_29
REMARK    4  A    between atoms: C_4  and  C_6
REMARK    5  A    between atoms: C_8  and  C_9
REMARK    6  A    between atoms: C_9  and  C_10
REMARK    7  A    between atoms: C_11  and  C_12
REMARK    8  A    between atoms: C_29  and  C_30
REMARK    9  A    between atoms: C_29  and  C_31
REMARK   10  A    between atoms: C_29  and  O_32
REMARK                            x       y       z     vdW  Elec       q    Type
REMARK                         _______ _______ _______ _____ _____    ______ ____
ROOT
ATOM      1  C   UNL     1       3.566   4.716  18.238  0.00  0.00    +0.000 A 
ATOM      2  C   UNL     1       4.740   4.150  17.729  0.00  0.00    +0.000 A 
ATOM      3  N   UNL     1       5.088   3.137  18.605  0.00  0.00    +0.000 N 
ATOM      4  C   UNL     1       4.172   3.004  19.616  0.00  0.00    +0.000 A 
ATOM      5  C   UNL     1       4.135   2.122  20.699  0.00  0.00    +0.000 A 
ATOM      6  F   UNL     1       5.115   1.231  20.894  0.00  0.00    +0.000 F 
ATOM      7  C   UNL     1       3.060   2.177  21.581  0.00  0.00    +0.000 A 
ATOM      8  C   UNL     1       2.049   3.097  21.362  0.00  0.00    +0.000 A 
ATOM      9  F   UNL     1       0.996   3.130  22.191  0.00  0.00    +0.000 F 
ATOM     10  C   UNL     1       2.094   3.996  20.295  0.00  0.00    +0.000 A 
ATOM     11  C   UNL     1       3.188   3.958  19.402  0.00  0.00    +0.000 A 
ATOM     12  H   UNL     1       5.914   2.562  18.522  0.00  0.00    +0.000 HD
ENDROOT
BRANCH   2  13
ATOM     13  C   UNL     1       5.564   4.448  16.541  0.00  0.00    +0.000 A 
ATOM     14  C   UNL     1       6.748   5.195  16.640  0.00  0.00    +0.000 A 
ATOM     15  C   UNL     1       7.511   5.504  15.511  0.00  0.00    +0.000 A 
ATOM     16  C   UNL     1       7.113   5.035  14.266  0.00  0.00    +0.000 A 
ATOM     17  F   UNL     1       7.852   5.310  13.189  0.00  0.00    +0.000 F 
ATOM     18  C   UNL     1       5.964   4.268  14.137  0.00  0.00    +0.000 A 
ATOM     19  C   UNL     1       5.187   3.986  15.267  0.00  0.00    +0.000 A 
ENDBRANCH   2  13
BRANCH   1  20
ATOM     20  C   UNL     1       2.769   5.880  17.722  0.00  0.00    +0.000 C 
BRANCH  20  23
ATOM     21  C   UNL     1       1.328   8.380  18.464  0.00  0.00    +0.000 C 
ATOM     22  C   UNL     1       2.693   8.511  17.733  0.00  0.00    +0.000 C 
ATOM     23  C   UNL     1       3.116   7.190  18.432  0.00  0.00    +0.000 C 
ATOM     24  C   UNL     1       2.121   7.606  19.555  0.00  0.00    +0.000 C 
BRANCH  21  26
ATOM     25  N   UNL     1      -0.595   9.844  18.174  0.00  0.00    +0.000 N 
ATOM     26  C   UNL     1       0.603   9.685  18.839  0.00  0.00    +0.000 C 
ATOM     27  O   UNL     1       1.018  10.506  19.659  0.00  0.00    +0.000 OA
ATOM     28  H   UNL     1      -0.907   9.130  17.529  0.00  0.00    +0.000 HD
BRANCH  25  30
ATOM     29  C   UNL     1      -0.697  12.247  17.895  0.00  0.00    +0.000 C 
ATOM     30  C   UNL     1      -1.461  11.012  18.383  0.00  0.00    +0.000 C 
BRANCH  30  31
ATOM     31  C   UNL     1      -2.852  10.823  17.693  0.00  0.00    +0.000 C 
ATOM     32  C   UNL     1      -3.939  11.704  18.329  0.00  0.00    +0.000 C 
ATOM     33  C   UNL     1      -2.791  11.139  16.195  0.00  0.00    +0.000 C 
BRANCH  31  34
ATOM     34  O   UNL     1      -3.264   9.452  17.817  0.00  0.00    +0.000 OA
ATOM     35  H   UNL     1      -3.515   9.315  18.746  0.00  0.00    +0.000 HD
ENDBRANCH  31  34
ENDBRANCH  30  31
ENDBRANCH  25  30
ENDBRANCH  21  26
ENDBRANCH  20  23
ENDBRANCH   1  20
TORSDOF 7
ENDMDL
MODEL 5
REMARK VINA RESULT:      -8.3      1.407      1.978
REMARK  Name = 
REMARK  10 active torsions:
REMARK  status: ('A' for Active; 'I' for Inactive)
REMARK    1  A    between atoms: C_1  and  C_2
REMARK    2  A    between atoms: C_2  and  N_3
REMARK    3  A    between atoms: C_2  and  C_29
REMARK    4  A    between atoms: C_4  and  C_6
REMARK    5  A    between atoms: C_8  and  C_9
REMARK    6  A    between atoms: C_9  and  C_10
REMARK    7  A    between atoms: C_11  and  C_12
REMARK    8  A    between atoms: C_29  and  C_30
REMARK    9  A    between atoms: C_29  and  C_31
REMARK   10  A    between atoms: C_29  and  O_32
REMARK                            x       y       z     vdW  Elec       q    Type
REMARK                         _______ _______ _______ _____ _____    ______ ____
ROOT
ATOM      1  C   UNL     1       3.489   4.628  18.290  0.00  0.00    +0.000 A 
ATOM      2  C   UNL     1       4.696   4.114  17.804  0.00  0.00    +0.000 A 
ATOM      3  N   UNL     1       5.081   3.129  18.696  0.00  0.00    +0.000 N 
ATOM      4  C   UNL     1       4.159   2.962  19.697  0.00  0.00    +0.000 A 
ATOM      5  C   UNL     1       4.150   2.092  20.789  0.00  0.00    +0.000 A 
ATOM      6  F   UNL     1       5.170   1.253  21.008  0.00  0.00    +0.000 F 
ATOM      7  C   UNL     1       3.062   2.105  21.656  0.00  0.00    +0.000 A 
ATOM      8  C   UNL     1       2.010   2.972  21.413  0.00  0.00    +0.000 A 
ATOM      9  F   UNL     1       0.946   2.963  22.227  0.00  0.00    +0.000 F 
ATOM     10  C   UNL     1       2.026   3.860  20.336  0.00  0.00    +0.000 A 
ATOM     11  C   UNL     1       3.133   3.865  19.458  0.00  0.00    +0.000 A 
ATOM     12  H   UNL     1       5.936   2.594  18.630  0.00  0.00    +0.000 HD
ENDROOT
BRANCH   2  13
ATOM     13  C   UNL     1       5.521   4.439  16.623  0.00  0.00    +0.000 A 
ATOM     14  C   UNL     1       5.163   4.005  15.338  0.00  0.00    +0.000 A 
ATOM     15  C   UNL     1       5.961   4.285  14.225  0.00  0.00    +0.000 A 
ATOM     16  C   UNL     1       7.116   5.039  14.383  0.00  0.00    +0.000 A 
ATOM     17  F   UNL     1       7.869   5.326  13.320  0.00  0.00    +0.000 F 
ATOM     18  C   UNL     1       7.484   5.510  15.637  0.00  0.00    +0.000 A 
ATOM     19  C   UNL     1       6.696   5.201  16.753  0.00  0.00    +0.000 A 
ENDBRANCH   2  13
BRANCH   1  20
ATOM     20  C   UNL     1       2.644   5.746  17.750  0.00  0.00    +0.000 C 
BRANCH  20  23
ATOM     21  C   UNL     1       1.291   8.367  18.169  0.00  0.00    +0.000 C 
ATOM     22  C   UNL     1       2.691   8.364  17.493  0.00  0.00    +0.000 C 
ATOM     23  C   UNL     1       3.021   7.106  18.340  0.00  0.00    +0.000 C 
ATOM     24  C   UNL     1       2.000   7.676  19.368  0.00  0.00    +0.000 C 
BRANCH  21  26
ATOM     25  N   UNL     1       1.361  10.592  19.155  0.00  0.00    +0.000 N 
ATOM     26  C   UNL     1       0.613   9.732  18.377  0.00  0.00    +0.000 C 
ATOM     27  O   UNL     1      -0.473  10.056  17.892  0.00  0.00    +0.000 OA
ATOM     28  H   UNL     1       2.260  10.290  19.509  0.00  0.00    +0.000 HD
BRANCH  25  30
ATOM     29  C   UNL     1       0.843  12.068  21.003  0.00  0.00    +0.000 C 
ATOM     30  C   UNL     1       0.914  11.953  19.477  0.00  0.00    +0.000 C 
BRANCH  30  31
ATOM     31  C   UNL     1       1.831  13.030  18.810  0.00  0.00    +0.000 C 
ATOM     32  C   UNL     1       1.027  14.226  18.275  0.00  0.00    +0.000 C 
ATOM     33  C   UNL     1       2.889  13.557  19.785  0.00  0.00    +0.000 C 
BRANCH  31  34
ATOM     34  O   UNL     1       2.535  12.439  17.706  0.00  0.00    +0.000 OA
ATOM     35  H   UNL     1       3.028  13.154  17.269  0.00  0.00    +0.000 HD
ENDBRANCH  31  34
ENDBRANCH  30  31
ENDBRANCH  25  30
ENDBRANCH  21  26
ENDBRANCH  20  23
ENDBRANCH   1  20
TORSDOF 7
ENDMDL
MODEL 6
REMARK VINA RESULT:      -8.0      1.057      1.655
REMARK  Name = 
REMARK  10 active torsions:
REMARK  status: ('A' for Active; 'I' for Inactive)
REMARK    1  A    between atoms: C_1  and  C_2
REMARK    2  A    between atoms: C_2  and  N_3
REMARK    3  A    between atoms: C_2  and  C_29
REMARK    4  A    between atoms: C_4  and  C_6
REMARK    5  A    between atoms: C_8  and  C_9
REMARK    6  A    between atoms: C_9  and  C_10
REMARK    7  A    between atoms: C_11  and  C_12
REMARK    8  A    between atoms: C_29  and  C_30
REMARK    9  A    between atoms: C_29  and  C_31
REMARK   10  A    between atoms: C_29  and  O_32
REMARK                            x       y       z     vdW  Elec       q    Type
REMARK                         _______ _______ _______ _____ _____    ______ ____
ROOT
ATOM      1  C   UNL     1       3.504   4.661  18.258  0.00  0.00    +0.000 A 
ATOM      2  C   UNL     1       4.690   4.122  17.748  0.00  0.00    +0.000 A 
ATOM      3  N   UNL     1       5.060   3.114  18.620  0.00  0.00    +0.000 N 
ATOM      4  C   UNL     1       4.148   2.958  19.632  0.00  0.00    +0.000 A 
ATOM      5  C   UNL     1       4.130   2.073  20.712  0.00  0.00    +0.000 A 
ATOM      6  F   UNL     1       5.129   1.203  20.904  0.00  0.00    +0.000 F 
ATOM      7  C   UNL     1       3.054   2.103  21.594  0.00  0.00    +0.000 A 
ATOM      8  C   UNL     1       2.023   3.001  21.378  0.00  0.00    +0.000 A 
ATOM      9  F   UNL     1       0.970   3.009  22.207  0.00  0.00    +0.000 F 
ATOM     10  C   UNL     1       2.049   3.904  20.314  0.00  0.00    +0.000 A 
ATOM     11  C   UNL     1       3.143   3.892  19.420  0.00  0.00    +0.000 A 
ATOM     12  H   UNL     1       5.899   2.557  18.535  0.00  0.00    +0.000 HD
ENDROOT
BRANCH   2  13
ATOM     13  C   UNL     1       5.507   4.441  16.560  0.00  0.00    +0.000 A 
ATOM     14  C   UNL     1       5.185   3.935  15.292  0.00  0.00    +0.000 A 
ATOM     15  C   UNL     1       5.977   4.212  14.174  0.00  0.00    +0.000 A 
ATOM     16  C   UNL     1       7.088   5.033  14.308  0.00  0.00    +0.000 A 
ATOM     17  F   UNL     1       7.834   5.316  13.239  0.00  0.00    +0.000 F 
ATOM     18  C   UNL     1       7.418   5.574  15.543  0.00  0.00    +0.000 A 
ATOM     19  C   UNL     1       6.639   5.271  16.665  0.00  0.00    +0.000 A 
ENDBRANCH   2  13
BRANCH   1  20
ATOM     20  C   UNL     1       2.683   5.809  17.746  0.00  0.00    +0.000 C 
BRANCH  20  23
ATOM     21  C   UNL     1       1.372   8.284  18.764  0.00  0.00    +0.000 C 
ATOM     22  C   UNL     1       2.497   8.434  17.702  0.00  0.00    +0.000 C 
ATOM     23  C   UNL     1       3.142   7.157  18.305  0.00  0.00    +0.000 C 
ATOM     24  C   UNL     1       2.451   7.580  19.635  0.00  0.00    +0.000 C 
BRANCH  21  26
ATOM     25  N   UNL     1       0.398  10.457  18.263  0.00  0.00    +0.000 N 
ATOM     26  C   UNL     1       0.711   9.575  19.276  0.00  0.00    +0.000 C 
ATOM     27  O   UNL     1       0.459   9.812  20.459  0.00  0.00    +0.000 OA
ATOM     28  H   UNL     1       0.601  10.208  17.303  0.00  0.00    +0.000 HD
BRANCH  25  30
ATOM     29  C   UNL     1      -1.396  11.510  19.503  0.00  0.00    +0.000 C 
ATOM     30  C   UNL     1      -0.248  11.751  18.517  0.00  0.00    +0.000 C 
BRANCH  30  31
ATOM     31  C   UNL     1       0.784  12.820  19.008  0.00  0.00    +0.000 C 
ATOM     32  C   UNL     1       2.143  12.681  18.304  0.00  0.00    +0.000 C 
ATOM     33  C   UNL     1       0.271  14.248  18.786  0.00  0.00    +0.000 C 
BRANCH  31  34
ATOM     34  O   UNL     1       0.997  12.665  20.419  0.00  0.00    +0.000 OA
ATOM     35  H   UNL     1       1.842  13.098  20.628  0.00  0.00    +0.000 HD
ENDBRANCH  31  34
ENDBRANCH  30  31
ENDBRANCH  25  30
ENDBRANCH  21  26
ENDBRANCH  20  23
ENDBRANCH   1  20
TORSDOF 7
ENDMDL
MODEL 7
REMARK VINA RESULT:      -7.9      1.481      1.879
REMARK  Name = 
REMARK  10 active torsions:
REMARK  status: ('A' for Active; 'I' for Inactive)
REMARK    1  A    between atoms: C_1  and  C_2
REMARK    2  A    between atoms: C_2  and  N_3
REMARK    3  A    between atoms: C_2  and  C_29
REMARK    4  A    between atoms: C_4  and  C_6
REMARK    5  A    between atoms: C_8  and  C_9
REMARK    6  A    between atoms: C_9  and  C_10
REMARK    7  A    between atoms: C_11  and  C_12
REMARK    8  A    between atoms: C_29  and  C_30
REMARK    9  A    between atoms: C_29  and  C_31
REMARK   10  A    between atoms: C_29  and  O_32
REMARK                            x       y       z     vdW  Elec       q    Type
REMARK                         _______ _______ _______ _____ _____    ______ ____
ROOT
ATOM      1  C   UNL     1       4.151   5.138  17.765  0.00  0.00    +0.000 A 
ATOM      2  C   UNL     1       4.765   4.271  16.855  0.00  0.00    +0.000 A 
ATOM      3  N   UNL     1       4.437   2.990  17.263  0.00  0.00    +0.000 N 
ATOM      4  C   UNL     1       3.612   3.003  18.358  0.00  0.00    +0.000 A 
ATOM      5  C   UNL     1       3.049   1.951  19.085  0.00  0.00    +0.000 A 
ATOM      6  F   UNL     1       3.309   0.678  18.764  0.00  0.00    +0.000 F 
ATOM      7  C   UNL     1       2.209   2.241  20.155  0.00  0.00    +0.000 A 
ATOM      8  C   UNL     1       1.942   3.562  20.471  0.00  0.00    +0.000 A 
ATOM      9  F   UNL     1       1.107   3.844  21.480  0.00  0.00    +0.000 F 
ATOM     10  C   UNL     1       2.521   4.616  19.762  0.00  0.00    +0.000 A 
ATOM     11  C   UNL     1       3.387   4.333  18.682  0.00  0.00    +0.000 A 
ATOM     12  H   UNL     1       4.762   2.143  16.820  0.00  0.00    +0.000 HD
ENDROOT
BRANCH   2  13
ATOM     13  C   UNL     1       5.616   4.499  15.670  0.00  0.00    +0.000 A 
ATOM     14  C   UNL     1       6.793   5.259  15.749  0.00  0.00    +0.000 A 
ATOM     15  C   UNL     1       7.581   5.501  14.621  0.00  0.00    +0.000 A 
ATOM     16  C   UNL     1       7.216   4.952  13.399  0.00  0.00    +0.000 A 
ATOM     17  F   UNL     1       7.978   5.163  12.325  0.00  0.00    +0.000 F 
ATOM     18  C   UNL     1       6.074   4.169  13.292  0.00  0.00    +0.000 A 
ATOM     19  C   UNL     1       5.272   3.954  14.420  0.00  0.00    +0.000 A 
ENDBRANCH   2  13
BRANCH   1  20
ATOM     20  C   UNL     1       4.204   6.637  17.836  0.00  0.00    +0.000 C 
BRANCH  20  23
ATOM     21  C   UNL     1       2.144   8.521  18.877  0.00  0.00    +0.000 C 
ATOM     22  C   UNL     1       1.661   7.216  18.185  0.00  0.00    +0.000 C 
ATOM     23  C   UNL     1       2.933   7.297  17.299  0.00  0.00    +0.000 C 
ATOM     24  C   UNL     1       2.850   8.835  17.528  0.00  0.00    +0.000 C 
BRANCH  21  26
ATOM     25  N   UNL     1       0.617  10.368  18.449  0.00  0.00    +0.000 N 
ATOM     26  C   UNL     1       1.062   9.479  19.405  0.00  0.00    +0.000 C 
ATOM     27  O   UNL     1       0.608   9.460  20.551  0.00  0.00    +0.000 OA
ATOM     28  H   UNL     1       1.001  10.328  17.513  0.00  0.00    +0.000 HD
BRANCH  25  30
ATOM     29  C   UNL     1       0.236  12.751  18.645  0.00  0.00    +0.000 C 
ATOM     30  C   UNL     1      -0.420  11.369  18.727  0.00  0.00    +0.000 C 
BRANCH  30  31
ATOM     31  C   UNL     1      -1.648  11.202  17.772  0.00  0.00    +0.000 C 
ATOM     32  C   UNL     1      -1.657   9.834  17.072  0.00  0.00    +0.000 C 
ATOM     33  C   UNL     1      -2.976  11.369  18.521  0.00  0.00    +0.000 C 
BRANCH  31  34
ATOM     34  O   UNL     1      -1.606  12.219  16.759  0.00  0.00    +0.000 OA
ATOM     35  H   UNL     1      -1.365  11.779  15.926  0.00  0.00    +0.000 HD
ENDBRANCH  31  34
ENDBRANCH  30  31
ENDBRANCH  25  30
ENDBRANCH  21  26
ENDBRANCH  20  23
ENDBRANCH   1  20
TORSDOF 7
ENDMDL
MODEL 8
REMARK VINA RESULT:      -7.8      2.301      2.789
REMARK  Name = 
REMARK  10 active torsions:
REMARK  status: ('A' for Active; 'I' for Inactive)
REMARK    1  A    between atoms: C_1  and  C_2
REMARK    2  A    between atoms: C_2  and  N_3
REMARK    3  A    between atoms: C_2  and  C_29
REMARK    4  A    between atoms: C_4  and  C_6
REMARK    5  A    between atoms: C_8  and  C_9
REMARK    6  A    between atoms: C_9  and  C_10
REMARK    7  A    between atoms: C_11  and  C_12
REMARK    8  A    between atoms: C_29  and  C_30
REMARK    9  A    between atoms: C_29  and  C_31
REMARK   10  A    between atoms: C_29  and  O_32
REMARK                            x       y       z     vdW  Elec       q    Type
REMARK                         _______ _______ _______ _____ _____    ______ ____
ROOT
ATOM      1  C   UNL     1       3.480   5.339  18.061  0.00  0.00    +0.000 A 
ATOM      2  C   UNL     1       4.856   5.221  18.284  0.00  0.00    +0.000 A 
ATOM      3  N   UNL     1       5.063   3.926  18.726  0.00  0.00    +0.000 N 
ATOM      4  C   UNL     1       3.897   3.206  18.753  0.00  0.00    +0.000 A 
ATOM      5  C   UNL     1       3.652   1.884  19.129  0.00  0.00    +0.000 A 
ATOM      6  F   UNL     1       4.643   1.102  19.576  0.00  0.00    +0.000 F 
ATOM      7  C   UNL     1       2.358   1.381  19.034  0.00  0.00    +0.000 A 
ATOM      8  C   UNL     1       1.345   2.197  18.561  0.00  0.00    +0.000 A 
ATOM      9  F   UNL     1       0.105   1.705  18.438  0.00  0.00    +0.000 F 
ATOM     10  C   UNL     1       1.581   3.527  18.208  0.00  0.00    +0.000 A 
ATOM     11  C   UNL     1       2.888   4.052  18.314  0.00  0.00    +0.000 A 
ATOM     12  H   UNL     1       5.958   3.547  19.002  0.00  0.00    +0.000 HD
ENDROOT
BRANCH   2  13
ATOM     13  C   UNL     1       5.981   6.166  18.140  0.00  0.00    +0.000 A 
ATOM     14  C   UNL     1       7.152   6.033  18.901  0.00  0.00    +0.000 A 
ATOM     15  C   UNL     1       8.203   6.946  18.788  0.00  0.00    +0.000 A 
ATOM     16  C   UNL     1       8.108   7.990  17.878  0.00  0.00    +0.000 A 
ATOM     17  F   UNL     1       9.120   8.852  17.751  0.00  0.00    +0.000 F 
ATOM     18  C   UNL     1       6.977   8.134  17.087  0.00  0.00    +0.000 A 
ATOM     19  C   UNL     1       5.914   7.233  17.225  0.00  0.00    +0.000 A 
ENDBRANCH   2  13
BRANCH   1  20
ATOM     20  C   UNL     1       2.688   6.536  17.620  0.00  0.00    +0.000 C 
BRANCH  20  23
ATOM     21  C   UNL     1       1.046   8.804  18.640  0.00  0.00    +0.000 C 
ATOM     22  C   UNL     1       2.419   9.128  17.986  0.00  0.00    +0.000 C 
ATOM     23  C   UNL     1       2.917   7.755  18.514  0.00  0.00    +0.000 C 
ATOM     24  C   UNL     1       1.862   7.942  19.645  0.00  0.00    +0.000 C 
BRANCH  21  26
ATOM     25  N   UNL     1      -0.769  10.384  18.282  0.00  0.00    +0.000 N 
ATOM     26  C   UNL     1       0.218   9.991  19.161  0.00  0.00    +0.000 C 
ATOM     27  O   UNL     1       0.385  10.536  20.254  0.00  0.00    +0.000 OA
ATOM     28  H   UNL     1      -0.885   9.890  17.407  0.00  0.00    +0.000 HD
BRANCH  25  30
ATOM     29  C   UNL     1      -1.004  12.790  18.131  0.00  0.00    +0.000 C 
ATOM     30  C   UNL     1      -1.688  11.492  18.574  0.00  0.00    +0.000 C 
BRANCH  30  31
ATOM     31  C   UNL     1      -3.088  11.265  17.915  0.00  0.00    +0.000 C 
ATOM     32  C   UNL     1      -3.387   9.776  17.685  0.00  0.00    +0.000 C 
ATOM     33  C   UNL     1      -4.218  11.859  18.763  0.00  0.00    +0.000 C 
BRANCH  31  34
ATOM     34  O   UNL     1      -3.127  11.928  16.641  0.00  0.00    +0.000 OA
ATOM     35  H   UNL     1      -3.914  12.498  16.642  0.00  0.00    +0.000 HD
ENDBRANCH  31  34
ENDBRANCH  30  31
ENDBRANCH  25  30
ENDBRANCH  21  26
ENDBRANCH  20  23
ENDBRANCH   1  20
TORSDOF 7
ENDMDL
MODEL 9
REMARK VINA RESULT:      -7.7      4.747      5.889
REMARK  Name = 
REMARK  10 active torsions:
REMARK  status: ('A' for Active; 'I' for Inactive)
REMARK    1  A    between atoms: C_1  and  C_2
REMARK    2  A    between atoms: C_2  and  N_3
REMARK    3  A    between atoms: C_2  and  C_29
REMARK    4  A    between atoms: C_4  and  C_6
REMARK    5  A    between atoms: C_8  and  C_9
REMARK    6  A    between atoms: C_9  and  C_10
REMARK    7  A    between atoms: C_11  and  C_12
REMARK    8  A    between atoms: C_29  and  C_30
REMARK    9  A    between atoms: C_29  and  C_31
REMARK   10  A    between atoms: C_29  and  O_32
REMARK                            x       y       z     vdW  Elec       q    Type
REMARK                         _______ _______ _______ _____ _____    ______ ____
ROOT
ATOM      1  C   UNL     1       5.090   5.220  17.248  0.00  0.00    +0.000 A 
ATOM      2  C   UNL     1       5.206   4.232  16.263  0.00  0.00    +0.000 A 
ATOM      3  N   UNL     1       4.585   3.106  16.774  0.00  0.00    +0.000 N 
ATOM      4  C   UNL     1       4.044   3.342  18.011  0.00  0.00    +0.000 A 
ATOM      5  C   UNL     1       3.340   2.497  18.872  0.00  0.00    +0.000 A 
ATOM      6  F   UNL     1       3.120   1.217  18.550  0.00  0.00    +0.000 F 
ATOM      7  C   UNL     1       2.866   3.003  20.079  0.00  0.00    +0.000 A 
ATOM      8  C   UNL     1       3.093   4.331  20.395  0.00  0.00    +0.000 A 
ATOM      9  F   UNL     1       2.609   4.829  21.541  0.00  0.00    +0.000 F 
ATOM     10  C   UNL     1       3.816   5.172  19.548  0.00  0.00    +0.000 A 
ATOM     11  C   UNL     1       4.314   4.666  18.327  0.00  0.00    +0.000 A 
ATOM     12  H   UNL     1       4.534   2.213  16.304  0.00  0.00    +0.000 HD
ENDROOT
BRANCH   2  13
ATOM     13  C   UNL     1       5.829   4.219  14.925  0.00  0.00    +0.000 A 
ATOM     14  C   UNL     1       5.221   3.566  13.841  0.00  0.00    +0.000 A 
ATOM     15  C   UNL     1       5.826   3.527  12.582  0.00  0.00    +0.000 A 
ATOM     16  C   UNL     1       7.037   4.175  12.383  0.00  0.00    +0.000 A 
ATOM     17  F   UNL     1       7.606   4.158  11.176  0.00  0.00    +0.000 F 
ATOM     18  C   UNL     1       7.650   4.857  13.426  0.00  0.00    +0.000 A 
ATOM     19  C   UNL     1       7.055   4.868  14.693  0.00  0.00    +0.000 A 
ENDBRANCH   2  13
BRANCH   1  20
ATOM     20  C   UNL     1       5.620   6.624  17.254  0.00  0.00    +0.000 C 
BRANCH  20  23
ATOM     21  C   UNL     1       7.659   8.592  18.175  0.00  0.00    +0.000 C 
ATOM     22  C   UNL     1       7.853   7.935  16.780  0.00  0.00    +0.000 C 
ATOM     23  C   UNL     1       7.146   6.676  17.352  0.00  0.00    +0.000 C 
ATOM     24  C   UNL     1       7.696   7.141  18.733  0.00  0.00    +0.000 C 
BRANCH  21  26
ATOM     25  N   UNL     1       8.572  10.845  18.050  0.00  0.00    +0.000 N 
ATOM     26  C   UNL     1       8.726   9.603  18.631  0.00  0.00    +0.000 C 
ATOM     27  O   UNL     1       9.620   9.361  19.443  0.00  0.00    +0.000 OA
ATOM     28  H   UNL     1       7.806  11.005  17.408  0.00  0.00    +0.000 HD
BRANCH  25  30
ATOM     29  C   UNL     1      10.757  11.755  17.540  0.00  0.00    +0.000 C 
ATOM     30  C   UNL     1       9.470  11.969  18.345  0.00  0.00    +0.000 C 
BRANCH  30  31
ATOM     31  C   UNL     1       8.779  13.344  18.067  0.00  0.00    +0.000 C 
ATOM     32  C   UNL     1       7.449  13.183  17.313  0.00  0.00    +0.000 C 
ATOM     33  C   UNL     1       8.508  14.115  19.364  0.00  0.00    +0.000 C 
BRANCH  31  34
ATOM     34  O   UNL     1       9.647  14.161  17.266  0.00  0.00    +0.000 OA
ATOM     35  H   UNL     1       9.681  15.036  17.687  0.00  0.00    +0.000 HD
ENDBRANCH  31  34
ENDBRANCH  30  31
ENDBRANCH  25  30
ENDBRANCH  21  26
ENDBRANCH  20  23
ENDBRANCH   1  20
TORSDOF 7
ENDMDL
