MODEL 1
REMARK VINA RESULT:      -8.1      0.000      0.000
REMARK  Name = 
REMARK  5 active torsions:
REMARK  status: ('A' for Active; 'I' for Inactive)
REMARK    1  A    between atoms: O_1  and  C_2
REMARK    2  A    between atoms: N_8  and  C_9
REMARK    3  A    between atoms: C_9  and  C_10
REMARK    4  A    between atoms: C_10  and  C_11
REMARK    5  A    between atoms: C_15  and  C_16
REMARK                            x       y       z     vdW  Elec       q    Type
REMARK                         _______ _______ _______ _____ _____    ______ ____
ROOT
ATOM      1  C   UNL     1       0.101   9.770  23.030  0.00  0.00    +0.000 A 
ATOM      2  C   UNL     1      -0.595  10.897  22.618  0.00  0.00    +0.000 A 
ATOM      3  C   UNL     1      -0.580  11.255  21.270  0.00  0.00    +0.000 A 
ATOM      4  C   UNL     1       0.135  10.490  20.335  0.00  0.00    +0.000 A 
ATOM      5  C   UNL     1       0.181  10.837  18.983  0.00  0.00    +0.000 A 
ATOM      6  C   UNL     1       0.897  10.050  18.088  0.00  0.00    +0.000 A 
ATOM      7  N   UNL     1       1.567   8.950  18.507  0.00  0.00    +0.000 N 
ATOM      8  C   UNL     1       1.526   8.588  19.815  0.00  0.00    +0.000 A 
ATOM      9  C   UNL     1       0.827   9.342  20.760  0.00  0.00    +0.000 A 
ATOM     10  C   UNL     1       0.798   8.985  22.117  0.00  0.00    +0.000 A 
ENDROOT
BRANCH   1  11
ATOM     11  O   UNL     1       0.135   9.389  24.337  0.00  0.00    +0.000 OA
ATOM     12  H   UNL     1      -0.326  10.050  24.880  0.00  0.00    +0.000 HD
ENDBRANCH   1  11
BRANCH   7  13
ATOM     13  C   UNL     1       2.305   8.062  17.556  0.00  0.00    +0.000 C 
BRANCH  13  14
ATOM     14  C   UNL     1       3.408   7.213  18.190  0.00  0.00    +0.000 C 
BRANCH  14  15
ATOM     15  C   UNL     1       3.289   5.717  18.014  0.00  0.00    +0.000 A 
ATOM     16  C   UNL     1       4.132   4.988  17.166  0.00  0.00    +0.000 A 
ATOM     17  C   UNL     1       3.978   3.608  17.032  0.00  0.00    +0.000 A 
ATOM     18  C   UNL     1       2.996   2.931  17.755  0.00  0.00    +0.000 A 
ATOM     19  C   UNL     1       2.161   3.630  18.633  0.00  0.00    +0.000 A 
ATOM     20  C   UNL     1       2.327   5.019  18.765  0.00  0.00    +0.000 A 
BRANCH  19  21
ATOM     21  C   UNL     1       1.086   2.921  19.425  0.00  0.00    +0.000 C 
ATOM     22  F   UNL     1       1.555   1.913  20.206  0.00  0.00    +0.000 F 
ATOM     23  F   UNL     1       0.406   3.763  20.248  0.00  0.00    +0.000 F 
ATOM     24  F   UNL     1       0.150   2.361  18.606  0.00  0.00    +0.000 F 
ENDBRANCH  19  21
ENDBRANCH  14  15
ENDBRANCH  13  14
ENDBRANCH   7  13
TORSDOF 5
ENDMDL
MODEL 2
REMARK VINA RESULT:      -7.9      4.264      5.767
REMARK  Name = 
REMARK  5 active torsions:
REMARK  status: ('A' for Active; 'I' for Inactive)
REMARK    1  A    between atoms: O_1  and  C_2
REMARK    2  A    between atoms: N_8  and  C_9
REMARK    3  A    between atoms: C_9  and  C_10
REMARK    4  A    between atoms: C_10  and  C_11
REMARK    5  A    between atoms: C_15  and  C_16
REMARK                            x       y       z     vdW  Elec       q    Type
REMARK                         _______ _______ _______ _____ _____    ______ ____
ROOT
ATOM      1  C   UNL     1       1.662   9.330  18.600  0.00  0.00    +0.000 A 
ATOM      2  C   UNL     1       1.075   9.238  19.854  0.00  0.00    +0.000 A 
ATOM      3  C   UNL     1       1.230   8.067  20.597  0.00  0.00    +0.000 A 
ATOM      4  C   UNL     1       1.967   6.988  20.084  0.00  0.00    +0.000 A 
ATOM      5  C   UNL     1       2.122   5.799  20.800  0.00  0.00    +0.000 A 
ATOM      6  C   UNL     1       2.864   4.755  20.259  0.00  0.00    +0.000 A 
ATOM      7  N   UNL     1       3.435   4.864  19.036  0.00  0.00    +0.000 N 
ATOM      8  C   UNL     1       3.306   6.016  18.328  0.00  0.00    +0.000 A 
ATOM      9  C   UNL     1       2.569   7.096  18.819  0.00  0.00    +0.000 A 
ATOM     10  C   UNL     1       2.415   8.281  18.084  0.00  0.00    +0.000 A 
ENDROOT
BRANCH   1  11
ATOM     11  O   UNL     1       1.523  10.443  17.827  0.00  0.00    +0.000 OA
ATOM     12  H   UNL     1       2.385  10.880  17.729  0.00  0.00    +0.000 HD
ENDBRANCH   1  11
BRANCH   7  13
ATOM     13  C   UNL     1       4.276   3.773  18.454  0.00  0.00    +0.000 C 
BRANCH  13  14
ATOM     14  C   UNL     1       4.061   3.519  16.961  0.00  0.00    +0.000 C 
BRANCH  14  15
ATOM     15  C   UNL     1       5.170   3.967  16.037  0.00  0.00    +0.000 A 
ATOM     16  C   UNL     1       6.255   4.733  16.479  0.00  0.00    +0.000 A 
ATOM     17  C   UNL     1       7.251   5.129  15.586  0.00  0.00    +0.000 A 
ATOM     18  C   UNL     1       7.191   4.751  14.244  0.00  0.00    +0.000 A 
ATOM     19  C   UNL     1       6.134   3.958  13.783  0.00  0.00    +0.000 A 
ATOM     20  C   UNL     1       5.138   3.561  14.691  0.00  0.00    +0.000 A 
BRANCH  19  21
ATOM     21  C   UNL     1       6.042   3.539  12.334  0.00  0.00    +0.000 C 
ATOM     22  F   UNL     1       6.235   2.208  12.135  0.00  0.00    +0.000 F 
ATOM     23  F   UNL     1       4.838   3.841  11.780  0.00  0.00    +0.000 F 
ATOM     24  F   UNL     1       6.976   4.174  11.570  0.00  0.00    +0.000 F 
ENDBRANCH  19  21
ENDBRANCH  14  15
ENDBRANCH  13  14
ENDBRANCH   7  13
TORSDOF 5
ENDMDL
MODEL 3
REMARK VINA RESULT:      -7.8      3.339      7.224
REMARK  Name = 
REMARK  5 active torsions:
REMARK  status: ('A' for Active; 'I' for Inactive)
REMARK    1  A    between atoms: O_1  and  C_2
REMARK    2  A    between atoms: N_8  and  C_9
REMARK    3  A    between atoms: C_9  and  C_10
REMARK    4  A    between atoms: C_10  and  C_11
REMARK    5  A    between atoms: C_15  and  C_16
REMARK                            x       y       z     vdW  Elec       q    Type
REMARK                         _______ _______ _______ _____ _____    ______ ____
ROOT
ATOM      1  C   UNL     1       1.760   2.652  18.289  0.00  0.00    +0.000 A 
ATOM      2  C   UNL     1       2.971   2.204  17.781  0.00  0.00    +0.000 A 
ATOM      3  C   UNL     1       3.938   3.134  17.397  0.00  0.00    +0.000 A 
ATOM      4  C   UNL     1       3.691   4.510  17.516  0.00  0.00    +0.000 A 
ATOM      5  C   UNL     1       4.635   5.462  17.122  0.00  0.00    +0.000 A 
ATOM      6  C   UNL     1       4.354   6.817  17.260  0.00  0.00    +0.000 A 
ATOM      7  N   UNL     1       3.168   7.237  17.763  0.00  0.00    +0.000 N 
ATOM      8  C   UNL     1       2.241   6.328  18.162  0.00  0.00    +0.000 A 
ATOM      9  C   UNL     1       2.466   4.955  18.044  0.00  0.00    +0.000 A 
ATOM     10  C   UNL     1       1.504   4.011  18.435  0.00  0.00    +0.000 A 
ENDROOT
BRANCH   1  11
ATOM     11  O   UNL     1       0.776   1.786  18.658  0.00  0.00    +0.000 OA
ATOM     12  H   UNL     1       0.938   1.477  19.564  0.00  0.00    +0.000 HD
ENDBRANCH   1  11
BRANCH   7  13
ATOM     13  C   UNL     1       2.862   8.687  17.965  0.00  0.00    +0.000 C 
BRANCH  13  14
ATOM     14  C   UNL     1       1.375   9.044  17.928  0.00  0.00    +0.000 C 
BRANCH  14  15
ATOM     15  C   UNL     1       0.882   9.979  19.008  0.00  0.00    +0.000 A 
ATOM     16  C   UNL     1       0.686  11.347  18.788  0.00  0.00    +0.000 A 
ATOM     17  C   UNL     1       0.235  12.171  19.819  0.00  0.00    +0.000 A 
ATOM     18  C   UNL     1      -0.046  11.641  21.079  0.00  0.00    +0.000 A 
ATOM     19  C   UNL     1       0.110  10.271  21.317  0.00  0.00    +0.000 A 
ATOM     20  C   UNL     1       0.560   9.448  20.270  0.00  0.00    +0.000 A 
BRANCH  19  21
ATOM     21  C   UNL     1      -0.184   9.672  22.672  0.00  0.00    +0.000 C 
ATOM     22  F   UNL     1      -0.967   8.562  22.624  0.00  0.00    +0.000 F 
ATOM     23  F   UNL     1       0.947   9.318  23.340  0.00  0.00    +0.000 F 
ATOM     24  F   UNL     1      -0.834  10.558  23.479  0.00  0.00    +0.000 F 
ENDBRANCH  19  21
ENDBRANCH  14  15
ENDBRANCH  13  14
ENDBRANCH   7  13
TORSDOF 5
ENDMDL
MODEL 4
REMARK VINA RESULT:      -7.7      3.304      3.985
REMARK  Name = 
REMARK  5 active torsions:
REMARK  status: ('A' for Active; 'I' for Inactive)
REMARK    1  A    between atoms: O_1  and  C_2
REMARK    2  A    between atoms: N_8  and  C_9
REMARK    3  A    between atoms: C_9  and  C_10
REMARK    4  A    between atoms: C_10  and  C_11
REMARK    5  A    between atoms: C_15  and  C_16
REMARK                            x       y       z     vdW  Elec       q    Type
REMARK                         _______ _______ _______ _____ _____    ______ ____
ROOT
ATOM      1  C   UNL     1       0.231   9.953  22.438  0.00  0.00    +0.000 A 
ATOM      2  C   UNL     1       0.007  11.015  21.574  0.00  0.00    +0.000 A 
ATOM      3  C   UNL     1       0.367  10.891  20.231  0.00  0.00    +0.000 A 
ATOM      4  C   UNL     1       0.954   9.708  19.756  0.00  0.00    +0.000 A 
ATOM      5  C   UNL     1       1.339   9.564  18.420  0.00  0.00    +0.000 A 
ATOM      6  C   UNL     1       1.913   8.374  17.988  0.00  0.00    +0.000 A 
ATOM      7  N   UNL     1       2.119   7.346  18.844  0.00  0.00    +0.000 N 
ATOM      8  C   UNL     1       1.742   7.460  20.144  0.00  0.00    +0.000 A 
ATOM      9  C   UNL     1       1.164   8.632  20.637  0.00  0.00    +0.000 A 
ATOM     10  C   UNL     1       0.791   8.764  21.983  0.00  0.00    +0.000 A 
ENDROOT
BRANCH   1  11
ATOM     11  O   UNL     1      -0.082  10.032  23.762  0.00  0.00    +0.000 OA
ATOM     12  H   UNL     1       0.036  10.945  24.070  0.00  0.00    +0.000 HD
ENDBRANCH   1  11
BRANCH   7  13
ATOM     13  C   UNL     1       2.691   6.040  18.392  0.00  0.00    +0.000 C 
BRANCH  13  14
ATOM     14  C   UNL     1       3.826   5.497  19.262  0.00  0.00    +0.000 C 
BRANCH  14  15
ATOM     15  C   UNL     1       5.159   5.296  18.578  0.00  0.00    +0.000 A 
ATOM     16  C   UNL     1       6.375   5.329  19.272  0.00  0.00    +0.000 A 
ATOM     17  C   UNL     1       7.580   5.144  18.595  0.00  0.00    +0.000 A 
ATOM     18  C   UNL     1       7.592   4.904  17.220  0.00  0.00    +0.000 A 
ATOM     19  C   UNL     1       6.389   4.834  16.508  0.00  0.00    +0.000 A 
ATOM     20  C   UNL     1       5.179   5.017  17.200  0.00  0.00    +0.000 A 
BRANCH  19  21
ATOM     21  C   UNL     1       6.374   4.580  15.018  0.00  0.00    +0.000 C 
ATOM     22  F   UNL     1       7.499   4.995  14.379  0.00  0.00    +0.000 F 
ATOM     23  F   UNL     1       6.223   3.262  14.717  0.00  0.00    +0.000 F 
ATOM     24  F   UNL     1       5.336   5.224  14.413  0.00  0.00    +0.000 F 
ENDBRANCH  19  21
ENDBRANCH  14  15
ENDBRANCH  13  14
ENDBRANCH   7  13
TORSDOF 5
ENDMDL
MODEL 5
REMARK VINA RESULT:      -7.7      3.726      5.149
REMARK  Name = 
REMARK  5 active torsions:
REMARK  status: ('A' for Active; 'I' for Inactive)
REMARK    1  A    between atoms: O_1  and  C_2
REMARK    2  A    between atoms: N_8  and  C_9
REMARK    3  A    between atoms: C_9  and  C_10
REMARK    4  A    between atoms: C_10  and  C_11
REMARK    5  A    between atoms: C_15  and  C_16
REMARK                            x       y       z     vdW  Elec       q    Type
REMARK                         _______ _______ _______ _____ _____    ______ ____
ROOT
ATOM      1  C   UNL     1       1.781   9.461  18.327  0.00  0.00    +0.000 A 
ATOM      2  C   UNL     1       1.315   9.614  19.625  0.00  0.00    +0.000 A 
ATOM      3  C   UNL     1       1.278   8.506  20.473  0.00  0.00    +0.000 A 
ATOM      4  C   UNL     1       1.701   7.246  20.021  0.00  0.00    +0.000 A 
ATOM      5  C   UNL     1       1.657   6.118  20.843  0.00  0.00    +0.000 A 
ATOM      6  C   UNL     1       2.090   4.889  20.359  0.00  0.00    +0.000 A 
ATOM      7  N   UNL     1       2.547   4.759  19.091  0.00  0.00    +0.000 N 
ATOM      8  C   UNL     1       2.609   5.846  18.278  0.00  0.00    +0.000 A 
ATOM      9  C   UNL     1       2.185   7.105  18.708  0.00  0.00    +0.000 A 
ATOM     10  C   UNL     1       2.226   8.227  17.867  0.00  0.00    +0.000 A 
ENDROOT
BRANCH   1  11
ATOM     11  O   UNL     1       1.818  10.507  17.455  0.00  0.00    +0.000 OA
ATOM     12  H   UNL     1       2.435  10.305  16.732  0.00  0.00    +0.000 HD
ENDBRANCH   1  11
BRANCH   7  13
ATOM     13  C   UNL     1       3.062   3.458  18.563  0.00  0.00    +0.000 C 
BRANCH  13  14
ATOM     14  C   UNL     1       3.490   3.481  17.094  0.00  0.00    +0.000 C 
BRANCH  14  15
ATOM     15  C   UNL     1       4.890   3.975  16.811  0.00  0.00    +0.000 A 
ATOM     16  C   UNL     1       5.465   3.920  15.535  0.00  0.00    +0.000 A 
ATOM     17  C   UNL     1       6.764   4.382  15.325  0.00  0.00    +0.000 A 
ATOM     18  C   UNL     1       7.503   4.925  16.377  0.00  0.00    +0.000 A 
ATOM     19  C   UNL     1       6.941   5.022  17.655  0.00  0.00    +0.000 A 
ATOM     20  C   UNL     1       5.629   4.557  17.856  0.00  0.00    +0.000 A 
BRANCH  19  21
ATOM     21  C   UNL     1       7.720   5.601  18.813  0.00  0.00    +0.000 C 
ATOM     22  F   UNL     1       8.797   4.856  19.177  0.00  0.00    +0.000 F 
ATOM     23  F   UNL     1       8.186   6.852  18.551  0.00  0.00    +0.000 F 
ATOM     24  F   UNL     1       6.944   5.716  19.928  0.00  0.00    +0.000 F 
ENDBRANCH  19  21
ENDBRANCH  14  15
ENDBRANCH  13  14
ENDBRANCH   7  13
TORSDOF 5
ENDMDL
MODEL 6
REMARK VINA RESULT:      -7.6      3.355      4.236
REMARK  Name = 
REMARK  5 active torsions:
REMARK  status: ('A' for Active; 'I' for Inactive)
REMARK    1  A    between atoms: O_1  and  C_2
REMARK    2  A    between atoms: N_8  and  C_9
REMARK    3  A    between atoms: C_9  and  C_10
REMARK    4  A    between atoms: C_10  and  C_11
REMARK    5  A    between atoms: C_15  and  C_16
REMARK                            x       y       z     vdW  Elec       q    Type
REMARK                         _______ _______ _______ _____ _____    ______ ____
ROOT
ATOM      1  C   UNL     1       0.627  10.111  21.564  0.00  0.00    +0.000 A 
ATOM      2  C   UNL     1       0.660  10.905  20.427  0.00  0.00    +0.000 A 
ATOM      3  C   UNL     1       1.110  10.359  19.224  0.00  0.00    +0.000 A 
ATOM      4  C   UNL     1       1.531   9.022  19.160  0.00  0.00    +0.000 A 
ATOM      5  C   UNL     1       2.003   8.456  17.973  0.00  0.00    +0.000 A 
ATOM      6  C   UNL     1       2.407   7.126  17.951  0.00  0.00    +0.000 A 
ATOM      7  N   UNL     1       2.363   6.364  19.069  0.00  0.00    +0.000 N 
ATOM      8  C   UNL     1       1.898   6.890  20.231  0.00  0.00    +0.000 A 
ATOM      9  C   UNL     1       1.482   8.221  20.315  0.00  0.00    +0.000 A 
ATOM     10  C   UNL     1       1.020   8.777  21.517  0.00  0.00    +0.000 A 
ENDROOT
BRANCH   1  11
ATOM     11  O   UNL     1       0.217  10.602  22.766  0.00  0.00    +0.000 OA
ATOM     12  H   UNL     1       0.192   9.883  23.419  0.00  0.00    +0.000 HD
ENDBRANCH   1  11
BRANCH   7  13
ATOM     13  C   UNL     1       2.748   4.918  19.058  0.00  0.00    +0.000 C 
BRANCH  13  14
ATOM     14  C   UNL     1       4.115   4.610  19.672  0.00  0.00    +0.000 C 
BRANCH  14  15
ATOM     15  C   UNL     1       5.321   4.918  18.815  0.00  0.00    +0.000 A 
ATOM     16  C   UNL     1       6.502   5.455  19.342  0.00  0.00    +0.000 A 
ATOM     17  C   UNL     1       7.586   5.729  18.509  0.00  0.00    +0.000 A 
ATOM     18  C   UNL     1       7.519   5.454  17.142  0.00  0.00    +0.000 A 
ATOM     19  C   UNL     1       6.362   4.886  16.596  0.00  0.00    +0.000 A 
ATOM     20  C   UNL     1       5.276   4.610  17.444  0.00  0.00    +0.000 A 
BRANCH  19  21
ATOM     21  C   UNL     1       6.261   4.581  15.119  0.00  0.00    +0.000 C 
ATOM     22  F   UNL     1       6.129   3.258  14.840  0.00  0.00    +0.000 F 
ATOM     23  F   UNL     1       5.207   5.207  14.530  0.00  0.00    +0.000 F 
ATOM     24  F   UNL     1       7.370   5.001  14.446  0.00  0.00    +0.000 F 
ENDBRANCH  19  21
ENDBRANCH  14  15
ENDBRANCH  13  14
ENDBRANCH   7  13
TORSDOF 5
ENDMDL
MODEL 7
REMARK VINA RESULT:      -7.6      3.838      4.973
REMARK  Name = 
REMARK  5 active torsions:
REMARK  status: ('A' for Active; 'I' for Inactive)
REMARK    1  A    between atoms: O_1  and  C_2
REMARK    2  A    between atoms: N_8  and  C_9
REMARK    3  A    between atoms: C_9  and  C_10
REMARK    4  A    between atoms: C_10  and  C_11
REMARK    5  A    between atoms: C_15  and  C_16
REMARK                            x       y       z     vdW  Elec       q    Type
REMARK                         _______ _______ _______ _____ _____    ______ ____
ROOT
ATOM      1  C   UNL     1       0.531   9.133  21.130  0.00  0.00    +0.000 A 
ATOM      2  C   UNL     1       0.533  10.043  20.083  0.00  0.00    +0.000 A 
ATOM      3  C   UNL     1       1.246   9.746  18.920  0.00  0.00    +0.000 A 
ATOM      4  C   UNL     1       1.959   8.543  18.808  0.00  0.00    +0.000 A 
ATOM      5  C   UNL     1       2.695   8.231  17.662  0.00  0.00    +0.000 A 
ATOM      6  C   UNL     1       3.385   7.026  17.588  0.00  0.00    +0.000 A 
ATOM      7  N   UNL     1       3.368   6.146  18.618  0.00  0.00    +0.000 N 
ATOM      8  C   UNL     1       2.650   6.426  19.736  0.00  0.00    +0.000 A 
ATOM      9  C   UNL     1       1.941   7.621  19.870  0.00  0.00    +0.000 A 
ATOM     10  C   UNL     1       1.214   7.925  21.030  0.00  0.00    +0.000 A 
ENDROOT
BRANCH   1  11
ATOM     11  O   UNL     1      -0.131   9.384  22.294  0.00  0.00    +0.000 OA
ATOM     12  H   UNL     1       0.303  10.116  22.763  0.00  0.00    +0.000 HD
ENDBRANCH   1  11
BRANCH   7  13
ATOM     13  C   UNL     1       4.064   4.825  18.543  0.00  0.00    +0.000 C 
BRANCH  13  14
ATOM     14  C   UNL     1       3.960   4.116  17.190  0.00  0.00    +0.000 C 
BRANCH  14  15
ATOM     15  C   UNL     1       5.115   4.317  16.237  0.00  0.00    +0.000 A 
ATOM     16  C   UNL     1       6.328   4.896  16.632  0.00  0.00    +0.000 A 
ATOM     17  C   UNL     1       7.363   5.066  15.713  0.00  0.00    +0.000 A 
ATOM     18  C   UNL     1       7.213   4.646  14.391  0.00  0.00    +0.000 A 
ATOM     19  C   UNL     1       6.025   4.035  13.977  0.00  0.00    +0.000 A 
ATOM     20  C   UNL     1       4.989   3.863  14.912  0.00  0.00    +0.000 A 
BRANCH  19  21
ATOM     21  C   UNL     1       5.835   3.574  12.550  0.00  0.00    +0.000 C 
ATOM     22  F   UNL     1       6.028   2.240  12.375  0.00  0.00    +0.000 F 
ATOM     23  F   UNL     1       4.591   3.850  12.076  0.00  0.00    +0.000 F 
ATOM     24  F   UNL     1       6.705   4.196  11.705  0.00  0.00    +0.000 F 
ENDBRANCH  19  21
ENDBRANCH  14  15
ENDBRANCH  13  14
ENDBRANCH   7  13
TORSDOF 5
ENDMDL
MODEL 8
REMARK VINA RESULT:      -7.6      5.237      6.979
REMARK  Name = 
REMARK  5 active torsions:
REMARK  status: ('A' for Active; 'I' for Inactive)
REMARK    1  A    between atoms: O_1  and  C_2
REMARK    2  A    between atoms: N_8  and  C_9
REMARK    3  A    between atoms: C_9  and  C_10
REMARK    4  A    between atoms: C_10  and  C_11
REMARK    5  A    between atoms: C_15  and  C_16
REMARK                            x       y       z     vdW  Elec       q    Type
REMARK                         _______ _______ _______ _____ _____    ______ ____
ROOT
ATOM      1  C   UNL     1       2.087   2.771  21.205  0.00  0.00    +0.000 A 
ATOM      2  C   UNL     1       1.073   3.609  20.762  0.00  0.00    +0.000 A 
ATOM      3  C   UNL     1       1.280   4.390  19.624  0.00  0.00    +0.000 A 
ATOM      4  C   UNL     1       2.501   4.337  18.934  0.00  0.00    +0.000 A 
ATOM      5  C   UNL     1       2.740   5.122  17.803  0.00  0.00    +0.000 A 
ATOM      6  C   UNL     1       3.961   5.037  17.145  0.00  0.00    +0.000 A 
ATOM      7  N   UNL     1       4.937   4.209  17.587  0.00  0.00    +0.000 N 
ATOM      8  C   UNL     1       4.722   3.429  18.678  0.00  0.00    +0.000 A 
ATOM      9  C   UNL     1       3.517   3.475  19.383  0.00  0.00    +0.000 A 
ATOM     10  C   UNL     1       3.296   2.687  20.522  0.00  0.00    +0.000 A 
ENDROOT
BRANCH   1  11
ATOM     11  O   UNL     1       1.943   2.004  22.321  0.00  0.00    +0.000 OA
ATOM     12  H   UNL     1       2.664   1.355  22.365  0.00  0.00    +0.000 HD
ENDBRANCH   1  11
BRANCH   7  13
ATOM     13  C   UNL     1       6.241   4.066  16.869  0.00  0.00    +0.000 C 
BRANCH  13  14
ATOM     14  C   UNL     1       6.623   5.251  15.980  0.00  0.00    +0.000 C 
BRANCH  14  15
ATOM     15  C   UNL     1       6.778   4.963  14.505  0.00  0.00    +0.000 A 
ATOM     16  C   UNL     1       7.896   5.376  13.770  0.00  0.00    +0.000 A 
ATOM     17  C   UNL     1       7.990   5.091  12.408  0.00  0.00    +0.000 A 
ATOM     18  C   UNL     1       6.983   4.373  11.762  0.00  0.00    +0.000 A 
ATOM     19  C   UNL     1       5.871   3.919  12.480  0.00  0.00    +0.000 A 
ATOM     20  C   UNL     1       5.787   4.208  13.853  0.00  0.00    +0.000 A 
BRANCH  19  21
ATOM     21  C   UNL     1       4.764   3.143  11.804  0.00  0.00    +0.000 C 
ATOM     22  F   UNL     1       3.675   2.943  12.592  0.00  0.00    +0.000 F 
ATOM     23  F   UNL     1       4.317   3.753  10.674  0.00  0.00    +0.000 F 
ATOM     24  F   UNL     1       5.186   1.905  11.421  0.00  0.00    +0.000 F 
ENDBRANCH  19  21
ENDBRANCH  14  15
ENDBRANCH  13  14
ENDBRANCH   7  13
TORSDOF 5
ENDMDL
MODEL 9
REMARK VINA RESULT:      -7.5      3.700      5.312
REMARK  Name = 
REMARK  5 active torsions:
REMARK  status: ('A' for Active; 'I' for Inactive)
REMARK    1  A    between atoms: O_1  and  C_2
REMARK    2  A    between atoms: N_8  and  C_9
REMARK    3  A    between atoms: C_9  and  C_10
REMARK    4  A    between atoms: C_10  and  C_11
REMARK    5  A    between atoms: C_15  and  C_16
REMARK                            x       y       z     vdW  Elec       q    Type
REMARK                         _______ _______ _______ _____ _____    ______ ____
ROOT
ATOM      1  C   UNL     1       1.883   9.126  18.326  0.00  0.00    +0.000 A 
ATOM      2  C   UNL     1       1.706   9.196  19.700  0.00  0.00    +0.000 A 
ATOM      3  C   UNL     1       1.709   8.019  20.451  0.00  0.00    +0.000 A 
ATOM      4  C   UNL     1       1.884   6.775  19.827  0.00  0.00    +0.000 A 
ATOM      5  C   UNL     1       1.872   5.581  20.553  0.00  0.00    +0.000 A 
ATOM      6  C   UNL     1       2.053   4.368  19.898  0.00  0.00    +0.000 A 
ATOM      7  N   UNL     1       2.230   4.319  18.556  0.00  0.00    +0.000 N 
ATOM      8  C   UNL     1       2.256   5.468  17.832  0.00  0.00    +0.000 A 
ATOM      9  C   UNL     1       2.075   6.715  18.435  0.00  0.00    +0.000 A 
ATOM     10  C   UNL     1       2.080   7.904  17.691  0.00  0.00    +0.000 A 
ENDROOT
BRANCH   1  11
ATOM     11  O   UNL     1       1.867  10.242  17.546  0.00  0.00    +0.000 OA
ATOM     12  H   UNL     1       1.786  11.030  18.109  0.00  0.00    +0.000 HD
ENDBRANCH   1  11
BRANCH   7  13
ATOM     13  C   UNL     1       2.474   3.031  17.836  0.00  0.00    +0.000 C 
BRANCH  13  14
ATOM     14  C   UNL     1       3.945   2.634  17.702  0.00  0.00    +0.000 C 
BRANCH  14  15
ATOM     15  C   UNL     1       4.897   3.723  17.263  0.00  0.00    +0.000 A 
ATOM     16  C   UNL     1       4.883   4.260  15.970  0.00  0.00    +0.000 A 
ATOM     17  C   UNL     1       5.786   5.260  15.610  0.00  0.00    +0.000 A 
ATOM     18  C   UNL     1       6.704   5.754  16.538  0.00  0.00    +0.000 A 
ATOM     19  C   UNL     1       6.717   5.258  17.846  0.00  0.00    +0.000 A 
ATOM     20  C   UNL     1       5.800   4.254  18.201  0.00  0.00    +0.000 A 
BRANCH  19  21
ATOM     21  C   UNL     1       7.703   5.773  18.870  0.00  0.00    +0.000 C 
ATOM     22  F   UNL     1       8.238   6.982  18.557  0.00  0.00    +0.000 F 
ATOM     23  F   UNL     1       7.149   5.903  20.105  0.00  0.00    +0.000 F 
ATOM     24  F   UNL     1       8.757   4.921  19.020  0.00  0.00    +0.000 F 
ENDBRANCH  19  21
ENDBRANCH  14  15
ENDBRANCH  13  14
ENDBRANCH   7  13
TORSDOF 5
ENDMDL
