MODEL 1
REMARK VINA RESULT:      -5.3      0.000      0.000
REMARK  Name = 
REMARK  5 active torsions:
REMARK  status: ('A' for Active; 'I' for Inactive)
REMARK    1  A    between atoms: C_1  and  C_2
REMARK    2  A    between atoms: C_4  and  O_5
REMARK    3  A    between atoms: C_6  and  O_7
REMARK    4  A    between atoms: C_8  and  O_9
REMARK    5  A    between atoms: C_10  and  O_11
REMARK                            x       y       z     vdW  Elec       q    Type
REMARK                         _______ _______ _______ _____ _____    ______ ____
ROOT
ATOM      1  C   UNL     1       4.123   4.812  19.555  0.00  0.00    +0.000 C 
ATOM      2  C   UNL     1       5.032   5.194  18.392  0.00  0.00    +0.000 C 
ATOM      3  O   UNL     1       6.216   4.390  18.489  0.00  0.00    +0.000 OA
ATOM      4  C   UNL     1       7.207   4.765  17.533  0.00  0.00    +0.000 C 
ATOM      5  C   UNL     1       6.691   4.534  16.095  0.00  0.00    +0.000 C 
ATOM      6  C   UNL     1       5.349   5.251  15.880  0.00  0.00    +0.000 C 
ATOM      7  C   UNL     1       4.367   4.943  17.024  0.00  0.00    +0.000 C 
ENDROOT
BRANCH   4   8
ATOM      8  O   UNL     1       8.381   4.010  17.798  0.00  0.00    +0.000 OA
ATOM      9  H   UNL     1       9.024   4.605  18.217  0.00  0.00    +0.000 HD
ENDBRANCH   4   8
BRANCH   5  10
ATOM     10  O   UNL     1       7.651   4.976  15.127  0.00  0.00    +0.000 OA
ATOM     11  H   UNL     1       8.269   5.569  15.602  0.00  0.00    +0.000 HD
ENDBRANCH   5  10
BRANCH   6  12
ATOM     12  O   UNL     1       5.586   6.660  15.708  0.00  0.00    +0.000 OA
ATOM     13  H   UNL     1       5.720   6.870  14.768  0.00  0.00    +0.000 HD
ENDBRANCH   6  12
BRANCH   7  14
ATOM     14  O   UNL     1       3.958   3.573  16.921  0.00  0.00    +0.000 OA
ATOM     15  H   UNL     1       4.444   3.172  16.174  0.00  0.00    +0.000 HD
ENDBRANCH   7  14
TORSDOF 4
ENDMDL
MODEL 2
REMARK VINA RESULT:      -5.3      3.903      4.441
REMARK  Name = 
REMARK  5 active torsions:
REMARK  status: ('A' for Active; 'I' for Inactive)
REMARK    1  A    between atoms: C_1  and  C_2
REMARK    2  A    between atoms: C_4  and  O_5
REMARK    3  A    between atoms: C_6  and  O_7
REMARK    4  A    between atoms: C_8  and  O_9
REMARK    5  A    between atoms: C_10  and  O_11
REMARK                            x       y       z     vdW  Elec       q    Type
REMARK                         _______ _______ _______ _____ _____    ______ ____
ROOT
ATOM      1  C   UNL     1       1.804   5.570  20.662  0.00  0.00    +0.000 C 
ATOM      2  C   UNL     1       2.355   4.569  19.652  0.00  0.00    +0.000 C 
ATOM      3  O   UNL     1       3.380   3.813  20.312  0.00  0.00    +0.000 OA
ATOM      4  C   UNL     1       4.071   2.940  19.419  0.00  0.00    +0.000 C 
ATOM      5  C   UNL     1       3.109   1.879  18.840  0.00  0.00    +0.000 C 
ATOM      6  C   UNL     1       1.886   2.552  18.196  0.00  0.00    +0.000 C 
ATOM      7  C   UNL     1       1.271   3.602  19.137  0.00  0.00    +0.000 C 
ENDROOT
BRANCH   4   8
ATOM      8  O   UNL     1       5.145   2.343  20.132  0.00  0.00    +0.000 OA
ATOM      9  H   UNL     1       4.761   1.727  20.778  0.00  0.00    +0.000 HD
ENDBRANCH   4   8
BRANCH   5  10
ATOM     10  O   UNL     1       3.777   1.044  17.886  0.00  0.00    +0.000 OA
ATOM     11  H   UNL     1       3.642   0.122  18.185  0.00  0.00    +0.000 HD
ENDBRANCH   5  10
BRANCH   6  12
ATOM     12  O   UNL     1       2.263   3.095  16.917  0.00  0.00    +0.000 OA
ATOM     13  H   UNL     1       2.191   4.064  16.924  0.00  0.00    +0.000 HD
ENDBRANCH   6  12
BRANCH   7  14
ATOM     14  O   UNL     1       0.654   2.925  20.239  0.00  0.00    +0.000 OA
ATOM     15  H   UNL     1       1.247   2.197  20.512  0.00  0.00    +0.000 HD
ENDBRANCH   7  14
TORSDOF 4
ENDMDL
MODEL 3
REMARK VINA RESULT:      -5.3      3.321      4.622
REMARK  Name = 
REMARK  5 active torsions:
REMARK  status: ('A' for Active; 'I' for Inactive)
REMARK    1  A    between atoms: C_1  and  C_2
REMARK    2  A    between atoms: C_4  and  O_5
REMARK    3  A    between atoms: C_6  and  O_7
REMARK    4  A    between atoms: C_8  and  O_9
REMARK    5  A    between atoms: C_10  and  O_11
REMARK                            x       y       z     vdW  Elec       q    Type
REMARK                         _______ _______ _______ _____ _____    ______ ____
ROOT
ATOM      1  C   UNL     1       1.702   5.561  20.572  0.00  0.00    +0.000 C 
ATOM      2  C   UNL     1       2.184   4.417  19.687  0.00  0.00    +0.000 C 
ATOM      3  O   UNL     1       3.602   4.301  19.868  0.00  0.00    +0.000 OA
ATOM      4  C   UNL     1       4.187   3.354  18.976  0.00  0.00    +0.000 C 
ATOM      5  C   UNL     1       3.638   1.936  19.249  0.00  0.00    +0.000 C 
ATOM      6  C   UNL     1       2.102   1.933  19.204  0.00  0.00    +0.000 C 
ATOM      7  C   UNL     1       1.520   3.075  20.055  0.00  0.00    +0.000 C 
ENDROOT
BRANCH   4   8
ATOM      8  O   UNL     1       5.598   3.412  19.138  0.00  0.00    +0.000 OA
ATOM      9  H   UNL     1       5.786   4.056  19.840  0.00  0.00    +0.000 HD
ENDBRANCH   4   8
BRANCH   5  10
ATOM     10  O   UNL     1       4.165   0.990  18.310  0.00  0.00    +0.000 OA
ATOM     11  H   UNL     1       5.115   1.201  18.210  0.00  0.00    +0.000 HD
ENDBRANCH   5  10
BRANCH   6  12
ATOM     12  O   UNL     1       1.669   1.977  17.832  0.00  0.00    +0.000 OA
ATOM     13  H   UNL     1       1.189   1.164  17.600  0.00  0.00    +0.000 HD
ENDBRANCH   6  12
BRANCH   7  14
ATOM     14  O   UNL     1       1.747   2.778  21.438  0.00  0.00    +0.000 OA
ATOM     15  H   UNL     1       1.422   3.536  21.964  0.00  0.00    +0.000 HD
ENDBRANCH   7  14
TORSDOF 4
ENDMDL
MODEL 4
REMARK VINA RESULT:      -5.2      2.584      3.619
REMARK  Name = 
REMARK  5 active torsions:
REMARK  status: ('A' for Active; 'I' for Inactive)
REMARK    1  A    between atoms: C_1  and  C_2
REMARK    2  A    between atoms: C_4  and  O_5
REMARK    3  A    between atoms: C_6  and  O_7
REMARK    4  A    between atoms: C_8  and  O_9
REMARK    5  A    between atoms: C_10  and  O_11
REMARK                            x       y       z     vdW  Elec       q    Type
REMARK                         _______ _______ _______ _____ _____    ______ ____
ROOT
ATOM      1  C   UNL     1       0.658   2.724  19.406  0.00  0.00    +0.000 C 
ATOM      2  C   UNL     1       2.056   3.332  19.451  0.00  0.00    +0.000 C 
ATOM      3  O   UNL     1       2.991   2.251  19.565  0.00  0.00    +0.000 OA
ATOM      4  C   UNL     1       4.328   2.709  19.763  0.00  0.00    +0.000 C 
ATOM      5  C   UNL     1       4.812   3.522  18.541  0.00  0.00    +0.000 C 
ATOM      6  C   UNL     1       3.828   4.659  18.224  0.00  0.00    +0.000 C 
ATOM      7  C   UNL     1       2.379   4.144  18.181  0.00  0.00    +0.000 C 
ENDROOT
BRANCH   4   8
ATOM      8  O   UNL     1       5.150   1.575  19.999  0.00  0.00    +0.000 OA
ATOM      9  H   UNL     1       4.898   0.891  19.356  0.00  0.00    +0.000 HD
ENDBRANCH   4   8
BRANCH   5  10
ATOM     10  O   UNL     1       6.127   4.048  18.761  0.00  0.00    +0.000 OA
ATOM     11  H   UNL     1       6.131   4.948  18.375  0.00  0.00    +0.000 HD
ENDBRANCH   5  10
BRANCH   6  12
ATOM     12  O   UNL     1       4.018   5.726  19.172  0.00  0.00    +0.000 OA
ATOM     13  H   UNL     1       3.181   6.196  19.329  0.00  0.00    +0.000 HD
ENDBRANCH   6  12
BRANCH   7  14
ATOM     14  O   UNL     1       2.220   3.322  17.019  0.00  0.00    +0.000 OA
ATOM     15  H   UNL     1       2.084   3.912  16.251  0.00  0.00    +0.000 HD
ENDBRANCH   7  14
TORSDOF 4
ENDMDL
MODEL 5
REMARK VINA RESULT:      -5.2      2.767      3.873
REMARK  Name = 
REMARK  5 active torsions:
REMARK  status: ('A' for Active; 'I' for Inactive)
REMARK    1  A    between atoms: C_1  and  C_2
REMARK    2  A    between atoms: C_4  and  O_5
REMARK    3  A    between atoms: C_6  and  O_7
REMARK    4  A    between atoms: C_8  and  O_9
REMARK    5  A    between atoms: C_10  and  O_11
REMARK                            x       y       z     vdW  Elec       q    Type
REMARK                         _______ _______ _______ _____ _____    ______ ____
ROOT
ATOM      1  C   UNL     1       1.555   2.612  21.530  0.00  0.00    +0.000 C 
ATOM      2  C   UNL     1       2.136   3.313  20.307  0.00  0.00    +0.000 C 
ATOM      3  O   UNL     1       3.513   2.928  20.203  0.00  0.00    +0.000 OA
ATOM      4  C   UNL     1       4.201   3.640  19.175  0.00  0.00    +0.000 C 
ATOM      5  C   UNL     1       3.596   3.316  17.791  0.00  0.00    +0.000 C 
ATOM      6  C   UNL     1       2.081   3.573  17.789  0.00  0.00    +0.000 C 
ATOM      7  C   UNL     1       1.406   2.920  19.007  0.00  0.00    +0.000 C 
ENDROOT
BRANCH   4   8
ATOM      8  O   UNL     1       5.576   3.290  19.243  0.00  0.00    +0.000 OA
ATOM      9  H   UNL     1       5.717   2.815  20.078  0.00  0.00    +0.000 HD
ENDBRANCH   4   8
BRANCH   5  10
ATOM     10  O   UNL     1       4.231   4.082  16.760  0.00  0.00    +0.000 OA
ATOM     11  H   UNL     1       4.867   3.481  16.321  0.00  0.00    +0.000 HD
ENDBRANCH   5  10
BRANCH   6  12
ATOM     12  O   UNL     1       1.841   4.990  17.706  0.00  0.00    +0.000 OA
ATOM     13  H   UNL     1       2.473   5.408  17.098  0.00  0.00    +0.000 HD
ENDBRANCH   6  12
BRANCH   7  14
ATOM     14  O   UNL     1       1.435   1.497  18.839  0.00  0.00    +0.000 OA
ATOM     15  H   UNL     1       2.348   1.194  19.018  0.00  0.00    +0.000 HD
ENDBRANCH   7  14
TORSDOF 4
ENDMDL
MODEL 6
REMARK VINA RESULT:      -5.2      1.414      2.891
REMARK  Name = 
REMARK  5 active torsions:
REMARK  status: ('A' for Active; 'I' for Inactive)
REMARK    1  A    between atoms: C_1  and  C_2
REMARK    2  A    between atoms: C_4  and  O_5
REMARK    3  A    between atoms: C_6  and  O_7
REMARK    4  A    between atoms: C_8  and  O_9
REMARK    5  A    between atoms: C_10  and  O_11
REMARK                            x       y       z     vdW  Elec       q    Type
REMARK                         _______ _______ _______ _____ _____    ______ ____
ROOT
ATOM      1  C   UNL     1       3.572   3.263  17.655  0.00  0.00    +0.000 C 
ATOM      2  C   UNL     1       4.864   3.940  17.207  0.00  0.00    +0.000 C 
ATOM      3  O   UNL     1       4.502   5.156  16.539  0.00  0.00    +0.000 OA
ATOM      4  C   UNL     1       5.627   5.804  15.946  0.00  0.00    +0.000 C 
ATOM      5  C   UNL     1       6.640   6.236  17.030  0.00  0.00    +0.000 C 
ATOM      6  C   UNL     1       7.033   5.040  17.911  0.00  0.00    +0.000 C 
ATOM      7  C   UNL     1       5.788   4.275  18.394  0.00  0.00    +0.000 C 
ENDROOT
BRANCH   4   8
ATOM      8  O   UNL     1       5.150   6.915  15.200  0.00  0.00    +0.000 OA
ATOM      9  H   UNL     1       4.280   6.675  14.840  0.00  0.00    +0.000 HD
ENDBRANCH   4   8
BRANCH   5  10
ATOM     10  O   UNL     1       7.807   6.823  16.439  0.00  0.00    +0.000 OA
ATOM     11  H   UNL     1       8.546   6.648  17.057  0.00  0.00    +0.000 HD
ENDBRANCH   5  10
BRANCH   6  12
ATOM     12  O   UNL     1       7.960   4.207  17.192  0.00  0.00    +0.000 OA
ATOM     13  H   UNL     1       8.042   3.338  17.621  0.00  0.00    +0.000 HD
ENDBRANCH   6  12
BRANCH   7  14
ATOM     14  O   UNL     1       5.091   5.090  19.345  0.00  0.00    +0.000 OA
ATOM     15  H   UNL     1       4.997   5.984  18.960  0.00  0.00    +0.000 HD
ENDBRANCH   7  14
TORSDOF 4
ENDMDL
MODEL 7
REMARK VINA RESULT:      -5.1      2.614      4.347
REMARK  Name = 
REMARK  5 active torsions:
REMARK  status: ('A' for Active; 'I' for Inactive)
REMARK    1  A    between atoms: C_1  and  C_2
REMARK    2  A    between atoms: C_4  and  O_5
REMARK    3  A    between atoms: C_6  and  O_7
REMARK    4  A    between atoms: C_8  and  O_9
REMARK    5  A    between atoms: C_10  and  O_11
REMARK                            x       y       z     vdW  Elec       q    Type
REMARK                         _______ _______ _______ _____ _____    ______ ____
ROOT
ATOM      1  C   UNL     1       0.712   2.385  18.778  0.00  0.00    +0.000 C 
ATOM      2  C   UNL     1       2.236   2.436  18.737  0.00  0.00    +0.000 C 
ATOM      3  O   UNL     1       2.607   3.515  17.869  0.00  0.00    +0.000 OA
ATOM      4  C   UNL     1       4.014   3.566  17.638  0.00  0.00    +0.000 C 
ATOM      5  C   UNL     1       4.772   3.842  18.956  0.00  0.00    +0.000 C 
ATOM      6  C   UNL     1       4.377   2.818  20.032  0.00  0.00    +0.000 C 
ATOM      7  C   UNL     1       2.848   2.679  20.130  0.00  0.00    +0.000 C 
ENDROOT
BRANCH   4   8
ATOM      8  O   UNL     1       4.263   4.573  16.667  0.00  0.00    +0.000 OA
ATOM      9  H   UNL     1       3.894   5.405  17.006  0.00  0.00    +0.000 HD
ENDBRANCH   4   8
BRANCH   5  10
ATOM     10  O   UNL     1       6.190   3.823  18.747  0.00  0.00    +0.000 OA
ATOM     11  H   UNL     1       6.535   3.071  19.270  0.00  0.00    +0.000 HD
ENDBRANCH   5  10
BRANCH   6  12
ATOM     12  O   UNL     1       5.039   1.569  19.761  0.00  0.00    +0.000 OA
ATOM     13  H   UNL     1       5.819   1.710  19.199  0.00  0.00    +0.000 HD
ENDBRANCH   6  12
BRANCH   7  14
ATOM     14  O   UNL     1       2.315   3.882  20.698  0.00  0.00    +0.000 OA
ATOM     15  H   UNL     1       2.169   4.517  19.969  0.00  0.00    +0.000 HD
ENDBRANCH   7  14
TORSDOF 4
ENDMDL
MODEL 8
REMARK VINA RESULT:      -5.1      3.240      5.647
REMARK  Name = 
REMARK  5 active torsions:
REMARK  status: ('A' for Active; 'I' for Inactive)
REMARK    1  A    between atoms: C_1  and  C_2
REMARK    2  A    between atoms: C_4  and  O_5
REMARK    3  A    between atoms: C_6  and  O_7
REMARK    4  A    between atoms: C_8  and  O_9
REMARK    5  A    between atoms: C_10  and  O_11
REMARK                            x       y       z     vdW  Elec       q    Type
REMARK                         _______ _______ _______ _____ _____    ______ ____
ROOT
ATOM      1  C   UNL     1       4.372   3.865  16.867  0.00  0.00    +0.000 C 
ATOM      2  C   UNL     1       3.389   3.926  18.031  0.00  0.00    +0.000 C 
ATOM      3  O   UNL     1       2.422   2.886  17.833  0.00  0.00    +0.000 OA
ATOM      4  C   UNL     1       1.363   2.940  18.787  0.00  0.00    +0.000 C 
ATOM      5  C   UNL     1       1.904   2.707  20.216  0.00  0.00    +0.000 C 
ATOM      6  C   UNL     1       3.045   3.690  20.528  0.00  0.00    +0.000 C 
ATOM      7  C   UNL     1       4.082   3.715  19.392  0.00  0.00    +0.000 C 
ENDROOT
BRANCH   4   8
ATOM      8  O   UNL     1       0.396   1.963  18.426  0.00  0.00    +0.000 OA
ATOM      9  H   UNL     1       0.557   1.720  17.500  0.00  0.00    +0.000 HD
ENDBRANCH   4   8
BRANCH   5  10
ATOM     10  O   UNL     1       0.860   2.833  21.189  0.00  0.00    +0.000 OA
ATOM     11  H   UNL     1       1.016   2.131  21.853  0.00  0.00    +0.000 HD
ENDBRANCH   5  10
BRANCH   6  12
ATOM     12  O   UNL     1       2.488   4.987  20.810  0.00  0.00    +0.000 OA
ATOM     13  H   UNL     1       1.663   5.119  20.314  0.00  0.00    +0.000 HD
ENDBRANCH   6  12
BRANCH   7  14
ATOM     14  O   UNL     1       4.793   2.471  19.393  0.00  0.00    +0.000 OA
ATOM     15  H   UNL     1       4.335   1.865  18.777  0.00  0.00    +0.000 HD
ENDBRANCH   7  14
TORSDOF 4
ENDMDL
MODEL 9
REMARK VINA RESULT:      -5.1      3.301      4.869
REMARK  Name = 
REMARK  5 active torsions:
REMARK  status: ('A' for Active; 'I' for Inactive)
REMARK    1  A    between atoms: C_1  and  C_2
REMARK    2  A    between atoms: C_4  and  O_5
REMARK    3  A    between atoms: C_6  and  O_7
REMARK    4  A    between atoms: C_8  and  O_9
REMARK    5  A    between atoms: C_10  and  O_11
REMARK                            x       y       z     vdW  Elec       q    Type
REMARK                         _______ _______ _______ _____ _____    ______ ____
ROOT
ATOM      1  C   UNL     1       1.869   5.621  20.462  0.00  0.00    +0.000 C 
ATOM      2  C   UNL     1       2.551   4.291  20.158  0.00  0.00    +0.000 C 
ATOM      3  O   UNL     1       1.612   3.482  19.437  0.00  0.00    +0.000 OA
ATOM      4  C   UNL     1       2.090   2.154  19.225  0.00  0.00    +0.000 C 
ATOM      5  C   UNL     1       3.358   2.167  18.342  0.00  0.00    +0.000 C 
ATOM      6  C   UNL     1       4.423   3.100  18.939  0.00  0.00    +0.000 C 
ATOM      7  C   UNL     1       3.821   4.468  19.302  0.00  0.00    +0.000 C 
ENDROOT
BRANCH   4   8
ATOM      8  O   UNL     1       1.043   1.400  18.630  0.00  0.00    +0.000 OA
ATOM      9  H   UNL     1       0.862   1.787  17.758  0.00  0.00    +0.000 HD
ENDBRANCH   4   8
BRANCH   5  10
ATOM     10  O   UNL     1       3.889   0.844  18.184  0.00  0.00    +0.000 OA
ATOM     11  H   UNL     1       4.195   0.779  17.257  0.00  0.00    +0.000 HD
ENDBRANCH   5  10
BRANCH   6  12
ATOM     12  O   UNL     1       5.051   2.448  20.058  0.00  0.00    +0.000 OA
ATOM     13  H   UNL     1       4.963   2.988  20.862  0.00  0.00    +0.000 HD
ENDBRANCH   6  12
BRANCH   7  14
ATOM     14  O   UNL     1       3.503   5.165  18.091  0.00  0.00    +0.000 OA
ATOM     15  H   UNL     1       2.679   5.668  18.243  0.00  0.00    +0.000 HD
ENDBRANCH   7  14
TORSDOF 4
ENDMDL
