MODEL 1
REMARK VINA RESULT:      -7.8      0.000      0.000
REMARK  Name = 
REMARK  7 active torsions:
REMARK  status: ('A' for Active; 'I' for Inactive)
REMARK    1  A    between atoms: C_1  and  C_2
REMARK    2  A    between atoms: C_6  and  C_7
REMARK    3  A    between atoms: C_13  and  C_14
REMARK    4  A    between atoms: N_20  and  C_21
REMARK    5  A    between atoms: C_22  and  C_23
REMARK    6  A    between atoms: N_26  and  C_27
REMARK    7  A    between atoms: N_33  and  C_34
REMARK                            x       y       z     vdW  Elec       q    Type
REMARK                         _______ _______ _______ _____ _____    ______ ____
ROOT
ATOM      1  C   UNL     1      -3.068  10.215  14.618  0.00  0.00    +0.000 C 
ATOM      2  C   UNL     1      -3.417  10.795  15.956  0.00  0.00    +0.000 A 
ATOM      3  N   UNL     1      -2.497  11.104  16.819  0.00  0.00    +0.000 NA
ATOM      4  C   UNL     1      -2.926  11.719  17.958  0.00  0.00    +0.000 A 
ATOM      5  C   UNL     1      -4.244  11.931  18.292  0.00  0.00    +0.000 A 
ATOM      6  C   UNL     1      -4.293  12.472  19.598  0.00  0.00    +0.000 A 
ATOM      7  C   UNL     1      -2.954  12.660  20.020  0.00  0.00    +0.000 A 
ATOM      8  N   UNL     1      -2.081  12.204  18.975  0.00  0.00    +0.000 N 
ATOM      9  C   UNL     1      -5.264  11.551  17.330  0.00  0.00    +0.000 A 
ATOM     10  O   UNL     1      -6.474  11.699  17.452  0.00  0.00    +0.000 OA
ATOM     11  N   UNL     1      -4.753  10.996  16.165  0.00  0.00    +0.000 N 
ATOM     12  H   UNL     1      -5.446  10.723  15.491  0.00  0.00    +0.000 HD
ENDROOT
BRANCH   8  13
ATOM     13  C   UNL     1      -0.637  12.198  18.945  0.00  0.00    +0.000 A 
ATOM     14  C   UNL     1       0.182  11.128  18.779  0.00  0.00    +0.000 A 
ATOM     15  C   UNL     1       0.026   9.665  18.576  0.00  0.00    +0.000 C 
ATOM     16  C   UNL     1       1.582  11.652  18.738  0.00  0.00    +0.000 A 
ATOM     17  O   UNL     1       2.568  10.960  18.530  0.00  0.00    +0.000 OA
ATOM     18  N   UNL     1       1.511  13.003  19.024  0.00  0.00    +0.000 N 
ATOM     19  N   UNL     1       0.150  13.364  19.163  0.00  0.00    +0.000 N 
ATOM     20  C   UNL     1      -0.252  14.757  19.057  0.00  0.00    +0.000 C 
BRANCH  18  21
ATOM     21  C   UNL     1       2.561  13.936  18.953  0.00  0.00    +0.000 A 
ATOM     22  C   UNL     1       3.294  14.281  20.093  0.00  0.00    +0.000 A 
ATOM     23  C   UNL     1       4.439  15.079  19.976  0.00  0.00    +0.000 A 
ATOM     24  C   UNL     1       4.829  15.565  18.730  0.00  0.00    +0.000 A 
ATOM     25  C   UNL     1       4.057  15.293  17.602  0.00  0.00    +0.000 A 
ATOM     26  C   UNL     1       2.920  14.495  17.720  0.00  0.00    +0.000 A 
ENDBRANCH  18  21
ENDBRANCH   8  13
BRANCH   6  27
ATOM     27  C   UNL     1      -5.503  12.769  20.387  0.00  0.00    +0.000 A 
ATOM     28  C   UNL     1      -5.995  14.084  20.461  0.00  0.00    +0.000 A 
ATOM     29  C   UNL     1      -7.167  14.387  21.162  0.00  0.00    +0.000 A 
ATOM     30  C   UNL     1      -7.916  13.366  21.733  0.00  0.00    +0.000 A 
ATOM     31  C   UNL     1      -7.454  12.057  21.666  0.00  0.00    +0.000 A 
ATOM     32  C   UNL     1      -6.230  11.772  21.051  0.00  0.00    +0.000 A 
ENDBRANCH   6  27
BRANCH   7  33
ATOM     33  C   UNL     1      -2.478  13.273  21.293  0.00  0.00    +0.000 A 
ATOM     34  C   UNL     1      -2.574  14.663  21.493  0.00  0.00    +0.000 A 
ATOM     35  C   UNL     1      -2.086  15.269  22.654  0.00  0.00    +0.000 A 
ATOM     36  C   UNL     1      -1.579  14.486  23.683  0.00  0.00    +0.000 A 
ATOM     37  C   UNL     1      -1.511  13.104  23.526  0.00  0.00    +0.000 A 
ATOM     38  C   UNL     1      -1.907  12.508  22.322  0.00  0.00    +0.000 A 
ENDBRANCH   7  33
TORSDOF 4
ENDMDL
MODEL 2
REMARK VINA RESULT:      -7.3      1.818      2.408
REMARK  Name = 
REMARK  7 active torsions:
REMARK  status: ('A' for Active; 'I' for Inactive)
REMARK    1  A    between atoms: C_1  and  C_2
REMARK    2  A    between atoms: C_6  and  C_7
REMARK    3  A    between atoms: C_13  and  C_14
REMARK    4  A    between atoms: N_20  and  C_21
REMARK    5  A    between atoms: C_22  and  C_23
REMARK    6  A    between atoms: N_26  and  C_27
REMARK    7  A    between atoms: N_33  and  C_34
REMARK                            x       y       z     vdW  Elec       q    Type
REMARK                         _______ _______ _______ _____ _____    ______ ____
ROOT
ATOM      1  C   UNL     1      -3.288  10.541  17.084  0.00  0.00    +0.000 C 
ATOM      2  C   UNL     1      -3.598  11.318  18.327  0.00  0.00    +0.000 A 
ATOM      3  N   UNL     1      -2.655  11.856  19.040  0.00  0.00    +0.000 NA
ATOM      4  C   UNL     1      -3.061  12.625  20.090  0.00  0.00    +0.000 A 
ATOM      5  C   UNL     1      -4.367  12.780  20.496  0.00  0.00    +0.000 A 
ATOM      6  C   UNL     1      -4.377  13.541  21.689  0.00  0.00    +0.000 A 
ATOM      7  C   UNL     1      -3.036  13.915  21.953  0.00  0.00    +0.000 A 
ATOM      8  N   UNL     1      -2.198  13.356  20.930  0.00  0.00    +0.000 N 
ATOM      9  C   UNL     1      -5.408  12.147  19.707  0.00  0.00    +0.000 A 
ATOM     10  O   UNL     1      -6.616  12.210  19.907  0.00  0.00    +0.000 OA
ATOM     11  N   UNL     1      -4.928  11.439  18.615  0.00  0.00    +0.000 N 
ATOM     12  H   UNL     1      -5.637  10.990  18.061  0.00  0.00    +0.000 HD
ENDROOT
BRANCH   8  13
ATOM     13  C   UNL     1      -0.767  13.469  20.776  0.00  0.00    +0.000 A 
ATOM     14  C   UNL     1       0.177  12.559  21.128  0.00  0.00    +0.000 A 
ATOM     15  C   UNL     1       0.203  11.209  21.745  0.00  0.00    +0.000 C 
ATOM     16  C   UNL     1       1.497  13.107  20.686  0.00  0.00    +0.000 A 
ATOM     17  O   UNL     1       2.557  12.506  20.788  0.00  0.00    +0.000 OA
ATOM     18  N   UNL     1       1.262  14.386  20.218  0.00  0.00    +0.000 N 
ATOM     19  N   UNL     1      -0.129  14.637  20.269  0.00  0.00    +0.000 N 
ATOM     20  C   UNL     1      -0.709  15.711  19.479  0.00  0.00    +0.000 C 
BRANCH  18  21
ATOM     21  C   UNL     1       2.182  15.228  19.568  0.00  0.00    +0.000 A 
ATOM     22  C   UNL     1       2.837  16.249  20.263  0.00  0.00    +0.000 A 
ATOM     23  C   UNL     1       3.870  16.967  19.646  0.00  0.00    +0.000 A 
ATOM     24  C   UNL     1       4.222  16.693  18.325  0.00  0.00    +0.000 A 
ATOM     25  C   UNL     1       3.517  15.734  17.601  0.00  0.00    +0.000 A 
ATOM     26  C   UNL     1       2.492  15.017  18.218  0.00  0.00    +0.000 A 
ENDBRANCH  18  21
ENDBRANCH   8  13
BRANCH   6  27
ATOM     27  C   UNL     1      -5.551  13.868  22.518  0.00  0.00    +0.000 A 
ATOM     28  C   UNL     1      -6.226  15.089  22.338  0.00  0.00    +0.000 A 
ATOM     29  C   UNL     1      -7.371  15.406  23.076  0.00  0.00    +0.000 A 
ATOM     30  C   UNL     1      -7.913  14.472  23.950  0.00  0.00    +0.000 A 
ATOM     31  C   UNL     1      -7.267  13.255  24.139  0.00  0.00    +0.000 A 
ATOM     32  C   UNL     1      -6.066  12.983  23.474  0.00  0.00    +0.000 A 
ENDBRANCH   6  27
BRANCH   7  33
ATOM     33  C   UNL     1      -2.536  14.785  23.056  0.00  0.00    +0.000 A 
ATOM     34  C   UNL     1      -2.356  14.261  24.350  0.00  0.00    +0.000 A 
ATOM     35  C   UNL     1      -1.941  15.066  25.414  0.00  0.00    +0.000 A 
ATOM     36  C   UNL     1      -1.603  16.394  25.185  0.00  0.00    +0.000 A 
ATOM     37  C   UNL     1      -1.734  16.927  23.905  0.00  0.00    +0.000 A 
ATOM     38  C   UNL     1      -2.245  16.145  22.862  0.00  0.00    +0.000 A 
ENDBRANCH   7  33
TORSDOF 4
ENDMDL
MODEL 3
REMARK VINA RESULT:      -7.2      1.890      3.315
REMARK  Name = 
REMARK  7 active torsions:
REMARK  status: ('A' for Active; 'I' for Inactive)
REMARK    1  A    between atoms: C_1  and  C_2
REMARK    2  A    between atoms: C_6  and  C_7
REMARK    3  A    between atoms: C_13  and  C_14
REMARK    4  A    between atoms: N_20  and  C_21
REMARK    5  A    between atoms: C_22  and  C_23
REMARK    6  A    between atoms: N_26  and  C_27
REMARK    7  A    between atoms: N_33  and  C_34
REMARK                            x       y       z     vdW  Elec       q    Type
REMARK                         _______ _______ _______ _____ _____    ______ ____
ROOT
ATOM      1  C   UNL     1      -4.118  10.398  14.731  0.00  0.00    +0.000 C 
ATOM      2  C   UNL     1      -4.307  11.015  16.085  0.00  0.00    +0.000 A 
ATOM      3  N   UNL     1      -3.326  11.097  16.932  0.00  0.00    +0.000 NA
ATOM      4  C   UNL     1      -3.588  11.769  18.089  0.00  0.00    +0.000 A 
ATOM      5  C   UNL     1      -4.820  12.261  18.454  0.00  0.00    +0.000 A 
ATOM      6  C   UNL     1      -4.724  12.774  19.770  0.00  0.00    +0.000 A 
ATOM      7  C   UNL     1      -3.369  12.654  20.164  0.00  0.00    +0.000 A 
ATOM      8  N   UNL     1      -2.638  12.037  19.094  0.00  0.00    +0.000 N 
ATOM      9  C   UNL     1      -5.915  12.133  17.510  0.00  0.00    +0.000 A 
ATOM     10  O   UNL     1      -7.061  12.541  17.661  0.00  0.00    +0.000 OA
ATOM     11  N   UNL     1      -5.561  11.502  16.326  0.00  0.00    +0.000 N 
ATOM     12  H   UNL     1      -6.310  11.401  15.663  0.00  0.00    +0.000 HD
ENDROOT
BRANCH   8  13
ATOM     13  C   UNL     1      -1.231  11.714  19.032  0.00  0.00    +0.000 A 
ATOM     14  C   UNL     1      -0.183  12.575  19.070  0.00  0.00    +0.000 A 
ATOM     15  C   UNL     1       0.009  14.044  19.179  0.00  0.00    +0.000 C 
ATOM     16  C   UNL     1       1.063  11.747  19.059  0.00  0.00    +0.000 A 
ATOM     17  O   UNL     1       2.192  12.206  19.155  0.00  0.00    +0.000 OA
ATOM     18  N   UNL     1       0.668  10.435  18.874  0.00  0.00    +0.000 N 
ATOM     19  N   UNL     1      -0.745  10.388  18.847  0.00  0.00    +0.000 N 
ATOM     20  C   UNL     1      -1.440   9.132  19.077  0.00  0.00    +0.000 C 
BRANCH  18  21
ATOM     21  C   UNL     1       1.485   9.292  18.944  0.00  0.00    +0.000 A 
ATOM     22  C   UNL     1       1.523   8.506  20.100  0.00  0.00    +0.000 A 
ATOM     23  C   UNL     1       2.209   7.284  20.094  0.00  0.00    +0.000 A 
ATOM     24  C   UNL     1       2.888   6.867  18.951  0.00  0.00    +0.000 A 
ATOM     25  C   UNL     1       2.923   7.685  17.824  0.00  0.00    +0.000 A 
ATOM     26  C   UNL     1       2.236   8.899  17.829  0.00  0.00    +0.000 A 
ENDBRANCH  18  21
ENDBRANCH   8  13
BRANCH   6  27
ATOM     27  C   UNL     1      -5.824  13.314  20.589  0.00  0.00    +0.000 A 
ATOM     28  C   UNL     1      -6.649  12.448  21.327  0.00  0.00    +0.000 A 
ATOM     29  C   UNL     1      -7.669  12.935  22.151  0.00  0.00    +0.000 A 
ATOM     30  C   UNL     1      -7.830  14.305  22.318  0.00  0.00    +0.000 A 
ATOM     31  C   UNL     1      -7.021  15.181  21.605  0.00  0.00    +0.000 A 
ATOM     32  C   UNL     1      -6.068  14.689  20.705  0.00  0.00    +0.000 A 
ENDBRANCH   6  27
BRANCH   7  33
ATOM     33  C   UNL     1      -2.747  13.123  21.436  0.00  0.00    +0.000 A 
ATOM     34  C   UNL     1      -2.446  14.485  21.621  0.00  0.00    +0.000 A 
ATOM     35  C   UNL     1      -1.813  14.943  22.779  0.00  0.00    +0.000 A 
ATOM     36  C   UNL     1      -1.555  14.061  23.821  0.00  0.00    +0.000 A 
ATOM     37  C   UNL     1      -1.880  12.714  23.679  0.00  0.00    +0.000 A 
ATOM     38  C   UNL     1      -2.422  12.240  22.477  0.00  0.00    +0.000 A 
ENDBRANCH   7  33
TORSDOF 4
ENDMDL
MODEL 4
REMARK VINA RESULT:      -7.0      0.515      1.431
REMARK  Name = 
REMARK  7 active torsions:
REMARK  status: ('A' for Active; 'I' for Inactive)
REMARK    1  A    between atoms: C_1  and  C_2
REMARK    2  A    between atoms: C_6  and  C_7
REMARK    3  A    between atoms: C_13  and  C_14
REMARK    4  A    between atoms: N_20  and  C_21
REMARK    5  A    between atoms: C_22  and  C_23
REMARK    6  A    between atoms: N_26  and  C_27
REMARK    7  A    between atoms: N_33  and  C_34
REMARK                            x       y       z     vdW  Elec       q    Type
REMARK                         _______ _______ _______ _____ _____    ______ ____
ROOT
ATOM      1  C   UNL     1      -2.870  10.020  15.006  0.00  0.00    +0.000 C 
ATOM      2  C   UNL     1      -3.294  10.733  16.254  0.00  0.00    +0.000 A 
ATOM      3  N   UNL     1      -2.431  11.076  17.162  0.00  0.00    +0.000 NA
ATOM      4  C   UNL     1      -2.916  11.811  18.203  0.00  0.00    +0.000 A 
ATOM      5  C   UNL     1      -4.244  12.113  18.404  0.00  0.00    +0.000 A 
ATOM      6  C   UNL     1      -4.368  12.772  19.651  0.00  0.00    +0.000 A 
ATOM      7  C   UNL     1      -3.059  12.935  20.166  0.00  0.00    +0.000 A 
ATOM      8  N   UNL     1      -2.130  12.346  19.242  0.00  0.00    +0.000 N 
ATOM      9  C   UNL     1      -5.201  11.695  17.397  0.00  0.00    +0.000 A 
ATOM     10  O   UNL     1      -6.408  11.910  17.402  0.00  0.00    +0.000 OA
ATOM     11  N   UNL     1      -4.629  11.015  16.331  0.00  0.00    +0.000 N 
ATOM     12  H   UNL     1      -5.280  10.714  15.627  0.00  0.00    +0.000 HD
ENDROOT
BRANCH   8  13
ATOM     13  C   UNL     1      -0.691  12.271  19.335  0.00  0.00    +0.000 A 
ATOM     14  C   UNL     1       0.071  11.156  19.474  0.00  0.00    +0.000 A 
ATOM     15  C   UNL     1      -0.159   9.692  19.580  0.00  0.00    +0.000 C 
ATOM     16  C   UNL     1       1.500  11.596  19.438  0.00  0.00    +0.000 A 
ATOM     17  O   UNL     1       2.454  10.833  19.468  0.00  0.00    +0.000 OA
ATOM     18  N   UNL     1       1.490  12.979  19.418  0.00  0.00    +0.000 N 
ATOM     19  N   UNL     1       0.148  13.421  19.361  0.00  0.00    +0.000 N 
ATOM     20  C   UNL     1      -0.160  14.772  18.923  0.00  0.00    +0.000 C 
BRANCH  18  21
ATOM     21  C   UNL     1       2.598  13.826  19.235  0.00  0.00    +0.000 A 
ATOM     22  C   UNL     1       3.188  13.976  17.976  0.00  0.00    +0.000 A 
ATOM     23  C   UNL     1       4.179  14.946  17.777  0.00  0.00    +0.000 A 
ATOM     24  C   UNL     1       4.608  15.737  18.841  0.00  0.00    +0.000 A 
ATOM     25  C   UNL     1       4.083  15.536  20.115  0.00  0.00    +0.000 A 
ATOM     26  C   UNL     1       3.094  14.573  20.311  0.00  0.00    +0.000 A 
ENDBRANCH  18  21
ENDBRANCH   8  13
BRANCH   6  27
ATOM     27  C   UNL     1      -5.619  13.195  20.306  0.00  0.00    +0.000 A 
ATOM     28  C   UNL     1      -6.216  12.380  21.284  0.00  0.00    +0.000 A 
ATOM     29  C   UNL     1      -7.377  12.777  21.957  0.00  0.00    +0.000 A 
ATOM     30  C   UNL     1      -7.916  14.036  21.723  0.00  0.00    +0.000 A 
ATOM     31  C   UNL     1      -7.339  14.862  20.766  0.00  0.00    +0.000 A 
ATOM     32  C   UNL     1      -6.237  14.420  20.024  0.00  0.00    +0.000 A 
ENDBRANCH   6  27
BRANCH   7  33
ATOM     33  C   UNL     1      -2.655  13.638  21.418  0.00  0.00    +0.000 A 
ATOM     34  C   UNL     1      -2.366  12.904  22.584  0.00  0.00    +0.000 A 
ATOM     35  C   UNL     1      -2.039  13.540  23.785  0.00  0.00    +0.000 A 
ATOM     36  C   UNL     1      -1.899  14.921  23.820  0.00  0.00    +0.000 A 
ATOM     37  C   UNL     1      -2.139  15.667  22.669  0.00  0.00    +0.000 A 
ATOM     38  C   UNL     1      -2.565  15.036  21.493  0.00  0.00    +0.000 A 
ENDBRANCH   7  33
TORSDOF 4
ENDMDL
MODEL 5
REMARK VINA RESULT:      -6.8      3.183      6.732
REMARK  Name = 
REMARK  7 active torsions:
REMARK  status: ('A' for Active; 'I' for Inactive)
REMARK    1  A    between atoms: C_1  and  C_2
REMARK    2  A    between atoms: C_6  and  C_7
REMARK    3  A    between atoms: C_13  and  C_14
REMARK    4  A    between atoms: N_20  and  C_21
REMARK    5  A    between atoms: C_22  and  C_23
REMARK    6  A    between atoms: N_26  and  C_27
REMARK    7  A    between atoms: N_33  and  C_34
REMARK                            x       y       z     vdW  Elec       q    Type
REMARK                         _______ _______ _______ _____ _____    ______ ____
ROOT
ATOM      1  C   UNL     1       4.965  14.137  22.286  0.00  0.00    +0.000 C 
ATOM      2  C   UNL     1       3.615  14.378  21.681  0.00  0.00    +0.000 A 
ATOM      3  N   UNL     1       2.819  13.393  21.390  0.00  0.00    +0.000 NA
ATOM      4  C   UNL     1       1.579  13.736  20.941  0.00  0.00    +0.000 A 
ATOM      5  C   UNL     1       1.161  15.022  20.682  0.00  0.00    +0.000 A 
ATOM      6  C   UNL     1      -0.132  14.966  20.111  0.00  0.00    +0.000 A 
ATOM      7  C   UNL     1      -0.524  13.604  20.106  0.00  0.00    +0.000 A 
ATOM      8  N   UNL     1       0.548  12.821  20.652  0.00  0.00    +0.000 N 
ATOM      9  C   UNL     1       2.073  16.111  20.982  0.00  0.00    +0.000 A 
ATOM     10  O   UNL     1       1.852  17.309  20.844  0.00  0.00    +0.000 OA
ATOM     11  N   UNL     1       3.290  15.693  21.501  0.00  0.00    +0.000 N 
ATOM     12  H   UNL     1       3.935  16.435  21.710  0.00  0.00    +0.000 HD
ENDROOT
BRANCH   8  13
ATOM     13  C   UNL     1       0.610  11.392  20.851  0.00  0.00    +0.000 A 
ATOM     14  C   UNL     1       0.008  10.667  21.828  0.00  0.00    +0.000 A 
ATOM     15  C   UNL     1      -0.874  10.938  22.991  0.00  0.00    +0.000 C 
ATOM     16  C   UNL     1       0.308   9.228  21.551  0.00  0.00    +0.000 A 
ATOM     17  O   UNL     1      -0.141   8.296  22.203  0.00  0.00    +0.000 OA
ATOM     18  N   UNL     1       1.196   9.202  20.491  0.00  0.00    +0.000 N 
ATOM     19  N   UNL     1       1.404  10.528  20.044  0.00  0.00    +0.000 N 
ATOM     20  C   UNL     1       1.946  10.776  18.719  0.00  0.00    +0.000 C 
BRANCH  18  21
ATOM     21  C   UNL     1       1.642   8.065  19.794  0.00  0.00    +0.000 A 
ATOM     22  C   UNL     1       1.976   8.139  18.438  0.00  0.00    +0.000 A 
ATOM     23  C   UNL     1       2.576   7.043  17.803  0.00  0.00    +0.000 A 
ATOM     24  C   UNL     1       2.804   5.864  18.509  0.00  0.00    +0.000 A 
ATOM     25  C   UNL     1       2.398   5.756  19.837  0.00  0.00    +0.000 A 
ATOM     26  C   UNL     1       1.806   6.849  20.469  0.00  0.00    +0.000 A 
ENDBRANCH  18  21
ENDBRANCH   8  13
BRANCH   6  27
ATOM     27  C   UNL     1      -0.921  16.100  19.597  0.00  0.00    +0.000 A 
ATOM     28  C   UNL     1      -2.009  16.598  20.335  0.00  0.00    +0.000 A 
ATOM     29  C   UNL     1      -2.745  17.704  19.897  0.00  0.00    +0.000 A 
ATOM     30  C   UNL     1      -2.355  18.384  18.750  0.00  0.00    +0.000 A 
ATOM     31  C   UNL     1      -1.278  17.915  18.007  0.00  0.00    +0.000 A 
ATOM     32  C   UNL     1      -0.607  16.750  18.396  0.00  0.00    +0.000 A 
ENDBRANCH   6  27
BRANCH   7  33
ATOM     33  C   UNL     1      -1.833  13.037  19.673  0.00  0.00    +0.000 A 
ATOM     34  C   UNL     1      -2.986  13.228  20.458  0.00  0.00    +0.000 A 
ATOM     35  C   UNL     1      -4.213  12.661  20.105  0.00  0.00    +0.000 A 
ATOM     36  C   UNL     1      -4.336  11.970  18.906  0.00  0.00    +0.000 A 
ATOM     37  C   UNL     1      -3.219  11.800  18.092  0.00  0.00    +0.000 A 
ATOM     38  C   UNL     1      -1.968  12.283  18.497  0.00  0.00    +0.000 A 
ENDBRANCH   7  33
TORSDOF 4
ENDMDL
MODEL 6
REMARK VINA RESULT:      -6.7      3.147      6.386
REMARK  Name = 
REMARK  7 active torsions:
REMARK  status: ('A' for Active; 'I' for Inactive)
REMARK    1  A    between atoms: C_1  and  C_2
REMARK    2  A    between atoms: C_6  and  C_7
REMARK    3  A    between atoms: C_13  and  C_14
REMARK    4  A    between atoms: N_20  and  C_21
REMARK    5  A    between atoms: C_22  and  C_23
REMARK    6  A    between atoms: N_26  and  C_27
REMARK    7  A    between atoms: N_33  and  C_34
REMARK                            x       y       z     vdW  Elec       q    Type
REMARK                         _______ _______ _______ _____ _____    ______ ____
ROOT
ATOM      1  C   UNL     1       4.595  14.580  22.274  0.00  0.00    +0.000 C 
ATOM      2  C   UNL     1       3.164  14.820  21.897  0.00  0.00    +0.000 A 
ATOM      3  N   UNL     1       2.367  13.835  21.609  0.00  0.00    +0.000 NA
ATOM      4  C   UNL     1       1.064  14.164  21.383  0.00  0.00    +0.000 A 
ATOM      5  C   UNL     1       0.571  15.449  21.337  0.00  0.00    +0.000 A 
ATOM      6  C   UNL     1      -0.789  15.392  20.951  0.00  0.00    +0.000 A 
ATOM      7  C   UNL     1      -1.133  14.022  20.843  0.00  0.00    +0.000 A 
ATOM      8  N   UNL     1       0.033  13.237  21.137  0.00  0.00    +0.000 N 
ATOM      9  C   UNL     1       1.481  16.541  21.630  0.00  0.00    +0.000 A 
ATOM     10  O   UNL     1       1.202  17.735  21.666  0.00  0.00    +0.000 OA
ATOM     11  N   UNL     1       2.774  16.129  21.920  0.00  0.00    +0.000 N 
ATOM     12  H   UNL     1       3.418  16.875  22.121  0.00  0.00    +0.000 HD
ENDROOT
BRANCH   8  13
ATOM     13  C   UNL     1       0.170  11.799  21.157  0.00  0.00    +0.000 A 
ATOM     14  C   UNL     1      -0.416  10.926  22.015  0.00  0.00    +0.000 A 
ATOM     15  C   UNL     1      -1.343  11.000  23.173  0.00  0.00    +0.000 C 
ATOM     16  C   UNL     1      -0.028   9.551  21.570  0.00  0.00    +0.000 A 
ATOM     17  O   UNL     1      -0.440   8.522  22.085  0.00  0.00    +0.000 OA
ATOM     18  N   UNL     1       0.888   9.707  20.546  0.00  0.00    +0.000 N 
ATOM     19  N   UNL     1       1.033  11.088  20.276  0.00  0.00    +0.000 N 
ATOM     20  C   UNL     1       1.595  11.531  19.011  0.00  0.00    +0.000 C 
BRANCH  18  21
ATOM     21  C   UNL     1       1.416   8.693  19.727  0.00  0.00    +0.000 A 
ATOM     22  C   UNL     1       1.535   8.874  18.346  0.00  0.00    +0.000 A 
ATOM     23  C   UNL     1       2.215   7.925  17.570  0.00  0.00    +0.000 A 
ATOM     24  C   UNL     1       2.739   6.779  18.165  0.00  0.00    +0.000 A 
ATOM     25  C   UNL     1       2.551   6.553  19.527  0.00  0.00    +0.000 A 
ATOM     26  C   UNL     1       1.878   7.500  20.298  0.00  0.00    +0.000 A 
ENDBRANCH  18  21
ENDBRANCH   8  13
BRANCH   6  27
ATOM     27  C   UNL     1      -1.681  16.536  20.689  0.00  0.00    +0.000 A 
ATOM     28  C   UNL     1      -1.674  17.167  19.433  0.00  0.00    +0.000 A 
ATOM     29  C   UNL     1      -2.544  18.222  19.140  0.00  0.00    +0.000 A 
ATOM     30  C   UNL     1      -3.497  18.614  20.072  0.00  0.00    +0.000 A 
ATOM     31  C   UNL     1      -3.528  18.000  21.319  0.00  0.00    +0.000 A 
ATOM     32  C   UNL     1      -2.590  17.013  21.643  0.00  0.00    +0.000 A 
ENDBRANCH   6  27
BRANCH   7  33
ATOM     33  C   UNL     1      -2.472  13.442  20.536  0.00  0.00    +0.000 A 
ATOM     34  C   UNL     1      -3.564  13.683  21.391  0.00  0.00    +0.000 A 
ATOM     35  C   UNL     1      -4.816  13.107  21.156  0.00  0.00    +0.000 A 
ATOM     36  C   UNL     1      -5.026  12.354  20.008  0.00  0.00    +0.000 A 
ATOM     37  C   UNL     1      -3.972  12.134  19.126  0.00  0.00    +0.000 A 
ATOM     38  C   UNL     1      -2.693  12.629  19.414  0.00  0.00    +0.000 A 
ENDBRANCH   7  33
TORSDOF 4
ENDMDL
MODEL 7
REMARK VINA RESULT:      -6.6      0.714      1.072
REMARK  Name = 
REMARK  7 active torsions:
REMARK  status: ('A' for Active; 'I' for Inactive)
REMARK    1  A    between atoms: C_1  and  C_2
REMARK    2  A    between atoms: C_6  and  C_7
REMARK    3  A    between atoms: C_13  and  C_14
REMARK    4  A    between atoms: N_20  and  C_21
REMARK    5  A    between atoms: C_22  and  C_23
REMARK    6  A    between atoms: N_26  and  C_27
REMARK    7  A    between atoms: N_33  and  C_34
REMARK                            x       y       z     vdW  Elec       q    Type
REMARK                         _______ _______ _______ _____ _____    ______ ____
ROOT
ATOM      1  C   UNL     1      -3.516  10.397  15.007  0.00  0.00    +0.000 C 
ATOM      2  C   UNL     1      -3.823  11.004  16.343  0.00  0.00    +0.000 A 
ATOM      3  N   UNL     1      -2.874  11.362  17.155  0.00  0.00    +0.000 NA
ATOM      4  C   UNL     1      -3.270  11.997  18.295  0.00  0.00    +0.000 A 
ATOM      5  C   UNL     1      -4.577  12.183  18.682  0.00  0.00    +0.000 A 
ATOM      6  C   UNL     1      -4.584  12.760  19.974  0.00  0.00    +0.000 A 
ATOM      7  C   UNL     1      -3.233  12.996  20.329  0.00  0.00    +0.000 A 
ATOM      8  N   UNL     1      -2.394  12.534  19.259  0.00  0.00    +0.000 N 
ATOM      9  C   UNL     1      -5.627  11.748  17.778  0.00  0.00    +0.000 A 
ATOM     10  O   UNL     1      -6.835  11.867  17.950  0.00  0.00    +0.000 OA
ATOM     11  N   UNL     1      -5.153  11.175  16.606  0.00  0.00    +0.000 N 
ATOM     12  H   UNL     1      -5.867  10.864  15.972  0.00  0.00    +0.000 HD
ENDROOT
BRANCH   8  13
ATOM     13  C   UNL     1      -0.953  12.566  19.164  0.00  0.00    +0.000 A 
ATOM     14  C   UNL     1      -0.108  11.509  19.069  0.00  0.00    +0.000 A 
ATOM     15  C   UNL     1      -0.223  10.029  19.019  0.00  0.00    +0.000 C 
ATOM     16  C   UNL     1       1.271  12.067  18.912  0.00  0.00    +0.000 A 
ATOM     17  O   UNL     1       2.270  11.385  18.729  0.00  0.00    +0.000 OA
ATOM     18  N   UNL     1       1.168  13.437  19.065  0.00  0.00    +0.000 N 
ATOM     19  N   UNL     1      -0.197  13.771  19.229  0.00  0.00    +0.000 N 
ATOM     20  C   UNL     1      -0.649  15.134  19.003  0.00  0.00    +0.000 C 
BRANCH  18  21
ATOM     21  C   UNL     1       2.183  14.387  18.854  0.00  0.00    +0.000 A 
ATOM     22  C   UNL     1       3.502  14.125  19.234  0.00  0.00    +0.000 A 
ATOM     23  C   UNL     1       4.527  15.008  18.867  0.00  0.00    +0.000 A 
ATOM     24  C   UNL     1       4.229  16.169  18.156  0.00  0.00    +0.000 A 
ATOM     25  C   UNL     1       2.906  16.477  17.846  0.00  0.00    +0.000 A 
ATOM     26  C   UNL     1       1.888  15.595  18.209  0.00  0.00    +0.000 A 
ENDBRANCH  18  21
ENDBRANCH   8  13
BRANCH   6  27
ATOM     27  C   UNL     1      -5.765  13.045  20.808  0.00  0.00    +0.000 A 
ATOM     28  C   UNL     1      -6.329  12.035  21.607  0.00  0.00    +0.000 A 
ATOM     29  C   UNL     1      -7.420  12.289  22.445  0.00  0.00    +0.000 A 
ATOM     30  C   UNL     1      -7.915  13.582  22.564  0.00  0.00    +0.000 A 
ATOM     31  C   UNL     1      -7.369  14.599  21.789  0.00  0.00    +0.000 A 
ATOM     32  C   UNL     1      -6.344  14.319  20.878  0.00  0.00    +0.000 A 
ENDBRANCH   6  27
BRANCH   7  33
ATOM     33  C   UNL     1      -2.719  13.657  21.563  0.00  0.00    +0.000 A 
ATOM     34  C   UNL     1      -2.873  15.045  21.743  0.00  0.00    +0.000 A 
ATOM     35  C   UNL     1      -2.352  15.698  22.864  0.00  0.00    +0.000 A 
ATOM     36  C   UNL     1      -1.751  14.961  23.876  0.00  0.00    +0.000 A 
ATOM     37  C   UNL     1      -1.622  13.582  23.741  0.00  0.00    +0.000 A 
ATOM     38  C   UNL     1      -2.054  12.942  22.572  0.00  0.00    +0.000 A 
ENDBRANCH   7  33
TORSDOF 4
ENDMDL
MODEL 8
REMARK VINA RESULT:      -6.5      3.173      6.623
REMARK  Name = 
REMARK  7 active torsions:
REMARK  status: ('A' for Active; 'I' for Inactive)
REMARK    1  A    between atoms: C_1  and  C_2
REMARK    2  A    between atoms: C_6  and  C_7
REMARK    3  A    between atoms: C_13  and  C_14
REMARK    4  A    between atoms: N_20  and  C_21
REMARK    5  A    between atoms: C_22  and  C_23
REMARK    6  A    between atoms: N_26  and  C_27
REMARK    7  A    between atoms: N_33  and  C_34
REMARK                            x       y       z     vdW  Elec       q    Type
REMARK                         _______ _______ _______ _____ _____    ______ ____
ROOT
ATOM      1  C   UNL     1       4.982  14.100  22.145  0.00  0.00    +0.000 C 
ATOM      2  C   UNL     1       3.599  14.363  21.628  0.00  0.00    +0.000 A 
ATOM      3  N   UNL     1       2.779  13.390  21.369  0.00  0.00    +0.000 NA
ATOM      4  C   UNL     1       1.516  13.752  21.004  0.00  0.00    +0.000 A 
ATOM      5  C   UNL     1       1.095  15.046  20.794  0.00  0.00    +0.000 A 
ATOM      6  C   UNL     1      -0.231  15.010  20.302  0.00  0.00    +0.000 A 
ATOM      7  C   UNL     1      -0.635  13.653  20.297  0.00  0.00    +0.000 A 
ATOM      8  N   UNL     1       0.461  12.850  20.762  0.00  0.00    +0.000 N 
ATOM      9  C   UNL     1       2.033  16.122  21.057  0.00  0.00    +0.000 A 
ATOM     10  O   UNL     1       1.815  17.323  20.954  0.00  0.00    +0.000 OA
ATOM     11  N   UNL     1       3.276  15.684  21.492  0.00  0.00    +0.000 N 
ATOM     12  H   UNL     1       3.940  16.418  21.674  0.00  0.00    +0.000 HD
ENDROOT
BRANCH   8  13
ATOM     13  C   UNL     1       0.522  11.417  20.931  0.00  0.00    +0.000 A 
ATOM     14  C   UNL     1      -0.143  10.665  21.844  0.00  0.00    +0.000 A 
ATOM     15  C   UNL     1      -1.110  10.901  22.945  0.00  0.00    +0.000 C 
ATOM     16  C   UNL     1       0.191   9.235  21.556  0.00  0.00    +0.000 A 
ATOM     17  O   UNL     1      -0.296   8.284  22.151  0.00  0.00    +0.000 OA
ATOM     18  N   UNL     1       1.154   9.242  20.564  0.00  0.00    +0.000 N 
ATOM     19  N   UNL     1       1.381  10.580  20.165  0.00  0.00    +0.000 N 
ATOM     20  C   UNL     1       2.017  10.864  18.889  0.00  0.00    +0.000 C 
BRANCH  18  21
ATOM     21  C   UNL     1       1.661   8.125  19.874  0.00  0.00    +0.000 A 
ATOM     22  C   UNL     1       1.800   6.889  20.513  0.00  0.00    +0.000 A 
ATOM     23  C   UNL     1       2.146   5.752  19.771  0.00  0.00    +0.000 A 
ATOM     24  C   UNL     1       2.391   5.856  18.403  0.00  0.00    +0.000 A 
ATOM     25  C   UNL     1       2.335   7.100  17.777  0.00  0.00    +0.000 A 
ATOM     26  C   UNL     1       1.986   8.230  18.516  0.00  0.00    +0.000 A 
ENDBRANCH  18  21
ENDBRANCH   8  13
BRANCH   6  27
ATOM     27  C   UNL     1      -1.040  16.160  19.858  0.00  0.00    +0.000 A 
ATOM     28  C   UNL     1      -0.755  16.797  18.637  0.00  0.00    +0.000 A 
ATOM     29  C   UNL     1      -1.535  17.858  18.167  0.00  0.00    +0.000 A 
ATOM     30  C   UNL     1      -2.667  18.250  18.870  0.00  0.00    +0.000 A 
ATOM     31  C   UNL     1      -2.973  17.631  20.076  0.00  0.00    +0.000 A 
ATOM     32  C   UNL     1      -2.134  16.637  20.592  0.00  0.00    +0.000 A 
ENDBRANCH   6  27
BRANCH   7  33
ATOM     33  C   UNL     1      -1.974  13.103  19.935  0.00  0.00    +0.000 A 
ATOM     34  C   UNL     1      -2.134  12.328  18.771  0.00  0.00    +0.000 A 
ATOM     35  C   UNL     1      -3.386  11.848  18.380  0.00  0.00    +0.000 A 
ATOM     36  C   UNL     1      -4.491  12.051  19.197  0.00  0.00    +0.000 A 
ATOM     37  C   UNL     1      -4.351  12.780  20.374  0.00  0.00    +0.000 A 
ATOM     38  C   UNL     1      -3.116  13.346  20.714  0.00  0.00    +0.000 A 
ENDBRANCH   7  33
TORSDOF 4
ENDMDL
MODEL 9
REMARK VINA RESULT:      -6.5      2.638      5.967
REMARK  Name = 
REMARK  7 active torsions:
REMARK  status: ('A' for Active; 'I' for Inactive)
REMARK    1  A    between atoms: C_1  and  C_2
REMARK    2  A    between atoms: C_6  and  C_7
REMARK    3  A    between atoms: C_13  and  C_14
REMARK    4  A    between atoms: N_20  and  C_21
REMARK    5  A    between atoms: C_22  and  C_23
REMARK    6  A    between atoms: N_26  and  C_27
REMARK    7  A    between atoms: N_33  and  C_34
REMARK                            x       y       z     vdW  Elec       q    Type
REMARK                         _______ _______ _______ _____ _____    ______ ____
ROOT
ATOM      1  C   UNL     1       3.382  15.575  17.446  0.00  0.00    +0.000 C 
ATOM      2  C   UNL     1       2.295  15.624  18.477  0.00  0.00    +0.000 A 
ATOM      3  N   UNL     1       1.528  14.599  18.699  0.00  0.00    +0.000 NA
ATOM      4  C   UNL     1       0.645  14.724  19.729  0.00  0.00    +0.000 A 
ATOM      5  C   UNL     1       0.444  15.871  20.463  0.00  0.00    +0.000 A 
ATOM      6  C   UNL     1      -0.637  15.651  21.349  0.00  0.00    +0.000 A 
ATOM      7  C   UNL     1      -1.037  14.302  21.190  0.00  0.00    +0.000 A 
ATOM      8  N   UNL     1      -0.213  13.701  20.178  0.00  0.00    +0.000 N 
ATOM      9  C   UNL     1       1.287  17.019  20.183  0.00  0.00    +0.000 A 
ATOM     10  O   UNL     1       1.265  18.100  20.759  0.00  0.00    +0.000 OA
ATOM     11  N   UNL     1       2.211  16.799  19.170  0.00  0.00    +0.000 N 
ATOM     12  H   UNL     1       2.800  17.586  18.961  0.00  0.00    +0.000 HD
ENDROOT
BRANCH   8  13
ATOM     13  C   UNL     1      -0.245  12.346  19.677  0.00  0.00    +0.000 A 
ATOM     14  C   UNL     1      -1.168  11.793  18.851  0.00  0.00    +0.000 A 
ATOM     15  C   UNL     1      -2.406  12.233  18.159  0.00  0.00    +0.000 C 
ATOM     16  C   UNL     1      -0.713  10.398  18.560  0.00  0.00    +0.000 A 
ATOM     17  O   UNL     1      -1.281   9.638  17.789  0.00  0.00    +0.000 OA
ATOM     18  N   UNL     1       0.395  10.167  19.354  0.00  0.00    +0.000 N 
ATOM     19  N   UNL     1       0.701  11.353  20.060  0.00  0.00    +0.000 N 
ATOM     20  C   UNL     1       2.020  11.540  20.641  0.00  0.00    +0.000 C 
BRANCH  18  21
ATOM     21  C   UNL     1       1.243   9.045  19.311  0.00  0.00    +0.000 A 
ATOM     22  C   UNL     1       1.343   8.178  20.403  0.00  0.00    +0.000 A 
ATOM     23  C   UNL     1       2.059   6.979  20.284  0.00  0.00    +0.000 A 
ATOM     24  C   UNL     1       2.706   6.666  19.090  0.00  0.00    +0.000 A 
ATOM     25  C   UNL     1       2.679   7.565  18.025  0.00  0.00    +0.000 A 
ATOM     26  C   UNL     1       1.962   8.755  18.144  0.00  0.00    +0.000 A 
ENDBRANCH  18  21
ENDBRANCH   8  13
BRANCH   6  27
ATOM     27  C   UNL     1      -1.251  16.639  22.256  0.00  0.00    +0.000 A 
ATOM     28  C   UNL     1      -0.833  16.726  23.595  0.00  0.00    +0.000 A 
ATOM     29  C   UNL     1      -1.363  17.685  24.465  0.00  0.00    +0.000 A 
ATOM     30  C   UNL     1      -2.261  18.631  23.989  0.00  0.00    +0.000 A 
ATOM     31  C   UNL     1      -2.684  18.569  22.666  0.00  0.00    +0.000 A 
ATOM     32  C   UNL     1      -2.227  17.547  21.826  0.00  0.00    +0.000 A 
ENDBRANCH   6  27
BRANCH   7  33
ATOM     33  C   UNL     1      -2.086  13.567  21.953  0.00  0.00    +0.000 A 
ATOM     34  C   UNL     1      -1.725  12.672  22.978  0.00  0.00    +0.000 A 
ATOM     35  C   UNL     1      -2.684  11.930  23.672  0.00  0.00    +0.000 A 
ATOM     36  C   UNL     1      -4.034  12.140  23.422  0.00  0.00    +0.000 A 
ATOM     37  C   UNL     1      -4.419  13.050  22.441  0.00  0.00    +0.000 A 
ATOM     38  C   UNL     1      -3.454  13.719  21.677  0.00  0.00    +0.000 A 
ENDBRANCH   7  33
TORSDOF 4
ENDMDL
