MODEL 1
REMARK VINA RESULT:      -8.6      0.000      0.000
REMARK  Name = 
REMARK  9 active torsions:
REMARK  status: ('A' for Active; 'I' for Inactive)
REMARK    1  A    between atoms: C_1  and  C_2
REMARK    2  A    between atoms: C_2  and  C_3
REMARK    3  A    between atoms: N_5  and  C_6
REMARK    4  A    between atoms: C_6  and  C_7
REMARK    5  A    between atoms: C_7  and  N_8
REMARK    6  A    between atoms: C_9  and  C_11
REMARK    7  A    between atoms: C_16  and  O_17
REMARK    8  A    between atoms: O_17  and  C_18
REMARK    9  A    between atoms: C_21  and  C_22
REMARK                            x       y       z     vdW  Elec       q    Type
REMARK                         _______ _______ _______ _____ _____    ______ ____
ROOT
ATOM      1  C   UNL     1       1.550   8.334  19.734  0.00  0.00    +0.000 A 
ATOM      2  C   UNL     1       1.511   9.475  18.943  0.00  0.00    +0.000 A 
ATOM      3  C   UNL     1       0.867  10.600  19.441  0.00  0.00    +0.000 A 
ATOM      4  C   UNL     1       0.279  10.558  20.711  0.00  0.00    +0.000 A 
ATOM      5  C   UNL     1      -0.375  11.683  21.254  0.00  0.00    +0.000 A 
ATOM      6  C   UNL     1      -0.945  11.622  22.525  0.00  0.00    +0.000 A 
ATOM      7  C   UNL     1      -0.911  10.419  23.226  0.00  0.00    +0.000 A 
ATOM      8  C   UNL     1      -0.250   9.308  22.686  0.00  0.00    +0.000 A 
ATOM      9  C   UNL     1       0.356   9.347  21.438  0.00  0.00    +0.000 A 
ATOM     10  N   UNL     1       0.981   8.248  20.967  0.00  0.00    +0.000 NA
ENDROOT
BRANCH   1  12
ATOM     11  N   UNL     1       2.802   6.275  20.161  0.00  0.00    +0.000 N 
ATOM     12  C   UNL     1       2.251   7.112  19.213  0.00  0.00    +0.000 C 
ATOM     13  O   UNL     1       2.315   6.894  18.005  0.00  0.00    +0.000 OA
ATOM     14  H   UNL     1       2.731   6.573  21.129  0.00  0.00    +0.000 HD
BRANCH  11  15
ATOM     15  C   UNL     1       3.500   5.048  19.801  0.00  0.00    +0.000 C 
BRANCH  15  16
ATOM     16  C   UNL     1       4.924   5.315  19.272  0.00  0.00    +0.000 C 
BRANCH  16  21
ATOM     17  C   UNL     1       6.059   4.000  15.111  0.00  0.00    +0.000 C 
ATOM     18  C   UNL     1       5.594   4.769  16.348  0.00  0.00    +0.000 C 
ATOM     19  C   UNL     1       5.190   6.191  15.955  0.00  0.00    +0.000 C 
ATOM     20  C   UNL     1       4.581   4.006  17.245  0.00  0.00    +0.000 C 
ATOM     21  N   UNL     1       5.445   4.223  18.427  0.00  0.00    +0.000 NA
ATOM     22  C   UNL     1       6.556   4.655  17.560  0.00  0.00    +0.000 C 
ENDBRANCH  16  21
ENDBRANCH  15  16
ENDBRANCH  11  15
ENDBRANCH   1  12
BRANCH   6  23
ATOM     23  O   UNL     1      -1.592  12.751  22.979  0.00  0.00    +0.000 OA
BRANCH  23  24
ATOM     24  C   UNL     1      -2.981  12.732  23.051  0.00  0.00    +0.000 A 
ATOM     25  C   UNL     1      -3.541  12.601  24.313  0.00  0.00    +0.000 A 
ATOM     26  C   UNL     1      -4.932  12.576  24.423  0.00  0.00    +0.000 A 
ATOM     27  C   UNL     1      -5.719  12.670  23.270  0.00  0.00    +0.000 A 
ATOM     28  C   UNL     1      -5.061  12.780  22.053  0.00  0.00    +0.000 A 
ATOM     29  N   UNL     1      -3.718  12.800  21.918  0.00  0.00    +0.000 NA
BRANCH  27  30
ATOM     30  C   UNL     1      -7.216  12.648  23.293  0.00  0.00    +0.000 C 
ATOM     31  F   UNL     1      -7.737  11.440  23.641  0.00  0.00    +0.000 F 
ATOM     32  F   UNL     1      -7.735  13.546  24.175  0.00  0.00    +0.000 F 
ATOM     33  F   UNL     1      -7.759  12.957  22.084  0.00  0.00    +0.000 F 
ENDBRANCH  27  30
ENDBRANCH  23  24
ENDBRANCH   6  23
TORSDOF 7
ENDMDL
MODEL 2
REMARK VINA RESULT:      -8.2      4.882     10.857
REMARK  Name = 
REMARK  9 active torsions:
REMARK  status: ('A' for Active; 'I' for Inactive)
REMARK    1  A    between atoms: C_1  and  C_2
REMARK    2  A    between atoms: C_2  and  C_3
REMARK    3  A    between atoms: N_5  and  C_6
REMARK    4  A    between atoms: C_6  and  C_7
REMARK    5  A    between atoms: C_7  and  N_8
REMARK    6  A    between atoms: C_9  and  C_11
REMARK    7  A    between atoms: C_16  and  O_17
REMARK    8  A    between atoms: O_17  and  C_18
REMARK    9  A    between atoms: C_21  and  C_22
REMARK                            x       y       z     vdW  Elec       q    Type
REMARK                         _______ _______ _______ _____ _____    ______ ____
ROOT
ATOM      1  C   UNL     1      -0.634  11.041  22.219  0.00  0.00    +0.000 A 
ATOM      2  C   UNL     1      -0.181   9.931  22.920  0.00  0.00    +0.000 A 
ATOM      3  C   UNL     1       0.618   9.011  22.253  0.00  0.00    +0.000 A 
ATOM      4  C   UNL     1       0.942   9.221  20.907  0.00  0.00    +0.000 A 
ATOM      5  C   UNL     1       1.759   8.315  20.200  0.00  0.00    +0.000 A 
ATOM      6  C   UNL     1       2.078   8.549  18.863  0.00  0.00    +0.000 A 
ATOM      7  C   UNL     1       1.533   9.658  18.220  0.00  0.00    +0.000 A 
ATOM      8  C   UNL     1       0.732  10.561  18.932  0.00  0.00    +0.000 A 
ATOM      9  C   UNL     1       0.423  10.374  20.272  0.00  0.00    +0.000 A 
ATOM     10  N   UNL     1      -0.352  11.276  20.909  0.00  0.00    +0.000 NA
ENDROOT
BRANCH   1  12
ATOM     11  N   UNL     1      -2.734  11.614  23.337  0.00  0.00    +0.000 N 
ATOM     12  C   UNL     1      -1.490  12.049  22.929  0.00  0.00    +0.000 C 
ATOM     13  O   UNL     1      -1.081  13.192  23.125  0.00  0.00    +0.000 OA
ATOM     14  H   UNL     1      -2.990  10.665  23.084  0.00  0.00    +0.000 HD
BRANCH  11  15
ATOM     15  C   UNL     1      -3.666  12.480  24.047  0.00  0.00    +0.000 C 
BRANCH  15  16
ATOM     16  C   UNL     1      -4.643  13.199  23.096  0.00  0.00    +0.000 C 
BRANCH  16  21
ATOM     17  C   UNL     1      -7.379  12.816  19.533  0.00  0.00    +0.000 C 
ATOM     18  C   UNL     1      -6.497  13.313  20.678  0.00  0.00    +0.000 C 
ATOM     19  C   UNL     1      -6.469  14.843  20.686  0.00  0.00    +0.000 C 
ATOM     20  C   UNL     1      -6.771  12.638  22.050  0.00  0.00    +0.000 C 
ATOM     21  N   UNL     1      -5.340  12.281  22.174  0.00  0.00    +0.000 NA
ATOM     22  C   UNL     1      -5.112  12.616  20.757  0.00  0.00    +0.000 C 
ENDBRANCH  16  21
ENDBRANCH  15  16
ENDBRANCH  11  15
ENDBRANCH   1  12
BRANCH   6  23
ATOM     23  O   UNL     1       2.857   7.607  18.227  0.00  0.00    +0.000 OA
BRANCH  23  24
ATOM     24  C   UNL     1       2.623   6.263  18.502  0.00  0.00    +0.000 A 
ATOM     25  C   UNL     1       1.678   5.620  17.717  0.00  0.00    +0.000 A 
ATOM     26  C   UNL     1       1.416   4.272  17.965  0.00  0.00    +0.000 A 
ATOM     27  C   UNL     1       2.096   3.613  18.996  0.00  0.00    +0.000 A 
ATOM     28  C   UNL     1       3.010   4.351  19.734  0.00  0.00    +0.000 A 
ATOM     29  N   UNL     1       3.277   5.657  19.519  0.00  0.00    +0.000 NA
BRANCH  27  30
ATOM     30  C   UNL     1       1.875   2.171  19.334  0.00  0.00    +0.000 C 
ATOM     31  F   UNL     1       1.669   1.949  20.661  0.00  0.00    +0.000 F 
ATOM     32  F   UNL     1       0.794   1.647  18.695  0.00  0.00    +0.000 F 
ATOM     33  F   UNL     1       2.932   1.388  18.983  0.00  0.00    +0.000 F 
ENDBRANCH  27  30
ENDBRANCH  23  24
ENDBRANCH   6  23
TORSDOF 7
ENDMDL
MODEL 3
REMARK VINA RESULT:      -8.2      0.953      1.392
REMARK  Name = 
REMARK  9 active torsions:
REMARK  status: ('A' for Active; 'I' for Inactive)
REMARK    1  A    between atoms: C_1  and  C_2
REMARK    2  A    between atoms: C_2  and  C_3
REMARK    3  A    between atoms: N_5  and  C_6
REMARK    4  A    between atoms: C_6  and  C_7
REMARK    5  A    between atoms: C_7  and  N_8
REMARK    6  A    between atoms: C_9  and  C_11
REMARK    7  A    between atoms: C_16  and  O_17
REMARK    8  A    between atoms: O_17  and  C_18
REMARK    9  A    between atoms: C_21  and  C_22
REMARK                            x       y       z     vdW  Elec       q    Type
REMARK                         _______ _______ _______ _____ _____    ______ ____
ROOT
ATOM      1  C   UNL     1       1.391   9.423  19.216  0.00  0.00    +0.000 A 
ATOM      2  C   UNL     1       1.395  10.732  18.752  0.00  0.00    +0.000 A 
ATOM      3  C   UNL     1       0.775  11.706  19.525  0.00  0.00    +0.000 A 
ATOM      4  C   UNL     1       0.168  11.350  20.735  0.00  0.00    +0.000 A 
ATOM      5  C   UNL     1      -0.462  12.313  21.550  0.00  0.00    +0.000 A 
ATOM      6  C   UNL     1      -1.051  11.937  22.757  0.00  0.00    +0.000 A 
ATOM      7  C   UNL     1      -1.061  10.592  23.118  0.00  0.00    +0.000 A 
ATOM      8  C   UNL     1      -0.422   9.643  22.309  0.00  0.00    +0.000 A 
ATOM      9  C   UNL     1       0.202   9.989  21.119  0.00  0.00    +0.000 A 
ATOM     10  N   UNL     1       0.803   9.034  20.380  0.00  0.00    +0.000 NA
ENDROOT
BRANCH   1  12
ATOM     11  N   UNL     1       2.235   7.136  19.008  0.00  0.00    +0.000 N 
ATOM     12  C   UNL     1       2.065   8.361  18.397  0.00  0.00    +0.000 C 
ATOM     13  O   UNL     1       2.435   8.596  17.249  0.00  0.00    +0.000 OA
ATOM     14  H   UNL     1       1.935   7.063  19.975  0.00  0.00    +0.000 HD
BRANCH  11  15
ATOM     15  C   UNL     1       2.862   6.009  18.330  0.00  0.00    +0.000 C 
BRANCH  15  16
ATOM     16  C   UNL     1       4.255   5.678  18.903  0.00  0.00    +0.000 C 
BRANCH  16  21
ATOM     17  C   UNL     1       6.174   3.899  15.231  0.00  0.00    +0.000 C 
ATOM     18  C   UNL     1       5.508   4.811  16.263  0.00  0.00    +0.000 C 
ATOM     19  C   UNL     1       5.306   6.206  15.669  0.00  0.00    +0.000 C 
ATOM     20  C   UNL     1       4.269   4.195  16.969  0.00  0.00    +0.000 C 
ATOM     21  N   UNL     1       4.867   4.482  18.293  0.00  0.00    +0.000 NA
ATOM     22  C   UNL     1       6.170   4.767  17.666  0.00  0.00    +0.000 C 
ENDBRANCH  16  21
ENDBRANCH  15  16
ENDBRANCH  11  15
ENDBRANCH   1  12
BRANCH   6  23
ATOM     23  O   UNL     1      -1.673  12.926  23.489  0.00  0.00    +0.000 OA
BRANCH  23  24
ATOM     24  C   UNL     1      -3.064  12.941  23.530  0.00  0.00    +0.000 A 
ATOM     25  C   UNL     1      -3.715  13.543  22.464  0.00  0.00    +0.000 A 
ATOM     26  C   UNL     1      -5.110  13.579  22.473  0.00  0.00    +0.000 A 
ATOM     27  C   UNL     1      -5.810  13.024  23.550  0.00  0.00    +0.000 A 
ATOM     28  C   UNL     1      -5.064  12.461  24.576  0.00  0.00    +0.000 A 
ATOM     29  N   UNL     1      -3.714  12.419  24.595  0.00  0.00    +0.000 NA
BRANCH  27  30
ATOM     30  C   UNL     1      -7.304  13.021  23.645  0.00  0.00    +0.000 C 
ATOM     31  F   UNL     1      -7.916  13.664  22.613  0.00  0.00    +0.000 F 
ATOM     32  F   UNL     1      -7.821  11.761  23.659  0.00  0.00    +0.000 F 
ATOM     33  F   UNL     1      -7.754  13.621  24.780  0.00  0.00    +0.000 F 
ENDBRANCH  27  30
ENDBRANCH  23  24
ENDBRANCH   6  23
TORSDOF 7
ENDMDL
MODEL 4
REMARK VINA RESULT:      -8.2      2.047      3.293
REMARK  Name = 
REMARK  9 active torsions:
REMARK  status: ('A' for Active; 'I' for Inactive)
REMARK    1  A    between atoms: C_1  and  C_2
REMARK    2  A    between atoms: C_2  and  C_3
REMARK    3  A    between atoms: N_5  and  C_6
REMARK    4  A    between atoms: C_6  and  C_7
REMARK    5  A    between atoms: C_7  and  N_8
REMARK    6  A    between atoms: C_9  and  C_11
REMARK    7  A    between atoms: C_16  and  O_17
REMARK    8  A    between atoms: O_17  and  C_18
REMARK    9  A    between atoms: C_21  and  C_22
REMARK                            x       y       z     vdW  Elec       q    Type
REMARK                         _______ _______ _______ _____ _____    ______ ____
ROOT
ATOM      1  C   UNL     1       2.506   7.564  18.811  0.00  0.00    +0.000 A 
ATOM      2  C   UNL     1       2.531   8.451  17.743  0.00  0.00    +0.000 A 
ATOM      3  C   UNL     1       1.833   9.647  17.864  0.00  0.00    +0.000 A 
ATOM      4  C   UNL     1       1.131   9.925  19.042  0.00  0.00    +0.000 A 
ATOM      5  C   UNL     1       0.421  11.132  19.204  0.00  0.00    +0.000 A 
ATOM      6  C   UNL     1      -0.263  11.392  20.391  0.00  0.00    +0.000 A 
ATOM      7  C   UNL     1      -0.284  10.422  21.389  0.00  0.00    +0.000 A 
ATOM      8  C   UNL     1       0.434   9.230  21.227  0.00  0.00    +0.000 A 
ATOM      9  C   UNL     1       1.152   8.954  20.071  0.00  0.00    +0.000 A 
ATOM     10  N   UNL     1       1.827   7.791  19.968  0.00  0.00    +0.000 NA
ENDROOT
BRANCH   1  12
ATOM     11  N   UNL     1       2.860   5.413  17.698  0.00  0.00    +0.000 N 
ATOM     12  C   UNL     1       3.263   6.272  18.700  0.00  0.00    +0.000 C 
ATOM     13  O   UNL     1       4.186   6.019  19.471  0.00  0.00    +0.000 OA
ATOM     14  H   UNL     1       2.057   5.700  17.148  0.00  0.00    +0.000 HD
BRANCH  11  15
ATOM     15  C   UNL     1       3.510   4.130  17.466  0.00  0.00    +0.000 C 
BRANCH  15  16
ATOM     16  C   UNL     1       2.515   2.953  17.490  0.00  0.00    +0.000 C 
BRANCH  16  21
ATOM     17  C   UNL     1       1.587   2.369  21.864  0.00  0.00    +0.000 C 
ATOM     18  C   UNL     1       1.702   2.882  20.428  0.00  0.00    +0.000 C 
ATOM     19  C   UNL     1       0.951   4.207  20.287  0.00  0.00    +0.000 C 
ATOM     20  C   UNL     1       3.141   2.859  19.844  0.00  0.00    +0.000 C 
ATOM     21  N   UNL     1       2.668   2.085  18.674  0.00  0.00    +0.000 NA
ATOM     22  C   UNL     1       1.386   1.812  19.348  0.00  0.00    +0.000 C 
ENDBRANCH  16  21
ENDBRANCH  15  16
ENDBRANCH  11  15
ENDBRANCH   1  12
BRANCH   6  23
ATOM     23  O   UNL     1      -0.959  12.580  20.469  0.00  0.00    +0.000 OA
BRANCH  23  24
ATOM     24  C   UNL     1      -2.047  12.652  21.333  0.00  0.00    +0.000 A 
ATOM     25  C   UNL     1      -3.306  12.690  20.752  0.00  0.00    +0.000 A 
ATOM     26  C   UNL     1      -4.421  12.765  21.589  0.00  0.00    +0.000 A 
ATOM     27  C   UNL     1      -4.244  12.813  22.976  0.00  0.00    +0.000 A 
ATOM     28  C   UNL     1      -2.942  12.787  23.456  0.00  0.00    +0.000 A 
ATOM     29  N   UNL     1      -1.846  12.722  22.669  0.00  0.00    +0.000 NA
BRANCH  27  30
ATOM     30  C   UNL     1      -5.380  12.897  23.946  0.00  0.00    +0.000 C 
ATOM     31  F   UNL     1      -6.544  12.378  23.468  0.00  0.00    +0.000 F 
ATOM     32  F   UNL     1      -5.123  12.234  25.107  0.00  0.00    +0.000 F 
ATOM     33  F   UNL     1      -5.662  14.180  24.305  0.00  0.00    +0.000 F 
ENDBRANCH  27  30
ENDBRANCH  23  24
ENDBRANCH   6  23
TORSDOF 7
ENDMDL
MODEL 5
REMARK VINA RESULT:      -8.2      1.017      1.287
REMARK  Name = 
REMARK  9 active torsions:
REMARK  status: ('A' for Active; 'I' for Inactive)
REMARK    1  A    between atoms: C_1  and  C_2
REMARK    2  A    between atoms: C_2  and  C_3
REMARK    3  A    between atoms: N_5  and  C_6
REMARK    4  A    between atoms: C_6  and  C_7
REMARK    5  A    between atoms: C_7  and  N_8
REMARK    6  A    between atoms: C_9  and  C_11
REMARK    7  A    between atoms: C_16  and  O_17
REMARK    8  A    between atoms: O_17  and  C_18
REMARK    9  A    between atoms: C_21  and  C_22
REMARK                            x       y       z     vdW  Elec       q    Type
REMARK                         _______ _______ _______ _____ _____    ______ ____
ROOT
ATOM      1  C   UNL     1       1.518   8.183  19.958  0.00  0.00    +0.000 A 
ATOM      2  C   UNL     1       1.478   9.245  19.063  0.00  0.00    +0.000 A 
ATOM      3  C   UNL     1       0.821  10.407  19.449  0.00  0.00    +0.000 A 
ATOM      4  C   UNL     1       0.221  10.479  20.712  0.00  0.00    +0.000 A 
ATOM      5  C   UNL     1      -0.445  11.644  21.142  0.00  0.00    +0.000 A 
ATOM      6  C   UNL     1      -1.027  11.697  22.408  0.00  0.00    +0.000 A 
ATOM      7  C   UNL     1      -0.991  10.565  23.219  0.00  0.00    +0.000 A 
ATOM      8  C   UNL     1      -0.316   9.414  22.791  0.00  0.00    +0.000 A 
ATOM      9  C   UNL     1       0.301   9.341  21.550  0.00  0.00    +0.000 A 
ATOM     10  N   UNL     1       0.938   8.208  21.188  0.00  0.00    +0.000 NA
ENDROOT
BRANCH   1  12
ATOM     11  N   UNL     1       2.897   6.956  18.351  0.00  0.00    +0.000 N 
ATOM     12  C   UNL     1       2.233   6.925  19.560  0.00  0.00    +0.000 C 
ATOM     13  O   UNL     1       2.212   5.935  20.289  0.00  0.00    +0.000 OA
ATOM     14  H   UNL     1       2.811   7.809  17.806  0.00  0.00    +0.000 HD
BRANCH  11  15
ATOM     15  C   UNL     1       3.642   5.812  17.844  0.00  0.00    +0.000 C 
BRANCH  15  16
ATOM     16  C   UNL     1       5.155   5.926  18.120  0.00  0.00    +0.000 C 
BRANCH  16  21
ATOM     17  C   UNL     1       7.043   4.994  14.132  0.00  0.00    +0.000 C 
ATOM     18  C   UNL     1       6.304   4.948  15.470  0.00  0.00    +0.000 C 
ATOM     19  C   UNL     1       5.747   3.543  15.708  0.00  0.00    +0.000 C 
ATOM     20  C   UNL     1       7.076   5.577  16.661  0.00  0.00    +0.000 C 
ATOM     21  N   UNL     1       5.919   6.447  16.969  0.00  0.00    +0.000 NA
ATOM     22  C   UNL     1       5.298   6.112  15.675  0.00  0.00    +0.000 C 
ENDBRANCH  16  21
ENDBRANCH  15  16
ENDBRANCH  11  15
ENDBRANCH   1  12
BRANCH   6  23
ATOM     23  O   UNL     1      -1.686  12.858  22.750  0.00  0.00    +0.000 OA
BRANCH  23  24
ATOM     24  C   UNL     1      -3.073  12.823  22.855  0.00  0.00    +0.000 A 
ATOM     25  C   UNL     1      -3.603  12.792  24.136  0.00  0.00    +0.000 A 
ATOM     26  C   UNL     1      -4.991  12.755  24.280  0.00  0.00    +0.000 A 
ATOM     27  C   UNL     1      -5.804  12.737  23.142  0.00  0.00    +0.000 A 
ATOM     28  C   UNL     1      -5.175  12.752  21.905  0.00  0.00    +0.000 A 
ATOM     29  N   UNL     1      -3.835  12.781  21.738  0.00  0.00    +0.000 NA
BRANCH  27  30
ATOM     30  C   UNL     1      -7.300  12.693  23.202  0.00  0.00    +0.000 C 
ATOM     31  F   UNL     1      -7.814  11.443  23.044  0.00  0.00    +0.000 F 
ATOM     32  F   UNL     1      -7.785  13.150  24.388  0.00  0.00    +0.000 F 
ATOM     33  F   UNL     1      -7.881  13.461  22.240  0.00  0.00    +0.000 F 
ENDBRANCH  27  30
ENDBRANCH  23  24
ENDBRANCH   6  23
TORSDOF 7
ENDMDL
MODEL 6
REMARK VINA RESULT:      -8.2      1.105      1.523
REMARK  Name = 
REMARK  9 active torsions:
REMARK  status: ('A' for Active; 'I' for Inactive)
REMARK    1  A    between atoms: C_1  and  C_2
REMARK    2  A    between atoms: C_2  and  C_3
REMARK    3  A    between atoms: N_5  and  C_6
REMARK    4  A    between atoms: C_6  and  C_7
REMARK    5  A    between atoms: C_7  and  N_8
REMARK    6  A    between atoms: C_9  and  C_11
REMARK    7  A    between atoms: C_16  and  O_17
REMARK    8  A    between atoms: O_17  and  C_18
REMARK    9  A    between atoms: C_21  and  C_22
REMARK                            x       y       z     vdW  Elec       q    Type
REMARK                         _______ _______ _______ _____ _____    ______ ____
ROOT
ATOM      1  C   UNL     1       1.959   7.946  19.116  0.00  0.00    +0.000 A 
ATOM      2  C   UNL     1       1.767   8.886  18.112  0.00  0.00    +0.000 A 
ATOM      3  C   UNL     1       1.081  10.053  18.424  0.00  0.00    +0.000 A 
ATOM      4  C   UNL     1       0.603  10.250  19.725  0.00  0.00    +0.000 A 
ATOM      5  C   UNL     1      -0.089  11.425  20.082  0.00  0.00    +0.000 A 
ATOM      6  C   UNL     1      -0.547  11.605  21.387  0.00  0.00    +0.000 A 
ATOM      7  C   UNL     1      -0.363  10.585  22.317  0.00  0.00    +0.000 A 
ATOM      8  C   UNL     1       0.337   9.425  21.959  0.00  0.00    +0.000 A 
ATOM      9  C   UNL     1       0.834   9.230  20.678  0.00  0.00    +0.000 A 
ATOM     10  N   UNL     1       1.501   8.094  20.389  0.00  0.00    +0.000 NA
ENDROOT
BRANCH   1  12
ATOM     11  N   UNL     1       3.483   6.161  19.811  0.00  0.00    +0.000 N 
ATOM     12  C   UNL     1       2.708   6.684  18.796  0.00  0.00    +0.000 C 
ATOM     13  O   UNL     1       2.617   6.167  17.685  0.00  0.00    +0.000 OA
ATOM     14  H   UNL     1       3.523   6.694  20.674  0.00  0.00    +0.000 HD
BRANCH  11  15
ATOM     15  C   UNL     1       4.254   4.936  19.647  0.00  0.00    +0.000 C 
BRANCH  15  16
ATOM     16  C   UNL     1       5.695   5.207  19.174  0.00  0.00    +0.000 C 
BRANCH  16  21
ATOM     17  C   UNL     1       6.374   4.133  14.847  0.00  0.00    +0.000 C 
ATOM     18  C   UNL     1       6.012   4.816  16.166  0.00  0.00    +0.000 C 
ATOM     19  C   UNL     1       5.430   6.204  15.890  0.00  0.00    +0.000 C 
ATOM     20  C   UNL     1       5.204   3.932  17.155  0.00  0.00    +0.000 C 
ATOM     21  N   UNL     1       6.196   4.196  18.221  0.00  0.00    +0.000 NA
ATOM     22  C   UNL     1       7.136   4.760  17.235  0.00  0.00    +0.000 C 
ENDBRANCH  16  21
ENDBRANCH  15  16
ENDBRANCH  11  15
ENDBRANCH   1  12
BRANCH   6  23
ATOM     23  O   UNL     1      -1.240  12.765  21.656  0.00  0.00    +0.000 OA
BRANCH  23  24
ATOM     24  C   UNL     1      -2.630  12.730  21.610  0.00  0.00    +0.000 A 
ATOM     25  C   UNL     1      -3.213  12.697  20.352  0.00  0.00    +0.000 A 
ATOM     26  C   UNL     1      -4.606  12.663  20.267  0.00  0.00    +0.000 A 
ATOM     27  C   UNL     1      -5.371  12.676  21.438  0.00  0.00    +0.000 A 
ATOM     28  C   UNL     1      -4.692  12.728  22.646  0.00  0.00    +0.000 A 
ATOM     29  N   UNL     1      -3.346  12.768  22.757  0.00  0.00    +0.000 NA
BRANCH  27  30
ATOM     30  C   UNL     1      -6.868  12.646  21.440  0.00  0.00    +0.000 C 
ATOM     31  F   UNL     1      -7.396  11.882  22.436  0.00  0.00    +0.000 F 
ATOM     32  F   UNL     1      -7.412  13.885  21.592  0.00  0.00    +0.000 F 
ATOM     33  F   UNL     1      -7.380  12.153  20.279  0.00  0.00    +0.000 F 
ENDBRANCH  27  30
ENDBRANCH  23  24
ENDBRANCH   6  23
TORSDOF 7
ENDMDL
MODEL 7
REMARK VINA RESULT:      -8.1      1.346      2.024
REMARK  Name = 
REMARK  9 active torsions:
REMARK  status: ('A' for Active; 'I' for Inactive)
REMARK    1  A    between atoms: C_1  and  C_2
REMARK    2  A    between atoms: C_2  and  C_3
REMARK    3  A    between atoms: N_5  and  C_6
REMARK    4  A    between atoms: C_6  and  C_7
REMARK    5  A    between atoms: C_7  and  N_8
REMARK    6  A    between atoms: C_9  and  C_11
REMARK    7  A    between atoms: C_16  and  O_17
REMARK    8  A    between atoms: O_17  and  C_18
REMARK    9  A    between atoms: C_21  and  C_22
REMARK                            x       y       z     vdW  Elec       q    Type
REMARK                         _______ _______ _______ _____ _____    ______ ____
ROOT
ATOM      1  C   UNL     1       1.944   7.566  19.676  0.00  0.00    +0.000 A 
ATOM      2  C   UNL     1       1.455   7.492  20.974  0.00  0.00    +0.000 A 
ATOM      3  C   UNL     1       0.758   8.583  21.479  0.00  0.00    +0.000 A 
ATOM      4  C   UNL     1       0.569   9.716  20.679  0.00  0.00    +0.000 A 
ATOM      5  C   UNL     1      -0.141  10.838  21.153  0.00  0.00    +0.000 A 
ATOM      6  C   UNL     1      -0.326  11.952  20.336  0.00  0.00    +0.000 A 
ATOM      7  C   UNL     1       0.249  11.966  19.067  0.00  0.00    +0.000 A 
ATOM      8  C   UNL     1       0.942  10.843  18.597  0.00  0.00    +0.000 A 
ATOM      9  C   UNL     1       1.116   9.706  19.374  0.00  0.00    +0.000 A 
ATOM     10  N   UNL     1       1.792   8.653  18.871  0.00  0.00    +0.000 NA
ENDROOT
BRANCH   1  12
ATOM     11  N   UNL     1       3.678   5.856  19.913  0.00  0.00    +0.000 N 
ATOM     12  C   UNL     1       2.690   6.391  19.113  0.00  0.00    +0.000 C 
ATOM     13  O   UNL     1       2.415   5.951  17.999  0.00  0.00    +0.000 OA
ATOM     14  H   UNL     1       3.854   6.325  20.796  0.00  0.00    +0.000 HD
BRANCH  11  15
ATOM     15  C   UNL     1       4.475   4.708  19.500  0.00  0.00    +0.000 C 
BRANCH  15  16
ATOM     16  C   UNL     1       5.821   5.121  18.873  0.00  0.00    +0.000 C 
BRANCH  16  21
ATOM     17  C   UNL     1       6.072   4.455  14.420  0.00  0.00    +0.000 C 
ATOM     18  C   UNL     1       5.827   5.004  15.826  0.00  0.00    +0.000 C 
ATOM     19  C   UNL     1       5.161   6.378  15.738  0.00  0.00    +0.000 C 
ATOM     20  C   UNL     1       5.168   3.999  16.810  0.00  0.00    +0.000 C 
ATOM     21  N   UNL     1       6.257   4.222  17.786  0.00  0.00    +0.000 NA
ATOM     22  C   UNL     1       7.061   4.914  16.763  0.00  0.00    +0.000 C 
ENDBRANCH  16  21
ENDBRANCH  15  16
ENDBRANCH  11  15
ENDBRANCH   1  12
BRANCH   6  23
ATOM     23  O   UNL     1      -1.006  13.023  20.875  0.00  0.00    +0.000 OA
BRANCH  23  24
ATOM     24  C   UNL     1      -2.379  12.906  21.064  0.00  0.00    +0.000 A 
ATOM     25  C   UNL     1      -2.839  12.982  22.370  0.00  0.00    +0.000 A 
ATOM     26  C   UNL     1      -4.211  12.867  22.598  0.00  0.00    +0.000 A 
ATOM     27  C   UNL     1      -5.078  12.667  21.518  0.00  0.00    +0.000 A 
ATOM     28  C   UNL     1      -4.515  12.587  20.253  0.00  0.00    +0.000 A 
ATOM     29  N   UNL     1      -3.192  12.689  20.005  0.00  0.00    +0.000 NA
BRANCH  27  30
ATOM     30  C   UNL     1      -6.561  12.529  21.670  0.00  0.00    +0.000 C 
ATOM     31  F   UNL     1      -6.968  12.423  22.965  0.00  0.00    +0.000 F 
ATOM     32  F   UNL     1      -7.238  13.590  21.151  0.00  0.00    +0.000 F 
ATOM     33  F   UNL     1      -7.048  11.429  21.034  0.00  0.00    +0.000 F 
ENDBRANCH  27  30
ENDBRANCH  23  24
ENDBRANCH   6  23
TORSDOF 7
ENDMDL
MODEL 8
REMARK VINA RESULT:      -8.1      2.275      3.576
REMARK  Name = 
REMARK  9 active torsions:
REMARK  status: ('A' for Active; 'I' for Inactive)
REMARK    1  A    between atoms: C_1  and  C_2
REMARK    2  A    between atoms: C_2  and  C_3
REMARK    3  A    between atoms: N_5  and  C_6
REMARK    4  A    between atoms: C_6  and  C_7
REMARK    5  A    between atoms: C_7  and  N_8
REMARK    6  A    between atoms: C_9  and  C_11
REMARK    7  A    between atoms: C_16  and  O_17
REMARK    8  A    between atoms: O_17  and  C_18
REMARK    9  A    between atoms: C_21  and  C_22
REMARK                            x       y       z     vdW  Elec       q    Type
REMARK                         _______ _______ _______ _____ _____    ______ ____
ROOT
ATOM      1  C   UNL     1       2.671   7.358  18.713  0.00  0.00    +0.000 A 
ATOM      2  C   UNL     1       2.710   8.203  17.612  0.00  0.00    +0.000 A 
ATOM      3  C   UNL     1       2.032   9.414  17.688  0.00  0.00    +0.000 A 
ATOM      4  C   UNL     1       1.335   9.748  18.854  0.00  0.00    +0.000 A 
ATOM      5  C   UNL     1       0.644  10.971  18.971  0.00  0.00    +0.000 A 
ATOM      6  C   UNL     1      -0.036  11.288  20.147  0.00  0.00    +0.000 A 
ATOM      7  C   UNL     1      -0.072  10.356  21.181  0.00  0.00    +0.000 A 
ATOM      8  C   UNL     1       0.627   9.147  21.064  0.00  0.00    +0.000 A 
ATOM      9  C   UNL     1       1.340   8.817  19.919  0.00  0.00    +0.000 A 
ATOM     10  N   UNL     1       1.996   7.639  19.860  0.00  0.00    +0.000 NA
ENDROOT
BRANCH   1  12
ATOM     11  N   UNL     1       2.979   5.154  17.694  0.00  0.00    +0.000 N 
ATOM     12  C   UNL     1       3.407   6.050  18.651  0.00  0.00    +0.000 C 
ATOM     13  O   UNL     1       4.336   5.817  19.422  0.00  0.00    +0.000 OA
ATOM     14  H   UNL     1       2.173   5.429  17.140  0.00  0.00    +0.000 HD
BRANCH  11  15
ATOM     15  C   UNL     1       3.607   3.852  17.512  0.00  0.00    +0.000 C 
BRANCH  15  16
ATOM     16  C   UNL     1       2.589   2.696  17.560  0.00  0.00    +0.000 C 
BRANCH  16  21
ATOM     17  C   UNL     1       1.500   2.383  21.925  0.00  0.00    +0.000 C 
ATOM     18  C   UNL     1       1.677   2.811  20.467  0.00  0.00    +0.000 C 
ATOM     19  C   UNL     1       0.967   4.145  20.228  0.00  0.00    +0.000 C 
ATOM     20  C   UNL     1       3.133   2.719  19.936  0.00  0.00    +0.000 C 
ATOM     21  N   UNL     1       2.678   1.893  18.795  0.00  0.00    +0.000 NA
ATOM     22  C   UNL     1       1.367   1.691  19.439  0.00  0.00    +0.000 C 
ENDBRANCH  16  21
ENDBRANCH  15  16
ENDBRANCH  11  15
ENDBRANCH   1  12
BRANCH   6  23
ATOM     23  O   UNL     1      -0.712  12.488  20.179  0.00  0.00    +0.000 OA
BRANCH  23  24
ATOM     24  C   UNL     1      -1.516  12.763  21.281  0.00  0.00    +0.000 A 
ATOM     25  C   UNL     1      -0.884  13.271  22.405  0.00  0.00    +0.000 A 
ATOM     26  C   UNL     1      -1.659  13.557  23.531  0.00  0.00    +0.000 A 
ATOM     27  C   UNL     1      -3.037  13.315  23.502  0.00  0.00    +0.000 A 
ATOM     28  C   UNL     1      -3.569  12.789  22.334  0.00  0.00    +0.000 A 
ATOM     29  N   UNL     1      -2.842  12.497  21.234  0.00  0.00    +0.000 NA
BRANCH  27  30
ATOM     30  C   UNL     1      -3.943  13.588  24.662  0.00  0.00    +0.000 C 
ATOM     31  F   UNL     1      -4.218  12.484  25.409  0.00  0.00    +0.000 F 
ATOM     32  F   UNL     1      -3.421  14.503  25.525  0.00  0.00    +0.000 F 
ATOM     33  F   UNL     1      -5.148  14.087  24.273  0.00  0.00    +0.000 F 
ENDBRANCH  27  30
ENDBRANCH  23  24
ENDBRANCH   6  23
TORSDOF 7
ENDMDL
MODEL 9
REMARK VINA RESULT:      -8.0      1.627      2.694
REMARK  Name = 
REMARK  9 active torsions:
REMARK  status: ('A' for Active; 'I' for Inactive)
REMARK    1  A    between atoms: C_1  and  C_2
REMARK    2  A    between atoms: C_2  and  C_3
REMARK    3  A    between atoms: N_5  and  C_6
REMARK    4  A    between atoms: C_6  and  C_7
REMARK    5  A    between atoms: C_7  and  N_8
REMARK    6  A    between atoms: C_9  and  C_11
REMARK    7  A    between atoms: C_16  and  O_17
REMARK    8  A    between atoms: O_17  and  C_18
REMARK    9  A    between atoms: C_21  and  C_22
REMARK                            x       y       z     vdW  Elec       q    Type
REMARK                         _______ _______ _______ _____ _____    ______ ____
ROOT
ATOM      1  C   UNL     1       1.570   9.460  19.024  0.00  0.00    +0.000 A 
ATOM      2  C   UNL     1       1.478  10.779  18.600  0.00  0.00    +0.000 A 
ATOM      3  C   UNL     1       0.806  11.686  19.411  0.00  0.00    +0.000 A 
ATOM      4  C   UNL     1       0.245  11.254  20.618  0.00  0.00    +0.000 A 
ATOM      5  C   UNL     1      -0.434  12.147  21.472  0.00  0.00    +0.000 A 
ATOM      6  C   UNL     1      -0.977  11.698  22.675  0.00  0.00    +0.000 A 
ATOM      7  C   UNL     1      -0.890  10.345  22.995  0.00  0.00    +0.000 A 
ATOM      8  C   UNL     1      -0.202   9.465  22.149  0.00  0.00    +0.000 A 
ATOM      9  C   UNL     1       0.377   9.888  20.960  0.00  0.00    +0.000 A 
ATOM     10  N   UNL     1       1.029   8.997  20.184  0.00  0.00    +0.000 NA
ENDROOT
BRANCH   1  12
ATOM     11  N   UNL     1       2.886   7.407  18.819  0.00  0.00    +0.000 N 
ATOM     12  C   UNL     1       2.301   8.470  18.164  0.00  0.00    +0.000 C 
ATOM     13  O   UNL     1       2.358   8.621  16.945  0.00  0.00    +0.000 OA
ATOM     14  H   UNL     1       2.818   7.402  19.832  0.00  0.00    +0.000 HD
BRANCH  11  15
ATOM     15  C   UNL     1       3.617   6.364  18.111  0.00  0.00    +0.000 C 
BRANCH  15  16
ATOM     16  C   UNL     1       3.079   4.953  18.423  0.00  0.00    +0.000 C 
BRANCH  16  21
ATOM     17  C   UNL     1       1.460   2.502  21.844  0.00  0.00    +0.000 C 
ATOM     18  C   UNL     1       1.727   3.171  20.496  0.00  0.00    +0.000 C 
ATOM     19  C   UNL     1       0.705   2.689  19.464  0.00  0.00    +0.000 C 
ATOM     20  C   UNL     1       1.940   4.708  20.564  0.00  0.00    +0.000 C 
ATOM     21  N   UNL     1       3.225   4.575  19.842  0.00  0.00    +0.000 NA
ATOM     22  C   UNL     1       3.212   3.115  20.046  0.00  0.00    +0.000 C 
ENDBRANCH  16  21
ENDBRANCH  15  16
ENDBRANCH  11  15
ENDBRANCH   1  12
BRANCH   6  23
ATOM     23  O   UNL     1      -1.652  12.620  23.445  0.00  0.00    +0.000 OA
BRANCH  23  24
ATOM     24  C   UNL     1      -3.037  12.684  23.335  0.00  0.00    +0.000 A 
ATOM     25  C   UNL     1      -3.764  12.553  24.509  0.00  0.00    +0.000 A 
ATOM     26  C   UNL     1      -5.157  12.610  24.438  0.00  0.00    +0.000 A 
ATOM     27  C   UNL     1      -5.779  12.784  23.197  0.00  0.00    +0.000 A 
ATOM     28  C   UNL     1      -4.963  12.887  22.080  0.00  0.00    +0.000 A 
ATOM     29  N   UNL     1      -3.614  12.828  22.120  0.00  0.00    +0.000 NA
BRANCH  27  30
ATOM     30  C   UNL     1      -7.265  12.853  23.026  0.00  0.00    +0.000 C 
ATOM     31  F   UNL     1      -7.670  12.739  21.731  0.00  0.00    +0.000 F 
ATOM     32  F   UNL     1      -7.913  11.868  23.708  0.00  0.00    +0.000 F 
ATOM     33  F   UNL     1      -7.787  14.026  23.480  0.00  0.00    +0.000 F 
ENDBRANCH  27  30
ENDBRANCH  23  24
ENDBRANCH   6  23
TORSDOF 7
ENDMDL
