MODEL 1
REMARK VINA RESULT:      -7.5      0.000      0.000
REMARK  Name = 
REMARK  5 active torsions:
REMARK  status: ('A' for Active; 'I' for Inactive)
REMARK    1  A    between atoms: C_1  and  C_2
REMARK    2  A    between atoms: C_2  and  O_3
REMARK    3  A    between atoms: O_3  and  C_4
REMARK    4  A    between atoms: C_6  and  C_7
REMARK    5  A    between atoms: C_19  and  O_20
REMARK                            x       y       z     vdW  Elec       q    Type
REMARK                         _______ _______ _______ _____ _____    ______ ____
ROOT
ATOM      1  C   UNL     1       6.973   5.846  16.176  0.00  0.00    +0.000 A 
ATOM      2  C   UNL     1       5.958   5.401  17.025  0.00  0.00    +0.000 A 
ATOM      3  C   UNL     1       5.078   4.377  16.640  0.00  0.00    +0.000 A 
ATOM      4  C   UNL     1       5.208   3.828  15.359  0.00  0.00    +0.000 A 
ATOM      5  C   UNL     1       6.256   4.223  14.521  0.00  0.00    +0.000 A 
ATOM      6  C   UNL     1       7.146   5.211  14.943  0.00  0.00    +0.000 A 
ENDROOT
BRANCH   3   7
ATOM      7  C   UNL     1       4.078   3.841  17.573  0.00  0.00    +0.000 A 
ATOM      8  N   UNL     1       4.266   3.641  18.862  0.00  0.00    +0.000 NA
ATOM      9  C   UNL     1       3.075   3.261  19.465  0.00  0.00    +0.000 A 
ATOM     10  C   UNL     1       2.886   2.984  20.832  0.00  0.00    +0.000 A 
ATOM     11  C   UNL     1       1.606   2.666  21.285  0.00  0.00    +0.000 A 
ATOM     12  F   UNL     1       1.416   2.425  22.589  0.00  0.00    +0.000 F 
ATOM     13  C   UNL     1       0.520   2.607  20.425  0.00  0.00    +0.000 A 
ATOM     14  C   UNL     1       0.688   2.854  19.063  0.00  0.00    +0.000 A 
ATOM     15  C   UNL     1       1.977   3.180  18.605  0.00  0.00    +0.000 A 
ATOM     16  S   UNL     1       2.476   3.545  17.013  0.00  0.00    +0.000 S 
ENDBRANCH   3   7
BRANCH   6  17
ATOM     17  O   UNL     1       8.192   5.577  14.140  0.00  0.00    +0.000 OA
ATOM     18  H   UNL     1       8.964   5.032  14.355  0.00  0.00    +0.000 HD
ENDBRANCH   6  17
BRANCH   1  19
ATOM     19  O   UNL     1       7.830   6.867  16.503  0.00  0.00    +0.000 OA
BRANCH  19  21
ATOM     20  C   UNL     1       7.998   8.892  17.782  0.00  0.00    +0.000 C 
ATOM     21  C   UNL     1       7.632   7.422  17.805  0.00  0.00    +0.000 C 
ENDBRANCH  19  21
ENDBRANCH   1  19
TORSDOF 4
ENDMDL
MODEL 2
REMARK VINA RESULT:      -7.4      1.198      3.043
REMARK  Name = 
REMARK  5 active torsions:
REMARK  status: ('A' for Active; 'I' for Inactive)
REMARK    1  A    between atoms: C_1  and  C_2
REMARK    2  A    between atoms: C_2  and  O_3
REMARK    3  A    between atoms: O_3  and  C_4
REMARK    4  A    between atoms: C_6  and  C_7
REMARK    5  A    between atoms: C_19  and  O_20
REMARK                            x       y       z     vdW  Elec       q    Type
REMARK                         _______ _______ _______ _____ _____    ______ ____
ROOT
ATOM      1  C   UNL     1       6.397   4.112  14.497  0.00  0.00    +0.000 A 
ATOM      2  C   UNL     1       5.436   3.631  15.387  0.00  0.00    +0.000 A 
ATOM      3  C   UNL     1       5.360   4.101  16.708  0.00  0.00    +0.000 A 
ATOM      4  C   UNL     1       6.302   5.043  17.139  0.00  0.00    +0.000 A 
ATOM      5  C   UNL     1       7.234   5.575  16.242  0.00  0.00    +0.000 A 
ATOM      6  C   UNL     1       7.261   5.126  14.921  0.00  0.00    +0.000 A 
ENDROOT
BRANCH   3   7
ATOM      7  C   UNL     1       4.284   3.670  17.610  0.00  0.00    +0.000 A 
ATOM      8  N   UNL     1       4.422   3.409  18.894  0.00  0.00    +0.000 NA
ATOM      9  C   UNL     1       3.182   3.166  19.468  0.00  0.00    +0.000 A 
ATOM     10  C   UNL     1       2.937   2.875  20.823  0.00  0.00    +0.000 A 
ATOM     11  C   UNL     1       1.618   2.710  21.249  0.00  0.00    +0.000 A 
ATOM     12  F   UNL     1       1.377   2.456  22.542  0.00  0.00    +0.000 F 
ATOM     13  C   UNL     1       0.549   2.815  20.373  0.00  0.00    +0.000 A 
ATOM     14  C   UNL     1       0.771   3.079  19.021  0.00  0.00    +0.000 A 
ATOM     15  C   UNL     1       2.099   3.251  18.592  0.00  0.00    +0.000 A 
ATOM     16  S   UNL     1       2.667   3.597  17.019  0.00  0.00    +0.000 S 
ENDBRANCH   3   7
BRANCH   6  17
ATOM     17  O   UNL     1       8.149   5.668  14.033  0.00  0.00    +0.000 OA
ATOM     18  H   UNL     1       7.736   6.428  13.595  0.00  0.00    +0.000 HD
ENDBRANCH   6  17
BRANCH   1  19
ATOM     19  O   UNL     1       6.525   3.653  13.210  0.00  0.00    +0.000 OA
BRANCH  19  21
ATOM     20  C   UNL     1       5.453   2.349  11.502  0.00  0.00    +0.000 C 
ATOM     21  C   UNL     1       5.289   3.462  12.517  0.00  0.00    +0.000 C 
ENDBRANCH  19  21
ENDBRANCH   1  19
TORSDOF 4
ENDMDL
MODEL 3
REMARK VINA RESULT:      -7.3      4.657      4.884
REMARK  Name = 
REMARK  5 active torsions:
REMARK  status: ('A' for Active; 'I' for Inactive)
REMARK    1  A    between atoms: C_1  and  C_2
REMARK    2  A    between atoms: C_2  and  O_3
REMARK    3  A    between atoms: O_3  and  C_4
REMARK    4  A    between atoms: C_6  and  C_7
REMARK    5  A    between atoms: C_19  and  O_20
REMARK                            x       y       z     vdW  Elec       q    Type
REMARK                         _______ _______ _______ _____ _____    ______ ____
ROOT
ATOM      1  C   UNL     1       5.480   5.925  16.968  0.00  0.00    +0.000 A 
ATOM      2  C   UNL     1       4.601   6.817  17.583  0.00  0.00    +0.000 A 
ATOM      3  C   UNL     1       3.344   6.401  18.050  0.00  0.00    +0.000 A 
ATOM      4  C   UNL     1       2.962   5.068  17.851  0.00  0.00    +0.000 A 
ATOM      5  C   UNL     1       3.856   4.151  17.289  0.00  0.00    +0.000 A 
ATOM      6  C   UNL     1       5.118   4.579  16.873  0.00  0.00    +0.000 A 
ENDROOT
BRANCH   3   7
ATOM      7  C   UNL     1       2.463   7.317  18.788  0.00  0.00    +0.000 A 
ATOM      8  N   UNL     1       2.139   7.205  20.060  0.00  0.00    +0.000 NA
ATOM      9  C   UNL     1       1.409   8.313  20.466  0.00  0.00    +0.000 A 
ATOM     10  C   UNL     1       0.911   8.552  21.761  0.00  0.00    +0.000 A 
ATOM     11  C   UNL     1       0.240   9.748  22.015  0.00  0.00    +0.000 A 
ATOM     12  F   UNL     1      -0.216   9.992  23.250  0.00  0.00    +0.000 F 
ATOM     13  C   UNL     1       0.043  10.700  21.026  0.00  0.00    +0.000 A 
ATOM     14  C   UNL     1       0.507  10.474  19.730  0.00  0.00    +0.000 A 
ATOM     15  C   UNL     1       1.189   9.271  19.474  0.00  0.00    +0.000 A 
ATOM     16  S   UNL     1       1.876   8.734  18.005  0.00  0.00    +0.000 S 
ENDBRANCH   3   7
BRANCH   6  17
ATOM     17  O   UNL     1       6.007   3.678  16.354  0.00  0.00    +0.000 OA
ATOM     18  H   UNL     1       5.536   3.072  15.761  0.00  0.00    +0.000 HD
ENDBRANCH   6  17
BRANCH   1  19
ATOM     19  O   UNL     1       6.702   6.300  16.468  0.00  0.00    +0.000 OA
BRANCH  19  21
ATOM     20  C   UNL     1       7.848   6.337  18.578  0.00  0.00    +0.000 C 
ATOM     21  C   UNL     1       7.477   7.127  17.339  0.00  0.00    +0.000 C 
ENDBRANCH  19  21
ENDBRANCH   1  19
TORSDOF 4
ENDMDL
MODEL 4
REMARK VINA RESULT:      -7.0      5.151      5.932
REMARK  Name = 
REMARK  5 active torsions:
REMARK  status: ('A' for Active; 'I' for Inactive)
REMARK    1  A    between atoms: C_1  and  C_2
REMARK    2  A    between atoms: C_2  and  O_3
REMARK    3  A    between atoms: O_3  and  C_4
REMARK    4  A    between atoms: C_6  and  C_7
REMARK    5  A    between atoms: C_19  and  O_20
REMARK                            x       y       z     vdW  Elec       q    Type
REMARK                         _______ _______ _______ _____ _____    ______ ____
ROOT
ATOM      1  C   UNL     1       4.937   4.289  19.206  0.00  0.00    +0.000 A 
ATOM      2  C   UNL     1       4.229   5.491  19.194  0.00  0.00    +0.000 A 
ATOM      3  C   UNL     1       2.910   5.568  19.669  0.00  0.00    +0.000 A 
ATOM      4  C   UNL     1       2.291   4.396  20.123  0.00  0.00    +0.000 A 
ATOM      5  C   UNL     1       3.008   3.198  20.193  0.00  0.00    +0.000 A 
ATOM      6  C   UNL     1       4.333   3.156  19.758  0.00  0.00    +0.000 A 
ENDROOT
BRANCH   3   7
ATOM      7  C   UNL     1       2.204   6.854  19.752  0.00  0.00    +0.000 A 
ATOM      8  N   UNL     1       1.574   7.312  20.815  0.00  0.00    +0.000 NA
ATOM      9  C   UNL     1       1.142   8.612  20.590  0.00  0.00    +0.000 A 
ATOM     10  C   UNL     1       0.453   9.429  21.506  0.00  0.00    +0.000 A 
ATOM     11  C   UNL     1       0.138  10.737  21.138  0.00  0.00    +0.000 A 
ATOM     12  F   UNL     1      -0.496  11.527  22.014  0.00  0.00    +0.000 F 
ATOM     13  C   UNL     1       0.476  11.248  19.894  0.00  0.00    +0.000 A 
ATOM     14  C   UNL     1       1.137  10.448  18.962  0.00  0.00    +0.000 A 
ATOM     15  C   UNL     1       1.461   9.131  19.333  0.00  0.00    +0.000 A 
ATOM     16  S   UNL     1       2.274   7.941  18.417  0.00  0.00    +0.000 S 
ENDBRANCH   3   7
BRANCH   6  17
ATOM     17  O   UNL     1       5.048   1.993  19.856  0.00  0.00    +0.000 OA
ATOM     18  H   UNL     1       5.347   1.880  20.771  0.00  0.00    +0.000 HD
ENDBRANCH   6  17
BRANCH   1  19
ATOM     19  O   UNL     1       6.215   4.166  18.719  0.00  0.00    +0.000 OA
BRANCH  19  21
ATOM     20  C   UNL     1       7.892   5.825  19.165  0.00  0.00    +0.000 C 
ATOM     21  C   UNL     1       6.788   5.380  18.227  0.00  0.00    +0.000 C 
ENDBRANCH  19  21
ENDBRANCH   1  19
TORSDOF 4
ENDMDL
MODEL 5
REMARK VINA RESULT:      -7.0      5.217      5.685
REMARK  Name = 
REMARK  5 active torsions:
REMARK  status: ('A' for Active; 'I' for Inactive)
REMARK    1  A    between atoms: C_1  and  C_2
REMARK    2  A    between atoms: C_2  and  O_3
REMARK    3  A    between atoms: O_3  and  C_4
REMARK    4  A    between atoms: C_6  and  C_7
REMARK    5  A    between atoms: C_19  and  O_20
REMARK                            x       y       z     vdW  Elec       q    Type
REMARK                         _______ _______ _______ _____ _____    ______ ____
ROOT
ATOM      1  C   UNL     1       4.692   4.647  18.929  0.00  0.00    +0.000 A 
ATOM      2  C   UNL     1       4.022   5.787  19.375  0.00  0.00    +0.000 A 
ATOM      3  C   UNL     1       2.724   6.093  18.935  0.00  0.00    +0.000 A 
ATOM      4  C   UNL     1       2.118   5.248  17.997  0.00  0.00    +0.000 A 
ATOM      5  C   UNL     1       2.755   4.073  17.585  0.00  0.00    +0.000 A 
ATOM      6  C   UNL     1       4.026   3.767  18.072  0.00  0.00    +0.000 A 
ENDROOT
BRANCH   3   7
ATOM      7  C   UNL     1       1.983   7.236  19.485  0.00  0.00    +0.000 A 
ATOM      8  N   UNL     1       1.474   7.303  20.698  0.00  0.00    +0.000 NA
ATOM      9  C   UNL     1       0.965   8.573  20.932  0.00  0.00    +0.000 A 
ATOM     10  C   UNL     1       0.364   9.021  22.124  0.00  0.00    +0.000 A 
ATOM     11  C   UNL     1      -0.048  10.352  22.212  0.00  0.00    +0.000 A 
ATOM     12  F   UNL     1      -0.598  10.790  23.352  0.00  0.00    +0.000 F 
ATOM     13  C   UNL     1       0.110  11.238  21.158  0.00  0.00    +0.000 A 
ATOM     14  C   UNL     1       0.681  10.808  19.959  0.00  0.00    +0.000 A 
ATOM     15  C   UNL     1       1.102   9.470  19.870  0.00  0.00    +0.000 A 
ATOM     16  S   UNL     1       1.841   8.676  18.551  0.00  0.00    +0.000 S 
ENDBRANCH   3   7
BRANCH   6  17
ATOM     17  O   UNL     1       4.638   2.601  17.697  0.00  0.00    +0.000 OA
ATOM     18  H   UNL     1       4.274   1.869  18.217  0.00  0.00    +0.000 HD
ENDBRANCH   6  17
BRANCH   1  19
ATOM     19  O   UNL     1       5.973   4.333  19.309  0.00  0.00    +0.000 OA
BRANCH  19  21
ATOM     20  C   UNL     1       7.571   4.665  17.548  0.00  0.00    +0.000 C 
ATOM     21  C   UNL     1       6.978   5.226  18.825  0.00  0.00    +0.000 C 
ENDBRANCH  19  21
ENDBRANCH   1  19
TORSDOF 4
ENDMDL
MODEL 6
REMARK VINA RESULT:      -6.9      5.139      5.918
REMARK  Name = 
REMARK  5 active torsions:
REMARK  status: ('A' for Active; 'I' for Inactive)
REMARK    1  A    between atoms: C_1  and  C_2
REMARK    2  A    between atoms: C_2  and  O_3
REMARK    3  A    between atoms: O_3  and  C_4
REMARK    4  A    between atoms: C_6  and  C_7
REMARK    5  A    between atoms: C_19  and  O_20
REMARK                            x       y       z     vdW  Elec       q    Type
REMARK                         _______ _______ _______ _____ _____    ______ ____
ROOT
ATOM      1  C   UNL     1       4.336   4.397  18.520  0.00  0.00    +0.000 A 
ATOM      2  C   UNL     1       3.500   5.344  19.112  0.00  0.00    +0.000 A 
ATOM      3  C   UNL     1       3.298   6.607  18.532  0.00  0.00    +0.000 A 
ATOM      4  C   UNL     1       3.988   6.922  17.355  0.00  0.00    +0.000 A 
ATOM      5  C   UNL     1       4.783   5.962  16.721  0.00  0.00    +0.000 A 
ATOM      6  C   UNL     1       4.933   4.698  17.293  0.00  0.00    +0.000 A 
ENDROOT
BRANCH   3   7
ATOM      7  C   UNL     1       2.339   7.563  19.102  0.00  0.00    +0.000 A 
ATOM      8  N   UNL     1       1.911   7.564  20.348  0.00  0.00    +0.000 NA
ATOM      9  C   UNL     1       1.125   8.684  20.582  0.00  0.00    +0.000 A 
ATOM     10  C   UNL     1       0.515   9.031  21.802  0.00  0.00    +0.000 A 
ATOM     11  C   UNL     1      -0.201  10.226  21.881  0.00  0.00    +0.000 A 
ATOM     12  F   UNL     1      -0.764  10.573  23.046  0.00  0.00    +0.000 F 
ATOM     13  C   UNL     1      -0.335  11.072  20.791  0.00  0.00    +0.000 A 
ATOM     14  C   UNL     1       0.241  10.735  19.566  0.00  0.00    +0.000 A 
ATOM     15  C   UNL     1       0.968   9.534  19.486  0.00  0.00    +0.000 A 
ATOM     16  S   UNL     1       1.787   8.880  18.138  0.00  0.00    +0.000 S 
ENDBRANCH   3   7
BRANCH   6  17
ATOM     17  O   UNL     1       5.683   3.745  16.658  0.00  0.00    +0.000 OA
ATOM     18  H   UNL     1       6.277   4.178  16.026  0.00  0.00    +0.000 HD
ENDBRANCH   6  17
BRANCH   1  19
ATOM     19  O   UNL     1       4.585   3.166  19.074  0.00  0.00    +0.000 OA
BRANCH  19  21
ATOM     20  C   UNL     1       2.817   1.872  18.090  0.00  0.00    +0.000 C 
ATOM     21  C   UNL     1       3.418   2.398  19.378  0.00  0.00    +0.000 C 
ENDBRANCH  19  21
ENDBRANCH   1  19
TORSDOF 4
ENDMDL
MODEL 7
REMARK VINA RESULT:      -6.9      4.104      4.748
REMARK  Name = 
REMARK  5 active torsions:
REMARK  status: ('A' for Active; 'I' for Inactive)
REMARK    1  A    between atoms: C_1  and  C_2
REMARK    2  A    between atoms: C_2  and  O_3
REMARK    3  A    between atoms: O_3  and  C_4
REMARK    4  A    between atoms: C_6  and  C_7
REMARK    5  A    between atoms: C_19  and  O_20
REMARK                            x       y       z     vdW  Elec       q    Type
REMARK                         _______ _______ _______ _____ _____    ______ ____
ROOT
ATOM      1  C   UNL     1       5.888   5.407  16.277  0.00  0.00    +0.000 A 
ATOM      2  C   UNL     1       4.763   6.075  16.764  0.00  0.00    +0.000 A 
ATOM      3  C   UNL     1       4.428   6.047  18.127  0.00  0.00    +0.000 A 
ATOM      4  C   UNL     1       5.227   5.296  18.998  0.00  0.00    +0.000 A 
ATOM      5  C   UNL     1       6.388   4.670  18.534  0.00  0.00    +0.000 A 
ATOM      6  C   UNL     1       6.726   4.750  17.182  0.00  0.00    +0.000 A 
ENDROOT
BRANCH   3   7
ATOM      7  C   UNL     1       3.304   6.834  18.652  0.00  0.00    +0.000 A 
ATOM      8  N   UNL     1       2.732   6.659  19.826  0.00  0.00    +0.000 NA
ATOM      9  C   UNL     1       1.800   7.662  20.056  0.00  0.00    +0.000 A 
ATOM     10  C   UNL     1       1.011   7.813  21.212  0.00  0.00    +0.000 A 
ATOM     11  C   UNL     1       0.158   8.913  21.306  0.00  0.00    +0.000 A 
ATOM     12  F   UNL     1      -0.577   9.075  22.414  0.00  0.00    +0.000 F 
ATOM     13  C   UNL     1       0.060   9.851  20.291  0.00  0.00    +0.000 A 
ATOM     14  C   UNL     1       0.815   9.708  19.126  0.00  0.00    +0.000 A 
ATOM     15  C   UNL     1       1.680   8.603  19.032  0.00  0.00    +0.000 A 
ATOM     16  S   UNL     1       2.726   8.183  17.749  0.00  0.00    +0.000 S 
ENDBRANCH   3   7
BRANCH   6  17
ATOM     17  O   UNL     1       7.879   4.168  16.731  0.00  0.00    +0.000 OA
ATOM     18  H   UNL     1       8.254   3.618  17.435  0.00  0.00    +0.000 HD
ENDBRANCH   6  17
BRANCH   1  19
ATOM     19  O   UNL     1       6.229   5.382  14.948  0.00  0.00    +0.000 OA
BRANCH  19  21
ATOM     20  C   UNL     1       6.387   3.809  13.141  0.00  0.00    +0.000 C 
ATOM     21  C   UNL     1       5.471   4.468  14.152  0.00  0.00    +0.000 C 
ENDBRANCH  19  21
ENDBRANCH   1  19
TORSDOF 4
ENDMDL
MODEL 8
REMARK VINA RESULT:      -6.9      1.769      3.387
REMARK  Name = 
REMARK  5 active torsions:
REMARK  status: ('A' for Active; 'I' for Inactive)
REMARK    1  A    between atoms: C_1  and  C_2
REMARK    2  A    between atoms: C_2  and  O_3
REMARK    3  A    between atoms: O_3  and  C_4
REMARK    4  A    between atoms: C_6  and  C_7
REMARK    5  A    between atoms: C_19  and  O_20
REMARK                            x       y       z     vdW  Elec       q    Type
REMARK                         _______ _______ _______ _____ _____    ______ ____
ROOT
ATOM      1  C   UNL     1       6.185   4.269  13.821  0.00  0.00    +0.000 A 
ATOM      2  C   UNL     1       5.268   4.026  14.844  0.00  0.00    +0.000 A 
ATOM      3  C   UNL     1       5.469   4.523  16.142  0.00  0.00    +0.000 A 
ATOM      4  C   UNL     1       6.640   5.242  16.410  0.00  0.00    +0.000 A 
ATOM      5  C   UNL     1       7.539   5.542  15.382  0.00  0.00    +0.000 A 
ATOM      6  C   UNL     1       7.294   5.076  14.089  0.00  0.00    +0.000 A 
ENDROOT
BRANCH   3   7
ATOM      7  C   UNL     1       4.452   4.353  17.189  0.00  0.00    +0.000 A 
ATOM      8  N   UNL     1       4.196   3.230  17.829  0.00  0.00    +0.000 NA
ATOM      9  C   UNL     1       3.279   3.459  18.846  0.00  0.00    +0.000 A 
ATOM     10  C   UNL     1       2.785   2.501  19.751  0.00  0.00    +0.000 A 
ATOM     11  C   UNL     1       1.905   2.911  20.752  0.00  0.00    +0.000 A 
ATOM     12  F   UNL     1       1.450   2.008  21.631  0.00  0.00    +0.000 F 
ATOM     13  C   UNL     1       1.499   4.231  20.874  0.00  0.00    +0.000 A 
ATOM     14  C   UNL     1       1.957   5.192  19.973  0.00  0.00    +0.000 A 
ATOM     15  C   UNL     1       2.848   4.782  18.966  0.00  0.00    +0.000 A 
ATOM     16  S   UNL     1       3.579   5.729  17.747  0.00  0.00    +0.000 S 
ENDBRANCH   3   7
BRANCH   6  17
ATOM     17  O   UNL     1       8.154   5.395  13.074  0.00  0.00    +0.000 OA
ATOM     18  H   UNL     1       8.379   4.591  12.582  0.00  0.00    +0.000 HD
ENDBRANCH   6  17
BRANCH   1  19
ATOM     19  O   UNL     1       6.041   3.773  12.550  0.00  0.00    +0.000 OA
BRANCH  19  21
ATOM     20  C   UNL     1       4.160   3.402  11.104  0.00  0.00    +0.000 C 
ATOM     21  C   UNL     1       4.886   2.952  12.356  0.00  0.00    +0.000 C 
ENDBRANCH  19  21
ENDBRANCH   1  19
TORSDOF 4
ENDMDL
MODEL 9
REMARK VINA RESULT:      -6.8      5.471      5.989
REMARK  Name = 
REMARK  5 active torsions:
REMARK  status: ('A' for Active; 'I' for Inactive)
REMARK    1  A    between atoms: C_1  and  C_2
REMARK    2  A    between atoms: C_2  and  O_3
REMARK    3  A    between atoms: O_3  and  C_4
REMARK    4  A    between atoms: C_6  and  C_7
REMARK    5  A    between atoms: C_19  and  O_20
REMARK                            x       y       z     vdW  Elec       q    Type
REMARK                         _______ _______ _______ _____ _____    ______ ____
ROOT
ATOM      1  C   UNL     1       4.731   4.506  18.621  0.00  0.00    +0.000 A 
ATOM      2  C   UNL     1       4.188   5.746  18.958  0.00  0.00    +0.000 A 
ATOM      3  C   UNL     1       2.862   6.077  18.636  0.00  0.00    +0.000 A 
ATOM      4  C   UNL     1       2.093   5.147  17.924  0.00  0.00    +0.000 A 
ATOM      5  C   UNL     1       2.606   3.880  17.630  0.00  0.00    +0.000 A 
ATOM      6  C   UNL     1       3.913   3.558  18.001  0.00  0.00    +0.000 A 
ENDROOT
BRANCH   3   7
ATOM      7  C   UNL     1       2.261   7.341  19.083  0.00  0.00    +0.000 A 
ATOM      8  N   UNL     1       2.037   8.391  18.320  0.00  0.00    +0.000 NA
ATOM      9  C   UNL     1       1.333   9.355  19.029  0.00  0.00    +0.000 A 
ATOM     10  C   UNL     1       0.899  10.599  18.534  0.00  0.00    +0.000 A 
ATOM     11  C   UNL     1       0.152  11.432  19.368  0.00  0.00    +0.000 A 
ATOM     12  F   UNL     1      -0.285  12.606  18.895  0.00  0.00    +0.000 F 
ATOM     13  C   UNL     1      -0.163  11.072  20.669  0.00  0.00    +0.000 A 
ATOM     14  C   UNL     1       0.278   9.854  21.188  0.00  0.00    +0.000 A 
ATOM     15  C   UNL     1       1.026   9.011  20.347  0.00  0.00    +0.000 A 
ATOM     16  S   UNL     1       1.677   7.472  20.698  0.00  0.00    +0.000 S 
ENDBRANCH   3   7
BRANCH   6  17
ATOM     17  O   UNL     1       4.407   2.307  17.745  0.00  0.00    +0.000 OA
ATOM     18  H   UNL     1       4.454   1.808  18.574  0.00  0.00    +0.000 HD
ENDBRANCH   6  17
BRANCH   1  19
ATOM     19  O   UNL     1       6.032   4.159  18.888  0.00  0.00    +0.000 OA
BRANCH  19  21
ATOM     20  C   UNL     1       7.796   5.786  18.976  0.00  0.00    +0.000 C 
ATOM     21  C   UNL     1       7.008   4.838  18.094  0.00  0.00    +0.000 C 
ENDBRANCH  19  21
ENDBRANCH   1  19
TORSDOF 4
ENDMDL
