MODEL 1
REMARK VINA RESULT:      -7.4      0.000      0.000
REMARK  Name = 
REMARK  15 active torsions:
REMARK  status: ('A' for Active; 'I' for Inactive)
REMARK    1  A    between atoms: C_1  and  O_2
REMARK    2  A    between atoms: O_2  and  C_3
REMARK    3  A    between atoms: C_6  and  C_7
REMARK    4  A    between atoms: C_7  and  C_8
REMARK    5  A    between atoms: C_9  and  C_10
REMARK    6  A    between atoms: C_9  and  C_11
REMARK    7  A    between atoms: C_12  and  O_13
REMARK    8  A    between atoms: O_13  and  C_14
REMARK    9  A    between atoms: C_14  and  C_15
REMARK   10  A    between atoms: C_17  and  C_18
REMARK   11  A    between atoms: C_18  and  C_19
REMARK   12  A    between atoms: C_22  and  C_23
REMARK   13  A    between atoms: C_23  and  C_24
REMARK   14  A    between atoms: C_23  and  C_25
REMARK   15  A    between atoms: C_23  and  O_26
REMARK                            x       y       z     vdW  Elec       q    Type
REMARK                         _______ _______ _______ _____ _____    ______ ____
ROOT
ATOM      1  C   UNL     1       3.402   3.949  18.759  0.00  0.00    +0.000 A 
ATOM      2  C   UNL     1       3.977   4.652  17.708  0.00  0.00    +0.000 A 
ATOM      3  C   UNL     1       3.771   6.023  17.565  0.00  0.00    +0.000 A 
ATOM      4  C   UNL     1       3.028   6.798  18.457  0.00  0.00    +0.000 A 
ATOM      5  C   UNL     1       2.502   6.100  19.561  0.00  0.00    +0.000 A 
ATOM      6  C   UNL     1       2.653   4.684  19.705  0.00  0.00    +0.000 A 
ATOM      7  O   UNL     1       4.489   6.575  16.525  0.00  0.00    +0.000 OA
ATOM      8  C   UNL     1       5.422   5.541  16.116  0.00  0.00    +0.000 C 
ATOM      9  C   UNL     1       4.880   4.205  16.615  0.00  0.00    +0.000 C 
ENDROOT
BRANCH   6  10
ATOM     10  C   UNL     1       2.022   3.988  20.883  0.00  0.00    +0.000 C 
ATOM     11  C   UNL     1       0.712   3.256  20.705  0.00  0.00    +0.000 C 
ATOM     12  O   UNL     1       2.552   4.019  21.994  0.00  0.00    +0.000 OA
ENDBRANCH   6  10
BRANCH   8  13
ATOM     13  C   UNL     1       6.860   5.904  16.599  0.00  0.00    +0.000 C 
ATOM     14  C   UNL     1       6.972   7.277  17.272  0.00  0.00    +0.000 C 
ATOM     15  C   UNL     1       7.428   4.828  17.533  0.00  0.00    +0.000 C 
BRANCH  13  16
ATOM     16  O   UNL     1       7.716   5.933  15.444  0.00  0.00    +0.000 OA
ATOM     17  H   UNL     1       7.273   5.394  14.760  0.00  0.00    +0.000 HD
ENDBRANCH  13  16
ENDBRANCH   8  13
BRANCH   1  19
ATOM     18  C   UNL     1       2.997   1.647  18.202  0.00  0.00    +0.000 C 
ATOM     19  O   UNL     1       3.635   2.626  19.015  0.00  0.00    +0.000 OA
ENDBRANCH   1  19
BRANCH   4  20
ATOM     20  C   UNL     1       2.894   8.277  18.192  0.00  0.00    +0.000 C 
BRANCH  20  21
ATOM     21  C   UNL     1       1.481   8.693  17.851  0.00  0.00    +0.000 C 
ATOM     22  C   UNL     1       0.846   9.854  18.114  0.00  0.00    +0.000 C 
ATOM     23  C   UNL     1       1.460  11.064  18.756  0.00  0.00    +0.000 C 
ATOM     24  C   UNL     1      -0.620  10.015  17.779  0.00  0.00    +0.000 C 
ENDBRANCH  20  21
ENDBRANCH   4  20
BRANCH   5  25
ATOM     25  O   UNL     1       1.981   6.776  20.727  0.00  0.00    +0.000 OA
BRANCH  25  26
ATOM     26  C   UNL     1       0.915   7.610  21.083  0.00  0.00    +0.000 C 
ATOM     27  C   UNL     1       1.456   8.854  21.730  0.00  0.00    +0.000 C 
ATOM     28  O   UNL     1      -0.272   7.365  20.949  0.00  0.00    +0.000 OA
ENDBRANCH  25  26
ENDBRANCH   5  25
TORSDOF 8
ENDMDL
MODEL 2
REMARK VINA RESULT:      -6.8      0.924      1.070
REMARK  Name = 
REMARK  15 active torsions:
REMARK  status: ('A' for Active; 'I' for Inactive)
REMARK    1  A    between atoms: C_1  and  O_2
REMARK    2  A    between atoms: O_2  and  C_3
REMARK    3  A    between atoms: C_6  and  C_7
REMARK    4  A    between atoms: C_7  and  C_8
REMARK    5  A    between atoms: C_9  and  C_10
REMARK    6  A    between atoms: C_9  and  C_11
REMARK    7  A    between atoms: C_12  and  O_13
REMARK    8  A    between atoms: O_13  and  C_14
REMARK    9  A    between atoms: C_14  and  C_15
REMARK   10  A    between atoms: C_17  and  C_18
REMARK   11  A    between atoms: C_18  and  C_19
REMARK   12  A    between atoms: C_22  and  C_23
REMARK   13  A    between atoms: C_23  and  C_24
REMARK   14  A    between atoms: C_23  and  C_25
REMARK   15  A    between atoms: C_23  and  O_26
REMARK                            x       y       z     vdW  Elec       q    Type
REMARK                         _______ _______ _______ _____ _____    ______ ____
ROOT
ATOM      1  C   UNL     1       3.196   4.011  18.674  0.00  0.00    +0.000 A 
ATOM      2  C   UNL     1       3.872   4.777  17.733  0.00  0.00    +0.000 A 
ATOM      3  C   UNL     1       3.656   6.151  17.640  0.00  0.00    +0.000 A 
ATOM      4  C   UNL     1       2.802   6.866  18.481  0.00  0.00    +0.000 A 
ATOM      5  C   UNL     1       2.170   6.102  19.480  0.00  0.00    +0.000 A 
ATOM      6  C   UNL     1       2.332   4.682  19.566  0.00  0.00    +0.000 A 
ATOM      7  O   UNL     1       4.476   6.769  16.719  0.00  0.00    +0.000 OA
ATOM      8  C   UNL     1       5.470   5.771  16.365  0.00  0.00    +0.000 C 
ATOM      9  C   UNL     1       4.901   4.403  16.728  0.00  0.00    +0.000 C 
ENDROOT
BRANCH   6  10
ATOM     10  C   UNL     1       1.585   3.915  20.626  0.00  0.00    +0.000 C 
ATOM     11  C   UNL     1       2.270   3.584  21.932  0.00  0.00    +0.000 C 
ATOM     12  O   UNL     1       0.426   3.542  20.439  0.00  0.00    +0.000 OA
ENDBRANCH   6  10
BRANCH   8  13
ATOM     13  C   UNL     1       6.836   6.127  17.027  0.00  0.00    +0.000 C 
ATOM     14  C   UNL     1       6.816   7.411  17.865  0.00  0.00    +0.000 C 
ATOM     15  C   UNL     1       7.368   4.968  17.879  0.00  0.00    +0.000 C 
BRANCH  13  16
ATOM     16  O   UNL     1       7.794   6.330  15.973  0.00  0.00    +0.000 OA
ATOM     17  H   UNL     1       8.041   7.275  16.004  0.00  0.00    +0.000 HD
ENDBRANCH  13  16
ENDBRANCH   8  13
BRANCH   1  19
ATOM     18  C   UNL     1       4.452   2.292  19.791  0.00  0.00    +0.000 C 
ATOM     19  O   UNL     1       3.425   2.678  18.884  0.00  0.00    +0.000 OA
ENDBRANCH   1  19
BRANCH   4  20
ATOM     20  C   UNL     1       2.669   8.355  18.281  0.00  0.00    +0.000 C 
BRANCH  20  21
ATOM     21  C   UNL     1       1.294   8.771  17.813  0.00  0.00    +0.000 C 
ATOM     22  C   UNL     1       0.560   9.845  18.168  0.00  0.00    +0.000 C 
ATOM     23  C   UNL     1       1.006  10.949  19.082  0.00  0.00    +0.000 C 
ATOM     24  C   UNL     1      -0.854  10.006  17.656  0.00  0.00    +0.000 C 
ENDBRANCH  20  21
ENDBRANCH   4  20
BRANCH   5  25
ATOM     25  O   UNL     1       1.507   6.706  20.613  0.00  0.00    +0.000 OA
BRANCH  25  26
ATOM     26  C   UNL     1       1.253   7.977  21.142  0.00  0.00    +0.000 C 
ATOM     27  C   UNL     1      -0.224   8.130  21.372  0.00  0.00    +0.000 C 
ATOM     28  O   UNL     1       2.076   8.855  21.342  0.00  0.00    +0.000 OA
ENDBRANCH  25  26
ENDBRANCH   5  25
TORSDOF 8
ENDMDL
MODEL 3
REMARK VINA RESULT:      -6.2      1.092      1.361
REMARK  Name = 
REMARK  15 active torsions:
REMARK  status: ('A' for Active; 'I' for Inactive)
REMARK    1  A    between atoms: C_1  and  O_2
REMARK    2  A    between atoms: O_2  and  C_3
REMARK    3  A    between atoms: C_6  and  C_7
REMARK    4  A    between atoms: C_7  and  C_8
REMARK    5  A    between atoms: C_9  and  C_10
REMARK    6  A    between atoms: C_9  and  C_11
REMARK    7  A    between atoms: C_12  and  O_13
REMARK    8  A    between atoms: O_13  and  C_14
REMARK    9  A    between atoms: C_14  and  C_15
REMARK   10  A    between atoms: C_17  and  C_18
REMARK   11  A    between atoms: C_18  and  C_19
REMARK   12  A    between atoms: C_22  and  C_23
REMARK   13  A    between atoms: C_23  and  C_24
REMARK   14  A    between atoms: C_23  and  C_25
REMARK   15  A    between atoms: C_23  and  O_26
REMARK                            x       y       z     vdW  Elec       q    Type
REMARK                         _______ _______ _______ _____ _____    ______ ____
ROOT
ATOM      1  C   UNL     1       2.894   3.617  18.571  0.00  0.00    +0.000 A 
ATOM      2  C   UNL     1       3.555   4.339  17.584  0.00  0.00    +0.000 A 
ATOM      3  C   UNL     1       3.478   5.730  17.542  0.00  0.00    +0.000 A 
ATOM      4  C   UNL     1       2.788   6.503  18.477  0.00  0.00    +0.000 A 
ATOM      5  C   UNL     1       2.176   5.778  19.517  0.00  0.00    +0.000 A 
ATOM      6  C   UNL     1       2.194   4.347  19.557  0.00  0.00    +0.000 A 
ATOM      7  O   UNL     1       4.268   6.288  16.558  0.00  0.00    +0.000 OA
ATOM      8  C   UNL     1       5.113   5.204  16.088  0.00  0.00    +0.000 C 
ATOM      9  C   UNL     1       4.439   3.891  16.476  0.00  0.00    +0.000 C 
ENDROOT
BRANCH   6  10
ATOM     10  C   UNL     1       1.475   3.629  20.668  0.00  0.00    +0.000 C 
ATOM     11  C   UNL     1       2.200   3.331  21.960  0.00  0.00    +0.000 C 
ATOM     12  O   UNL     1       0.304   3.268  20.535  0.00  0.00    +0.000 OA
ENDBRANCH   6  10
BRANCH   8  13
ATOM     13  C   UNL     1       6.565   5.396  16.620  0.00  0.00    +0.000 C 
ATOM     14  C   UNL     1       7.658   5.175  15.568  0.00  0.00    +0.000 C 
ATOM     15  C   UNL     1       6.750   6.774  17.269  0.00  0.00    +0.000 C 
BRANCH  13  16
ATOM     16  O   UNL     1       6.783   4.426  17.660  0.00  0.00    +0.000 OA
ATOM     17  H   UNL     1       6.531   3.560  17.284  0.00  0.00    +0.000 HD
ENDBRANCH  13  16
ENDBRANCH   8  13
BRANCH   1  19
ATOM     18  C   UNL     1       4.185   1.729  19.311  0.00  0.00    +0.000 C 
ATOM     19  O   UNL     1       3.000   2.263  18.730  0.00  0.00    +0.000 OA
ENDBRANCH   1  19
BRANCH   4  20
ATOM     20  C   UNL     1       2.796   8.003  18.322  0.00  0.00    +0.000 C 
BRANCH  20  21
ATOM     21  C   UNL     1       1.465   8.560  17.871  0.00  0.00    +0.000 C 
ATOM     22  C   UNL     1       0.912   9.763  18.128  0.00  0.00    +0.000 C 
ATOM     23  C   UNL     1       1.565  10.886  18.879  0.00  0.00    +0.000 C 
ATOM     24  C   UNL     1      -0.495  10.070  17.666  0.00  0.00    +0.000 C 
ENDBRANCH  20  21
ENDBRANCH   4  20
BRANCH   5  25
ATOM     25  O   UNL     1       1.692   6.411  20.721  0.00  0.00    +0.000 OA
BRANCH  25  26
ATOM     26  C   UNL     1       1.230   7.661  21.153  0.00  0.00    +0.000 C 
ATOM     27  C   UNL     1      -0.266   7.706  21.024  0.00  0.00    +0.000 C 
ATOM     28  O   UNL     1       1.917   8.597  21.526  0.00  0.00    +0.000 OA
ENDBRANCH  25  26
ENDBRANCH   5  25
TORSDOF 8
ENDMDL
MODEL 4
REMARK VINA RESULT:      -5.7      6.259     10.120
REMARK  Name = 
REMARK  15 active torsions:
REMARK  status: ('A' for Active; 'I' for Inactive)
REMARK    1  A    between atoms: C_1  and  O_2
REMARK    2  A    between atoms: O_2  and  C_3
REMARK    3  A    between atoms: C_6  and  C_7
REMARK    4  A    between atoms: C_7  and  C_8
REMARK    5  A    between atoms: C_9  and  C_10
REMARK    6  A    between atoms: C_9  and  C_11
REMARK    7  A    between atoms: C_12  and  O_13
REMARK    8  A    between atoms: O_13  and  C_14
REMARK    9  A    between atoms: C_14  and  C_15
REMARK   10  A    between atoms: C_17  and  C_18
REMARK   11  A    between atoms: C_18  and  C_19
REMARK   12  A    between atoms: C_22  and  C_23
REMARK   13  A    between atoms: C_23  and  C_24
REMARK   14  A    between atoms: C_23  and  C_25
REMARK   15  A    between atoms: C_23  and  O_26
REMARK                            x       y       z     vdW  Elec       q    Type
REMARK                         _______ _______ _______ _____ _____    ______ ____
ROOT
ATOM      1  C   UNL     1      -3.041  12.234  19.523  0.00  0.00    +0.000 A 
ATOM      2  C   UNL     1      -1.977  12.227  20.417  0.00  0.00    +0.000 A 
ATOM      3  C   UNL     1      -2.187  12.420  21.781  0.00  0.00    +0.000 A 
ATOM      4  C   UNL     1      -3.446  12.590  22.361  0.00  0.00    +0.000 A 
ATOM      5  C   UNL     1      -4.530  12.528  21.465  0.00  0.00    +0.000 A 
ATOM      6  C   UNL     1      -4.341  12.384  20.053  0.00  0.00    +0.000 A 
ATOM      7  O   UNL     1      -1.038  12.289  22.532  0.00  0.00    +0.000 OA
ATOM      8  C   UNL     1      -0.054  11.725  21.626  0.00  0.00    +0.000 C 
ATOM      9  C   UNL     1      -0.524  12.004  20.201  0.00  0.00    +0.000 C 
ENDROOT
BRANCH   6  10
ATOM     10  C   UNL     1      -5.541  12.377  19.143  0.00  0.00    +0.000 C 
ATOM     11  C   UNL     1      -6.195  11.065  18.777  0.00  0.00    +0.000 C 
ATOM     12  O   UNL     1      -5.991  13.427  18.682  0.00  0.00    +0.000 OA
ENDBRANCH   6  10
BRANCH   8  13
ATOM     13  C   UNL     1       0.185  10.223  21.972  0.00  0.00    +0.000 C 
ATOM     14  C   UNL     1      -0.572   9.733  23.212  0.00  0.00    +0.000 C 
ATOM     15  C   UNL     1      -0.140   9.313  20.781  0.00  0.00    +0.000 C 
BRANCH  13  16
ATOM     16  O   UNL     1       1.587  10.053  22.242  0.00  0.00    +0.000 OA
ATOM     17  H   UNL     1       1.960  10.952  22.338  0.00  0.00    +0.000 HD
ENDBRANCH  13  16
ENDBRANCH   8  13
BRANCH   1  19
ATOM     18  C   UNL     1      -2.636  10.626  17.783  0.00  0.00    +0.000 C 
ATOM     19  O   UNL     1      -2.921  11.960  18.188  0.00  0.00    +0.000 OA
ENDBRANCH   1  19
BRANCH   4  20
ATOM     20  C   UNL     1      -3.534  12.777  23.855  0.00  0.00    +0.000 C 
BRANCH  20  21
ATOM     21  C   UNL     1      -3.830  14.202  24.259  0.00  0.00    +0.000 C 
ATOM     22  C   UNL     1      -2.978  15.177  24.639  0.00  0.00    +0.000 C 
ATOM     23  C   UNL     1      -1.481  15.072  24.663  0.00  0.00    +0.000 C 
ATOM     24  C   UNL     1      -3.507  16.511  25.114  0.00  0.00    +0.000 C 
ENDBRANCH  20  21
ENDBRANCH   4  20
BRANCH   5  25
ATOM     25  O   UNL     1      -5.895  12.374  21.912  0.00  0.00    +0.000 OA
BRANCH  25  26
ATOM     26  C   UNL     1      -6.966  13.165  22.346  0.00  0.00    +0.000 C 
ATOM     27  C   UNL     1      -7.575  12.543  23.571  0.00  0.00    +0.000 C 
ATOM     28  O   UNL     1      -7.390  14.172  21.802  0.00  0.00    +0.000 OA
ENDBRANCH  25  26
ENDBRANCH   5  25
TORSDOF 8
ENDMDL
MODEL 5
REMARK VINA RESULT:      -5.7      6.586     10.309
REMARK  Name = 
REMARK  15 active torsions:
REMARK  status: ('A' for Active; 'I' for Inactive)
REMARK    1  A    between atoms: C_1  and  O_2
REMARK    2  A    between atoms: O_2  and  C_3
REMARK    3  A    between atoms: C_6  and  C_7
REMARK    4  A    between atoms: C_7  and  C_8
REMARK    5  A    between atoms: C_9  and  C_10
REMARK    6  A    between atoms: C_9  and  C_11
REMARK    7  A    between atoms: C_12  and  O_13
REMARK    8  A    between atoms: O_13  and  C_14
REMARK    9  A    between atoms: C_14  and  C_15
REMARK   10  A    between atoms: C_17  and  C_18
REMARK   11  A    between atoms: C_18  and  C_19
REMARK   12  A    between atoms: C_22  and  C_23
REMARK   13  A    between atoms: C_23  and  C_24
REMARK   14  A    between atoms: C_23  and  C_25
REMARK   15  A    between atoms: C_23  and  O_26
REMARK                            x       y       z     vdW  Elec       q    Type
REMARK                         _______ _______ _______ _____ _____    ______ ____
ROOT
ATOM      1  C   UNL     1      -3.590  12.061  18.934  0.00  0.00    +0.000 A 
ATOM      2  C   UNL     1      -2.546  12.311  19.816  0.00  0.00    +0.000 A 
ATOM      3  C   UNL     1      -2.797  12.611  21.154  0.00  0.00    +0.000 A 
ATOM      4  C   UNL     1      -4.072  12.647  21.721  0.00  0.00    +0.000 A 
ATOM      5  C   UNL     1      -5.125  12.326  20.844  0.00  0.00    +0.000 A 
ATOM      6  C   UNL     1      -4.902  12.066  19.454  0.00  0.00    +0.000 A 
ATOM      7  O   UNL     1      -1.648  12.738  21.907  0.00  0.00    +0.000 OA
ATOM      8  C   UNL     1      -0.581  12.239  21.059  0.00  0.00    +0.000 C 
ATOM      9  C   UNL     1      -1.074  12.291  19.616  0.00  0.00    +0.000 C 
ENDROOT
BRANCH   6  10
ATOM     10  C   UNL     1      -6.078  11.780  18.557  0.00  0.00    +0.000 C 
ATOM     11  C   UNL     1      -6.765  12.918  17.837  0.00  0.00    +0.000 C 
ATOM     12  O   UNL     1      -6.498  10.631  18.410  0.00  0.00    +0.000 OA
ENDBRANCH   6  10
BRANCH   8  13
ATOM     13  C   UNL     1      -0.119  10.836  21.559  0.00  0.00    +0.000 C 
ATOM     14  C   UNL     1      -0.732  10.410  22.898  0.00  0.00    +0.000 C 
ATOM     15  C   UNL     1      -0.379   9.749  20.508  0.00  0.00    +0.000 C 
BRANCH  13  16
ATOM     16  O   UNL     1       1.306  10.886  21.749  0.00  0.00    +0.000 OA
ATOM     17  H   UNL     1       1.699  10.371  21.016  0.00  0.00    +0.000 HD
ENDBRANCH  13  16
ENDBRANCH   8  13
BRANCH   1  19
ATOM     18  C   UNL     1      -3.076  10.316  17.363  0.00  0.00    +0.000 C 
ATOM     19  O   UNL     1      -3.417  11.671  17.634  0.00  0.00    +0.000 OA
ENDBRANCH   1  19
BRANCH   4  20
ATOM     20  C   UNL     1      -4.203  12.973  23.188  0.00  0.00    +0.000 C 
BRANCH  20  21
ATOM     21  C   UNL     1      -4.550  14.421  23.445  0.00  0.00    +0.000 C 
ATOM     22  C   UNL     1      -4.033  15.275  24.353  0.00  0.00    +0.000 C 
ATOM     23  C   UNL     1      -2.895  14.980  25.286  0.00  0.00    +0.000 C 
ATOM     24  C   UNL     1      -4.615  16.662  24.514  0.00  0.00    +0.000 C 
ENDBRANCH  20  21
ENDBRANCH   4  20
BRANCH   5  25
ATOM     25  O   UNL     1      -6.456  12.013  21.313  0.00  0.00    +0.000 OA
BRANCH  25  26
ATOM     26  C   UNL     1      -7.323  12.359  22.356  0.00  0.00    +0.000 C 
ATOM     27  C   UNL     1      -7.915  13.711  22.079  0.00  0.00    +0.000 C 
ATOM     28  O   UNL     1      -7.538  11.707  23.365  0.00  0.00    +0.000 OA
ENDBRANCH  25  26
ENDBRANCH   5  25
TORSDOF 8
ENDMDL
MODEL 6
REMARK VINA RESULT:      -5.6      6.067      9.295
REMARK  Name = 
REMARK  15 active torsions:
REMARK  status: ('A' for Active; 'I' for Inactive)
REMARK    1  A    between atoms: C_1  and  O_2
REMARK    2  A    between atoms: O_2  and  C_3
REMARK    3  A    between atoms: C_6  and  C_7
REMARK    4  A    between atoms: C_7  and  C_8
REMARK    5  A    between atoms: C_9  and  C_10
REMARK    6  A    between atoms: C_9  and  C_11
REMARK    7  A    between atoms: C_12  and  O_13
REMARK    8  A    between atoms: O_13  and  C_14
REMARK    9  A    between atoms: C_14  and  C_15
REMARK   10  A    between atoms: C_17  and  C_18
REMARK   11  A    between atoms: C_18  and  C_19
REMARK   12  A    between atoms: C_22  and  C_23
REMARK   13  A    between atoms: C_23  and  C_24
REMARK   14  A    between atoms: C_23  and  C_25
REMARK   15  A    between atoms: C_23  and  O_26
REMARK                            x       y       z     vdW  Elec       q    Type
REMARK                         _______ _______ _______ _____ _____    ______ ____
ROOT
ATOM      1  C   UNL     1      -2.637  10.874  18.517  0.00  0.00    +0.000 A 
ATOM      2  C   UNL     1      -1.519  11.095  19.311  0.00  0.00    +0.000 A 
ATOM      3  C   UNL     1      -1.514  12.099  20.279  0.00  0.00    +0.000 A 
ATOM      4  C   UNL     1      -2.609  12.918  20.558  0.00  0.00    +0.000 A 
ATOM      5  C   UNL     1      -3.765  12.650  19.802  0.00  0.00    +0.000 A 
ATOM      6  C   UNL     1      -3.782  11.662  18.766  0.00  0.00    +0.000 A 
ATOM      7  O   UNL     1      -0.363  12.117  21.037  0.00  0.00    +0.000 OA
ATOM      8  C   UNL     1       0.328  10.883  20.710  0.00  0.00    +0.000 C 
ATOM      9  C   UNL     1      -0.210  10.393  19.369  0.00  0.00    +0.000 C 
ENDROOT
BRANCH   6  10
ATOM     10  C   UNL     1      -5.037  11.459  17.957  0.00  0.00    +0.000 C 
ATOM     11  C   UNL     1      -6.085  10.480  18.434  0.00  0.00    +0.000 C 
ATOM     12  O   UNL     1      -5.216  12.071  16.904  0.00  0.00    +0.000 OA
ENDBRANCH   6  10
BRANCH   8  13
ATOM     13  C   UNL     1       0.200   9.875  21.893  0.00  0.00    +0.000 C 
ATOM     14  C   UNL     1      -0.696  10.358  23.040  0.00  0.00    +0.000 C 
ATOM     15  C   UNL     1      -0.282   8.500  21.412  0.00  0.00    +0.000 C 
BRANCH  13  16
ATOM     16  O   UNL     1       1.514   9.675  22.444  0.00  0.00    +0.000 OA
ATOM     17  H   UNL     1       1.636   8.709  22.519  0.00  0.00    +0.000 HD
ENDBRANCH  13  16
ENDBRANCH   8  13
BRANCH   1  19
ATOM     18  C   UNL     1      -2.329  10.073  16.272  0.00  0.00    +0.000 C 
ATOM     19  O   UNL     1      -2.746   9.852  17.615  0.00  0.00    +0.000 OA
ENDBRANCH   1  19
BRANCH   4  20
ATOM     20  C   UNL     1      -2.475  13.959  21.642  0.00  0.00    +0.000 C 
BRANCH  20  21
ATOM     21  C   UNL     1      -3.007  13.495  22.978  0.00  0.00    +0.000 C 
ATOM     22  C   UNL     1      -3.231  14.208  24.102  0.00  0.00    +0.000 C 
ATOM     23  C   UNL     1      -3.071  15.693  24.245  0.00  0.00    +0.000 C 
ATOM     24  C   UNL     1      -3.663  13.511  25.373  0.00  0.00    +0.000 C 
ENDBRANCH  20  21
ENDBRANCH   4  20
BRANCH   5  25
ATOM     25  O   UNL     1      -5.063  13.175  20.159  0.00  0.00    +0.000 OA
BRANCH  25  26
ATOM     26  C   UNL     1      -6.037  13.016  21.152  0.00  0.00    +0.000 C 
ATOM     27  C   UNL     1      -6.484  14.370  21.626  0.00  0.00    +0.000 C 
ATOM     28  O   UNL     1      -6.435  11.959  21.613  0.00  0.00    +0.000 OA
ENDBRANCH  25  26
ENDBRANCH   5  25
TORSDOF 8
ENDMDL
MODEL 7
REMARK VINA RESULT:      -5.6      5.760      9.613
REMARK  Name = 
REMARK  15 active torsions:
REMARK  status: ('A' for Active; 'I' for Inactive)
REMARK    1  A    between atoms: C_1  and  O_2
REMARK    2  A    between atoms: O_2  and  C_3
REMARK    3  A    between atoms: C_6  and  C_7
REMARK    4  A    between atoms: C_7  and  C_8
REMARK    5  A    between atoms: C_9  and  C_10
REMARK    6  A    between atoms: C_9  and  C_11
REMARK    7  A    between atoms: C_12  and  O_13
REMARK    8  A    between atoms: O_13  and  C_14
REMARK    9  A    between atoms: C_14  and  C_15
REMARK   10  A    between atoms: C_17  and  C_18
REMARK   11  A    between atoms: C_18  and  C_19
REMARK   12  A    between atoms: C_22  and  C_23
REMARK   13  A    between atoms: C_23  and  C_24
REMARK   14  A    between atoms: C_23  and  C_25
REMARK   15  A    between atoms: C_23  and  O_26
REMARK                            x       y       z     vdW  Elec       q    Type
REMARK                         _______ _______ _______ _____ _____    ______ ____
ROOT
ATOM      1  C   UNL     1      -3.158  11.222  18.161  0.00  0.00    +0.000 A 
ATOM      2  C   UNL     1      -2.004  11.364  18.921  0.00  0.00    +0.000 A 
ATOM      3  C   UNL     1      -1.991  12.168  20.060  0.00  0.00    +0.000 A 
ATOM      4  C   UNL     1      -3.108  12.848  20.548  0.00  0.00    +0.000 A 
ATOM      5  C   UNL     1      -4.295  12.650  19.818  0.00  0.00    +0.000 A 
ATOM      6  C   UNL     1      -4.325  11.873  18.616  0.00  0.00    +0.000 A 
ATOM      7  O   UNL     1      -0.795  12.121  20.745  0.00  0.00    +0.000 OA
ATOM      8  C   UNL     1      -0.061  11.016  20.153  0.00  0.00    +0.000 C 
ATOM      9  C   UNL     1      -0.658  10.751  18.774  0.00  0.00    +0.000 C 
ENDROOT
BRANCH   6  10
ATOM     10  C   UNL     1      -5.617  11.742  17.852  0.00  0.00    +0.000 C 
ATOM     11  C   UNL     1      -6.035  12.836  16.897  0.00  0.00    +0.000 C 
ATOM     12  O   UNL     1      -6.345  10.761  18.004  0.00  0.00    +0.000 OA
ENDBRANCH   6  10
BRANCH   8  13
ATOM     13  C   UNL     1      -0.057   9.800  21.128  0.00  0.00    +0.000 C 
ATOM     14  C   UNL     1       1.285   9.063  21.213  0.00  0.00    +0.000 C 
ATOM     15  C   UNL     1      -0.508  10.206  22.537  0.00  0.00    +0.000 C 
BRANCH  13  16
ATOM     16  O   UNL     1      -1.026   8.851  20.650  0.00  0.00    +0.000 OA
ATOM     17  H   UNL     1      -1.860   9.049  21.120  0.00  0.00    +0.000 HD
ENDBRANCH  13  16
ENDBRANCH   8  13
BRANCH   1  19
ATOM     18  C   UNL     1      -2.784  10.812  15.822  0.00  0.00    +0.000 C 
ATOM     19  O   UNL     1      -3.270  10.380  17.088  0.00  0.00    +0.000 OA
ENDBRANCH   1  19
BRANCH   4  20
ATOM     20  C   UNL     1      -2.960  13.676  21.801  0.00  0.00    +0.000 C 
BRANCH  20  21
ATOM     21  C   UNL     1      -3.426  12.956  23.045  0.00  0.00    +0.000 C 
ATOM     22  C   UNL     1      -4.442  13.261  23.878  0.00  0.00    +0.000 C 
ATOM     23  C   UNL     1      -5.421  14.383  23.693  0.00  0.00    +0.000 C 
ATOM     24  C   UNL     1      -4.661  12.458  25.141  0.00  0.00    +0.000 C 
ENDBRANCH  20  21
ENDBRANCH   4  20
BRANCH   5  25
ATOM     25  O   UNL     1      -5.593  13.013  20.338  0.00  0.00    +0.000 OA
BRANCH  25  26
ATOM     26  C   UNL     1      -6.679  12.421  20.994  0.00  0.00    +0.000 C 
ATOM     27  C   UNL     1      -7.912  13.243  20.749  0.00  0.00    +0.000 C 
ATOM     28  O   UNL     1      -6.642  11.427  21.700  0.00  0.00    +0.000 OA
ENDBRANCH  25  26
ENDBRANCH   5  25
TORSDOF 8
ENDMDL
MODEL 8
REMARK VINA RESULT:      -5.6      6.800      9.490
REMARK  Name = 
REMARK  15 active torsions:
REMARK  status: ('A' for Active; 'I' for Inactive)
REMARK    1  A    between atoms: C_1  and  O_2
REMARK    2  A    between atoms: O_2  and  C_3
REMARK    3  A    between atoms: C_6  and  C_7
REMARK    4  A    between atoms: C_7  and  C_8
REMARK    5  A    between atoms: C_9  and  C_10
REMARK    6  A    between atoms: C_9  and  C_11
REMARK    7  A    between atoms: C_12  and  O_13
REMARK    8  A    between atoms: O_13  and  C_14
REMARK    9  A    between atoms: C_14  and  C_15
REMARK   10  A    between atoms: C_17  and  C_18
REMARK   11  A    between atoms: C_18  and  C_19
REMARK   12  A    between atoms: C_22  and  C_23
REMARK   13  A    between atoms: C_23  and  C_24
REMARK   14  A    between atoms: C_23  and  C_25
REMARK   15  A    between atoms: C_23  and  O_26
REMARK                            x       y       z     vdW  Elec       q    Type
REMARK                         _______ _______ _______ _____ _____    ______ ____
ROOT
ATOM      1  C   UNL     1       1.495  13.219  20.258  0.00  0.00    +0.000 A 
ATOM      2  C   UNL     1       0.662  12.164  19.908  0.00  0.00    +0.000 A 
ATOM      3  C   UNL     1      -0.393  11.780  20.735  0.00  0.00    +0.000 A 
ATOM      4  C   UNL     1      -0.723  12.424  21.929  0.00  0.00    +0.000 A 
ATOM      5  C   UNL     1       0.077  13.536  22.249  0.00  0.00    +0.000 A 
ATOM      6  C   UNL     1       1.199  13.921  21.447  0.00  0.00    +0.000 A 
ATOM      7  O   UNL     1      -1.172  10.780  20.192  0.00  0.00    +0.000 OA
ATOM      8  C   UNL     1      -0.749  10.676  18.808  0.00  0.00    +0.000 C 
ATOM      9  C   UNL     1       0.642  11.296  18.702  0.00  0.00    +0.000 C 
ENDROOT
BRANCH   6  10
ATOM     10  C   UNL     1       2.047  15.090  21.874  0.00  0.00    +0.000 C 
ATOM     11  C   UNL     1       1.676  16.486  21.428  0.00  0.00    +0.000 C 
ATOM     12  O   UNL     1       3.048  14.924  22.572  0.00  0.00    +0.000 OA
ENDBRANCH   6  10
BRANCH   8  13
ATOM     13  C   UNL     1      -1.832  11.298  17.874  0.00  0.00    +0.000 C 
ATOM     14  C   UNL     1      -2.199  10.427  16.666  0.00  0.00    +0.000 C 
ATOM     15  C   UNL     1      -3.105  11.659  18.651  0.00  0.00    +0.000 C 
BRANCH  13  16
ATOM     16  O   UNL     1      -1.308  12.533  17.356  0.00  0.00    +0.000 OA
ATOM     17  H   UNL     1      -2.071  13.025  16.994  0.00  0.00    +0.000 HD
ENDBRANCH  13  16
ENDBRANCH   8  13
BRANCH   1  19
ATOM     18  C   UNL     1       2.131  14.475  18.310  0.00  0.00    +0.000 C 
ATOM     19  O   UNL     1       2.489  13.710  19.456  0.00  0.00    +0.000 OA
ENDBRANCH   1  19
BRANCH   4  20
ATOM     20  C   UNL     1      -1.900  11.914  22.724  0.00  0.00    +0.000 C 
BRANCH  20  21
ATOM     21  C   UNL     1      -3.208  12.558  22.326  0.00  0.00    +0.000 C 
ATOM     22  C   UNL     1      -4.300  12.808  23.078  0.00  0.00    +0.000 C 
ATOM     23  C   UNL     1      -4.423  12.564  24.553  0.00  0.00    +0.000 C 
ATOM     24  C   UNL     1      -5.554  13.362  22.441  0.00  0.00    +0.000 C 
ENDBRANCH  20  21
ENDBRANCH   4  20
BRANCH   5  25
ATOM     25  O   UNL     1      -0.301  14.495  23.262  0.00  0.00    +0.000 OA
BRANCH  25  26
ATOM     26  C   UNL     1      -1.436  15.190  23.697  0.00  0.00    +0.000 C 
ATOM     27  C   UNL     1      -1.905  16.104  22.601  0.00  0.00    +0.000 C 
ATOM     28  O   UNL     1      -1.947  15.121  24.802  0.00  0.00    +0.000 OA
ENDBRANCH  25  26
ENDBRANCH   5  25
TORSDOF 8
ENDMDL
MODEL 9
REMARK VINA RESULT:      -5.6      5.127      8.601
REMARK  Name = 
REMARK  15 active torsions:
REMARK  status: ('A' for Active; 'I' for Inactive)
REMARK    1  A    between atoms: C_1  and  O_2
REMARK    2  A    between atoms: O_2  and  C_3
REMARK    3  A    between atoms: C_6  and  C_7
REMARK    4  A    between atoms: C_7  and  C_8
REMARK    5  A    between atoms: C_9  and  C_10
REMARK    6  A    between atoms: C_9  and  C_11
REMARK    7  A    between atoms: C_12  and  O_13
REMARK    8  A    between atoms: O_13  and  C_14
REMARK    9  A    between atoms: C_14  and  C_15
REMARK   10  A    between atoms: C_17  and  C_18
REMARK   11  A    between atoms: C_18  and  C_19
REMARK   12  A    between atoms: C_22  and  C_23
REMARK   13  A    between atoms: C_23  and  C_24
REMARK   14  A    between atoms: C_23  and  C_25
REMARK   15  A    between atoms: C_23  and  O_26
REMARK                            x       y       z     vdW  Elec       q    Type
REMARK                         _______ _______ _______ _____ _____    ______ ____
ROOT
ATOM      1  C   UNL     1      -2.562  10.647  18.081  0.00  0.00    +0.000 A 
ATOM      2  C   UNL     1      -1.315  10.778  18.678  0.00  0.00    +0.000 A 
ATOM      3  C   UNL     1      -1.089  11.742  19.660  0.00  0.00    +0.000 A 
ATOM      4  C   UNL     1      -2.071  12.606  20.146  0.00  0.00    +0.000 A 
ATOM      5  C   UNL     1      -3.352  12.428  19.591  0.00  0.00    +0.000 A 
ATOM      6  C   UNL     1      -3.601  11.483  18.545  0.00  0.00    +0.000 A 
ATOM      7  O   UNL     1       0.174  11.671  20.210  0.00  0.00    +0.000 OA
ATOM      8  C   UNL     1       0.727  10.415  19.734  0.00  0.00    +0.000 C 
ATOM      9  C   UNL     1      -0.058  10.007  18.490  0.00  0.00    +0.000 C 
ENDROOT
BRANCH   6  10
ATOM     10  C   UNL     1      -4.984  11.378  17.958  0.00  0.00    +0.000 C 
ATOM     11  C   UNL     1      -5.988  10.429  18.571  0.00  0.00    +0.000 C 
ATOM     12  O   UNL     1      -5.306  12.046  16.974  0.00  0.00    +0.000 OA
ENDBRANCH   6  10
BRANCH   8  13
ATOM     13  C   UNL     1       0.742   9.370  20.891  0.00  0.00    +0.000 C 
ATOM     14  C   UNL     1      -0.649   8.927  21.359  0.00  0.00    +0.000 C 
ATOM     15  C   UNL     1       1.577   8.136  20.524  0.00  0.00    +0.000 C 
BRANCH  13  16
ATOM     16  O   UNL     1       1.391   9.978  22.022  0.00  0.00    +0.000 OA
ATOM     17  H   UNL     1       2.308   9.641  22.026  0.00  0.00    +0.000 HD
ENDBRANCH  13  16
ENDBRANCH   8  13
BRANCH   1  19
ATOM     18  C   UNL     1      -2.654   9.905  15.796  0.00  0.00    +0.000 C 
ATOM     19  O   UNL     1      -2.882   9.667  17.181  0.00  0.00    +0.000 OA
ENDBRANCH   1  19
BRANCH   4  20
ATOM     20  C   UNL     1      -1.695  13.596  21.221  0.00  0.00    +0.000 C 
BRANCH  20  21
ATOM     21  C   UNL     1      -1.851  15.034  20.785  0.00  0.00    +0.000 C 
ATOM     22  C   UNL     1      -1.099  15.751  19.924  0.00  0.00    +0.000 C 
ATOM     23  C   UNL     1       0.054  15.227  19.119  0.00  0.00    +0.000 C 
ATOM     24  C   UNL     1      -1.370  17.224  19.719  0.00  0.00    +0.000 C 
ENDBRANCH  20  21
ENDBRANCH   4  20
BRANCH   5  25
ATOM     25  O   UNL     1      -4.538  13.006  20.181  0.00  0.00    +0.000 OA
BRANCH  25  26
ATOM     26  C   UNL     1      -5.360  12.834  21.301  0.00  0.00    +0.000 C 
ATOM     27  C   UNL     1      -6.750  13.298  20.970  0.00  0.00    +0.000 C 
ATOM     28  O   UNL     1      -5.013  12.424  22.397  0.00  0.00    +0.000 OA
ENDBRANCH  25  26
ENDBRANCH   5  25
TORSDOF 8
ENDMDL
