MODEL 1
REMARK VINA RESULT:      -7.1      0.000      0.000
REMARK  Name = 
REMARK  4 active torsions:
REMARK  status: ('A' for Active; 'I' for Inactive)
REMARK    1  A    between atoms: C_2  and  C_3
REMARK    2  A    between atoms: C_3  and  N_4
REMARK    3  A    between atoms: N_21  and  C_22
REMARK    4  A    between atoms: C_22  and  C_23
REMARK                            x       y       z     vdW  Elec       q    Type
REMARK                         _______ _______ _______ _____ _____    ______ ____
ROOT
ATOM      1  N   UNL     1      -3.866  13.283  21.386  0.00  0.00    +0.000 N 
ATOM      2  C   UNL     1      -5.256  13.477  21.223  0.00  0.00    +0.000 A 
ATOM      3  C   UNL     1      -6.213  14.022  22.101  0.00  0.00    +0.000 A 
ATOM      4  C   UNL     1      -7.541  14.107  21.678  0.00  0.00    +0.000 A 
ATOM      5  C   UNL     1      -7.916  13.663  20.417  0.00  0.00    +0.000 A 
ATOM      6  C   UNL     1      -6.973  13.098  19.551  0.00  0.00    +0.000 A 
ATOM      7  C   UNL     1      -5.625  12.993  19.956  0.00  0.00    +0.000 A 
ATOM      8  C   UNL     1      -4.430  12.481  19.469  0.00  0.00    +0.000 A 
ATOM      9  C   UNL     1      -4.280  11.820  18.234  0.00  0.00    +0.000 A 
ATOM     10  C   UNL     1      -3.046  11.194  17.932  0.00  0.00    +0.000 A 
ATOM     11  C   UNL     1      -1.983  11.349  18.843  0.00  0.00    +0.000 A 
ATOM     12  C   UNL     1      -0.686  10.896  18.654  0.00  0.00    +0.000 A 
ATOM     13  C   UNL     1       0.013   9.750  18.270  0.00  0.00    +0.000 A 
ATOM     14  C   UNL     1       1.403   9.852  18.126  0.00  0.00    +0.000 A 
ATOM     15  C   UNL     1       2.029  11.099  18.167  0.00  0.00    +0.000 A 
ATOM     16  C   UNL     1       1.350  12.225  18.634  0.00  0.00    +0.000 A 
ATOM     17  C   UNL     1       0.040  12.008  19.068  0.00  0.00    +0.000 A 
ATOM     18  N   UNL     1      -0.752  12.620  20.054  0.00  0.00    +0.000 N 
ATOM     19  C   UNL     1      -2.072  12.300  19.820  0.00  0.00    +0.000 A 
ATOM     20  C   UNL     1      -3.338  12.698  20.262  0.00  0.00    +0.000 A 
ATOM     21  C   UNL     1      -3.106  10.673  16.597  0.00  0.00    +0.000 C 
ATOM     22  O   UNL     1      -2.303  10.126  15.852  0.00  0.00    +0.000 OA
ATOM     23  N   UNL     1      -4.396  11.004  16.158  0.00  0.00    +0.000 N 
ATOM     24  C   UNL     1      -5.224  11.711  17.110  0.00  0.00    +0.000 C 
ATOM     25  H   UNL     1      -4.647  10.851  15.191  0.00  0.00    +0.000 HD
ENDROOT
BRANCH   1  26
ATOM     26  C   UNL     1      -3.218  13.457  22.686  0.00  0.00    +0.000 C 
BRANCH  26  28
ATOM     27  C   UNL     1      -4.325  12.445  24.751  0.00  0.00    +0.000 C 
ATOM     28  C   UNL     1      -3.506  12.371  23.690  0.00  0.00    +0.000 C 
ENDBRANCH  26  28
ENDBRANCH   1  26
BRANCH  18  29
ATOM     29  C   UNL     1      -0.154  13.379  21.135  0.00  0.00    +0.000 C 
BRANCH  29  30
ATOM     30  C   UNL     1      -0.009  14.859  20.841  0.00  0.00    +0.000 C 
ATOM     31  C   UNL     1      -0.959  15.806  20.863  0.00  0.00    +0.000 C 
ENDBRANCH  29  30
ENDBRANCH  18  29
TORSDOF 4
ENDMDL
MODEL 2
REMARK VINA RESULT:      -7.0      2.213      6.109
REMARK  Name = 
REMARK  4 active torsions:
REMARK  status: ('A' for Active; 'I' for Inactive)
REMARK    1  A    between atoms: C_2  and  C_3
REMARK    2  A    between atoms: C_3  and  N_4
REMARK    3  A    between atoms: N_21  and  C_22
REMARK    4  A    between atoms: C_22  and  C_23
REMARK                            x       y       z     vdW  Elec       q    Type
REMARK                         _______ _______ _______ _____ _____    ______ ____
ROOT
ATOM      1  N   UNL     1      -4.627  12.152  18.084  0.00  0.00    +0.000 N 
ATOM      2  C   UNL     1      -3.979  11.340  17.127  0.00  0.00    +0.000 A 
ATOM      3  C   UNL     1      -4.415  10.885  15.868  0.00  0.00    +0.000 A 
ATOM      4  C   UNL     1      -3.557  10.087  15.108  0.00  0.00    +0.000 A 
ATOM      5  C   UNL     1      -2.297   9.745  15.582  0.00  0.00    +0.000 A 
ATOM      6  C   UNL     1      -1.870  10.174  16.844  0.00  0.00    +0.000 A 
ATOM      7  C   UNL     1      -2.721  10.975  17.636  0.00  0.00    +0.000 A 
ATOM      8  C   UNL     1      -2.728  11.549  18.900  0.00  0.00    +0.000 A 
ATOM      9  C   UNL     1      -1.695  11.421  19.849  0.00  0.00    +0.000 A 
ATOM     10  C   UNL     1      -1.900  11.911  21.162  0.00  0.00    +0.000 A 
ATOM     11  C   UNL     1      -3.099  12.600  21.434  0.00  0.00    +0.000 A 
ATOM     12  C   UNL     1      -3.413  13.233  22.626  0.00  0.00    +0.000 A 
ATOM     13  C   UNL     1      -3.413  13.003  24.005  0.00  0.00    +0.000 A 
ATOM     14  C   UNL     1      -3.744  14.076  24.843  0.00  0.00    +0.000 A 
ATOM     15  C   UNL     1      -3.865  15.367  24.327  0.00  0.00    +0.000 A 
ATOM     16  C   UNL     1      -3.951  15.581  22.951  0.00  0.00    +0.000 A 
ATOM     17  C   UNL     1      -3.931  14.435  22.155  0.00  0.00    +0.000 A 
ATOM     18  N   UNL     1      -4.517  14.122  20.916  0.00  0.00    +0.000 N 
ATOM     19  C   UNL     1      -3.881  13.017  20.393  0.00  0.00    +0.000 A 
ATOM     20  C   UNL     1      -3.820  12.323  19.181  0.00  0.00    +0.000 A 
ATOM     21  C   UNL     1      -0.687  11.750  21.911  0.00  0.00    +0.000 C 
ATOM     22  O   UNL     1      -0.324  12.072  23.035  0.00  0.00    +0.000 OA
ATOM     23  N   UNL     1       0.198  11.151  21.004  0.00  0.00    +0.000 N 
ATOM     24  C   UNL     1      -0.334  10.886  19.685  0.00  0.00    +0.000 C 
ATOM     25  H   UNL     1       1.171  11.044  21.256  0.00  0.00    +0.000 HD
ENDROOT
BRANCH   1  26
ATOM     26  C   UNL     1      -6.044  12.494  17.963  0.00  0.00    +0.000 C 
BRANCH  26  28
ATOM     27  C   UNL     1      -6.722  10.296  19.070  0.00  0.00    +0.000 C 
ATOM     28  C   UNL     1      -6.998  11.392  18.346  0.00  0.00    +0.000 C 
ENDBRANCH  26  28
ENDBRANCH   1  26
BRANCH  18  29
ATOM     29  C   UNL     1      -5.652  14.871  20.412  0.00  0.00    +0.000 C 
BRANCH  29  30
ATOM     30  C   UNL     1      -6.973  14.488  21.048  0.00  0.00    +0.000 C 
ATOM     31  C   UNL     1      -7.340  13.298  21.548  0.00  0.00    +0.000 C 
ENDBRANCH  29  30
ENDBRANCH  18  29
TORSDOF 4
ENDMDL
MODEL 3
REMARK VINA RESULT:      -7.0      2.070      4.564
REMARK  Name = 
REMARK  4 active torsions:
REMARK  status: ('A' for Active; 'I' for Inactive)
REMARK    1  A    between atoms: C_2  and  C_3
REMARK    2  A    between atoms: C_3  and  N_4
REMARK    3  A    between atoms: N_21  and  C_22
REMARK    4  A    between atoms: C_22  and  C_23
REMARK                            x       y       z     vdW  Elec       q    Type
REMARK                         _______ _______ _______ _____ _____    ______ ____
ROOT
ATOM      1  N   UNL     1      -4.927  11.995  19.675  0.00  0.00    +0.000 N 
ATOM      2  C   UNL     1      -5.840  12.472  20.642  0.00  0.00    +0.000 A 
ATOM      3  C   UNL     1      -7.249  12.457  20.656  0.00  0.00    +0.000 A 
ATOM      4  C   UNL     1      -7.915  12.997  21.758  0.00  0.00    +0.000 A 
ATOM      5  C   UNL     1      -7.207  13.541  22.822  0.00  0.00    +0.000 A 
ATOM      6  C   UNL     1      -5.808  13.581  22.799  0.00  0.00    +0.000 A 
ATOM      7  C   UNL     1      -5.109  13.049  21.694  0.00  0.00    +0.000 A 
ATOM      8  C   UNL     1      -3.799  12.931  21.252  0.00  0.00    +0.000 A 
ATOM      9  C   UNL     1      -2.670  13.421  21.936  0.00  0.00    +0.000 A 
ATOM     10  C   UNL     1      -1.407  13.389  21.296  0.00  0.00    +0.000 A 
ATOM     11  C   UNL     1      -1.318  12.770  20.034  0.00  0.00    +0.000 A 
ATOM     12  C   UNL     1      -0.149  12.558  19.319  0.00  0.00    +0.000 A 
ATOM     13  C   UNL     1       0.998  13.234  18.897  0.00  0.00    +0.000 A 
ATOM     14  C   UNL     1       1.993  12.489  18.252  0.00  0.00    +0.000 A 
ATOM     15  C   UNL     1       1.925  11.095  18.222  0.00  0.00    +0.000 A 
ATOM     16  C   UNL     1       0.748  10.429  18.562  0.00  0.00    +0.000 A 
ATOM     17  C   UNL     1      -0.334  11.243  18.904  0.00  0.00    +0.000 A 
ATOM     18  N   UNL     1      -1.724  11.093  18.761  0.00  0.00    +0.000 N 
ATOM     19  C   UNL     1      -2.352  11.991  19.597  0.00  0.00    +0.000 A 
ATOM     20  C   UNL     1      -3.640  12.241  20.082  0.00  0.00    +0.000 A 
ATOM     21  C   UNL     1      -0.409  13.852  22.217  0.00  0.00    +0.000 C 
ATOM     22  O   UNL     1       0.812  13.943  22.185  0.00  0.00    +0.000 OA
ATOM     23  N   UNL     1      -1.131  14.157  23.379  0.00  0.00    +0.000 N 
ATOM     24  C   UNL     1      -2.560  13.939  23.310  0.00  0.00    +0.000 C 
ATOM     25  H   UNL     1      -0.633  14.392  24.227  0.00  0.00    +0.000 HD
ENDROOT
BRANCH   1  26
ATOM     26  C   UNL     1      -5.373  11.561  18.351  0.00  0.00    +0.000 C 
BRANCH  26  28
ATOM     27  C   UNL     1      -6.866  13.190  17.073  0.00  0.00    +0.000 C 
ATOM     28  C   UNL     1      -5.665  12.677  17.382  0.00  0.00    +0.000 C 
ENDBRANCH  26  28
ENDBRANCH   1  26
BRANCH  18  29
ATOM     29  C   UNL     1      -2.284  10.162  17.800  0.00  0.00    +0.000 C 
BRANCH  29  30
ATOM     30  C   UNL     1      -2.564  10.775  16.442  0.00  0.00    +0.000 C 
ATOM     31  C   UNL     1      -2.774  10.146  15.276  0.00  0.00    +0.000 C 
ENDBRANCH  29  30
ENDBRANCH  18  29
TORSDOF 4
ENDMDL
MODEL 4
REMARK VINA RESULT:      -7.0      2.277      7.256
REMARK  Name = 
REMARK  4 active torsions:
REMARK  status: ('A' for Active; 'I' for Inactive)
REMARK    1  A    between atoms: C_2  and  C_3
REMARK    2  A    between atoms: C_3  and  N_4
REMARK    3  A    between atoms: N_21  and  C_22
REMARK    4  A    between atoms: C_22  and  C_23
REMARK                            x       y       z     vdW  Elec       q    Type
REMARK                         _______ _______ _______ _____ _____    ______ ____
ROOT
ATOM      1  N   UNL     1      -2.484  10.790  18.374  0.00  0.00    +0.000 N 
ATOM      2  C   UNL     1      -1.107  10.479  18.432  0.00  0.00    +0.000 A 
ATOM      3  C   UNL     1      -0.329   9.620  17.631  0.00  0.00    +0.000 A 
ATOM      4  C   UNL     1       1.035   9.500  17.905  0.00  0.00    +0.000 A 
ATOM      5  C   UNL     1       1.618  10.210  18.946  0.00  0.00    +0.000 A 
ATOM      6  C   UNL     1       0.843  11.045  19.759  0.00  0.00    +0.000 A 
ATOM      7  C   UNL     1      -0.540  11.179  19.510  0.00  0.00    +0.000 A 
ATOM      8  C   UNL     1      -1.639  11.820  20.065  0.00  0.00    +0.000 A 
ATOM      9  C   UNL     1      -1.605  12.617  21.226  0.00  0.00    +0.000 A 
ATOM     10  C   UNL     1      -2.824  13.072  21.786  0.00  0.00    +0.000 A 
ATOM     11  C   UNL     1      -4.019  12.790  21.094  0.00  0.00    +0.000 A 
ATOM     12  C   UNL     1      -5.280  13.248  21.442  0.00  0.00    +0.000 A 
ATOM     13  C   UNL     1      -6.126  13.349  22.548  0.00  0.00    +0.000 A 
ATOM     14  C   UNL     1      -7.334  14.038  22.383  0.00  0.00    +0.000 A 
ATOM     15  C   UNL     1      -7.581  14.767  21.218  0.00  0.00    +0.000 A 
ATOM     16  C   UNL     1      -6.783  14.596  20.087  0.00  0.00    +0.000 A 
ATOM     17  C   UNL     1      -5.762  13.650  20.200  0.00  0.00    +0.000 A 
ATOM     18  N   UNL     1      -5.147  12.793  19.271  0.00  0.00    +0.000 N 
ATOM     19  C   UNL     1      -3.955  12.350  19.801  0.00  0.00    +0.000 A 
ATOM     20  C   UNL     1      -2.809  11.672  19.374  0.00  0.00    +0.000 A 
ATOM     21  C   UNL     1      -2.531  13.931  22.897  0.00  0.00    +0.000 C 
ATOM     22  O   UNL     1      -3.207  14.620  23.650  0.00  0.00    +0.000 OA
ATOM     23  N   UNL     1      -1.131  13.941  22.961  0.00  0.00    +0.000 N 
ATOM     24  C   UNL     1      -0.448  13.139  21.970  0.00  0.00    +0.000 C 
ATOM     25  H   UNL     1      -0.667  14.579  23.594  0.00  0.00    +0.000 HD
ENDROOT
BRANCH   1  26
ATOM     26  C   UNL     1      -3.402  10.039  17.518  0.00  0.00    +0.000 C 
BRANCH  26  28
ATOM     27  C   UNL     1      -2.859  10.294  15.037  0.00  0.00    +0.000 C 
ATOM     28  C   UNL     1      -3.577  10.598  16.129  0.00  0.00    +0.000 C 
ENDBRANCH  26  28
ENDBRANCH   1  26
BRANCH  18  29
ATOM     29  C   UNL     1      -5.798  12.448  18.022  0.00  0.00    +0.000 C 
BRANCH  29  30
ATOM     30  C   UNL     1      -6.820  11.336  18.148  0.00  0.00    +0.000 C 
ATOM     31  C   UNL     1      -6.837  10.319  19.023  0.00  0.00    +0.000 C 
ENDBRANCH  29  30
ENDBRANCH  18  29
TORSDOF 4
ENDMDL
MODEL 5
REMARK VINA RESULT:      -6.9      2.386      5.885
REMARK  Name = 
REMARK  4 active torsions:
REMARK  status: ('A' for Active; 'I' for Inactive)
REMARK    1  A    between atoms: C_2  and  C_3
REMARK    2  A    between atoms: C_3  and  N_4
REMARK    3  A    between atoms: N_21  and  C_22
REMARK    4  A    between atoms: C_22  and  C_23
REMARK                            x       y       z     vdW  Elec       q    Type
REMARK                         _______ _______ _______ _____ _____    ______ ____
ROOT
ATOM      1  N   UNL     1      -1.951  11.590  19.044  0.00  0.00    +0.000 N 
ATOM      2  C   UNL     1      -2.509  11.131  17.830  0.00  0.00    +0.000 A 
ATOM      3  C   UNL     1      -1.917  10.438  16.756  0.00  0.00    +0.000 A 
ATOM      4  C   UNL     1      -2.712  10.091  15.662  0.00  0.00    +0.000 A 
ATOM      5  C   UNL     1      -4.061  10.421  15.628  0.00  0.00    +0.000 A 
ATOM      6  C   UNL     1      -4.647  11.130  16.683  0.00  0.00    +0.000 A 
ATOM      7  C   UNL     1      -3.864  11.501  17.798  0.00  0.00    +0.000 A 
ATOM      8  C   UNL     1      -4.010  12.217  18.978  0.00  0.00    +0.000 A 
ATOM      9  C   UNL     1      -5.193  12.860  19.390  0.00  0.00    +0.000 A 
ATOM     10  C   UNL     1      -5.162  13.701  20.529  0.00  0.00    +0.000 A 
ATOM     11  C   UNL     1      -3.962  13.776  21.265  0.00  0.00    +0.000 A 
ATOM     12  C   UNL     1      -3.789  14.461  22.457  0.00  0.00    +0.000 A 
ATOM     13  C   UNL     1      -4.041  15.709  23.034  0.00  0.00    +0.000 A 
ATOM     14  C   UNL     1      -3.749  15.868  24.394  0.00  0.00    +0.000 A 
ATOM     15  C   UNL     1      -3.416  14.764  25.181  0.00  0.00    +0.000 A 
ATOM     16  C   UNL     1      -3.081  13.544  24.595  0.00  0.00    +0.000 A 
ATOM     17  C   UNL     1      -3.083  13.519  23.198  0.00  0.00    +0.000 A 
ATOM     18  N   UNL     1      -2.334  12.795  22.256  0.00  0.00    +0.000 N 
ATOM     19  C   UNL     1      -2.981  12.852  21.040  0.00  0.00    +0.000 A 
ATOM     20  C   UNL     1      -2.908  12.233  19.788  0.00  0.00    +0.000 A 
ATOM     21  C   UNL     1      -6.492  14.164  20.800  0.00  0.00    +0.000 C 
ATOM     22  O   UNL     1      -7.003  14.833  21.689  0.00  0.00    +0.000 OA
ATOM     23  N   UNL     1      -7.270  13.582  19.789  0.00  0.00    +0.000 N 
ATOM     24  C   UNL     1      -6.555  12.756  18.840  0.00  0.00    +0.000 C 
ATOM     25  H   UNL     1      -8.277  13.658  19.830  0.00  0.00    +0.000 HD
ENDROOT
BRANCH   1  26
ATOM     26  C   UNL     1      -0.506  11.578  19.275  0.00  0.00    +0.000 C 
BRANCH  26  28
ATOM     27  C   UNL     1       1.091   9.631  18.855  0.00  0.00    +0.000 C 
ATOM     28  C   UNL     1       0.085  10.214  19.525  0.00  0.00    +0.000 C 
ENDBRANCH  26  28
ENDBRANCH   1  26
BRANCH  18  29
ATOM     29  C   UNL     1      -1.062  12.194  22.608  0.00  0.00    +0.000 C 
BRANCH  29  30
ATOM     30  C   UNL     1      -1.169  10.756  23.075  0.00  0.00    +0.000 C 
ATOM     31  C   UNL     1      -0.218   9.810  23.074  0.00  0.00    +0.000 C 
ENDBRANCH  29  30
ENDBRANCH  18  29
TORSDOF 4
ENDMDL
MODEL 6
REMARK VINA RESULT:      -6.8      0.949      1.547
REMARK  Name = 
REMARK  4 active torsions:
REMARK  status: ('A' for Active; 'I' for Inactive)
REMARK    1  A    between atoms: C_2  and  C_3
REMARK    2  A    between atoms: C_3  and  N_4
REMARK    3  A    between atoms: N_21  and  C_22
REMARK    4  A    between atoms: C_22  and  C_23
REMARK                            x       y       z     vdW  Elec       q    Type
REMARK                         _______ _______ _______ _____ _____    ______ ____
ROOT
ATOM      1  N   UNL     1      -3.980  12.722  21.320  0.00  0.00    +0.000 N 
ATOM      2  C   UNL     1      -5.336  13.065  21.121  0.00  0.00    +0.000 A 
ATOM      3  C   UNL     1      -6.296  13.563  22.024  0.00  0.00    +0.000 A 
ATOM      4  C   UNL     1      -7.584  13.830  21.554  0.00  0.00    +0.000 A 
ATOM      5  C   UNL     1      -7.916  13.611  20.223  0.00  0.00    +0.000 A 
ATOM      6  C   UNL     1      -6.972  13.093  19.329  0.00  0.00    +0.000 A 
ATOM      7  C   UNL     1      -5.665  12.806  19.780  0.00  0.00    +0.000 A 
ATOM      8  C   UNL     1      -4.490  12.263  19.280  0.00  0.00    +0.000 A 
ATOM      9  C   UNL     1      -4.320  11.777  17.969  0.00  0.00    +0.000 A 
ATOM     10  C   UNL     1      -3.127  11.090  17.636  0.00  0.00    +0.000 A 
ATOM     11  C   UNL     1      -2.112  11.012  18.611  0.00  0.00    +0.000 A 
ATOM     12  C   UNL     1      -0.849  10.474  18.419  0.00  0.00    +0.000 A 
ATOM     13  C   UNL     1      -0.226   9.336  17.901  0.00  0.00    +0.000 A 
ATOM     14  C   UNL     1       1.173   9.330  17.843  0.00  0.00    +0.000 A 
ATOM     15  C   UNL     1       1.898  10.495  18.100  0.00  0.00    +0.000 A 
ATOM     16  C   UNL     1       1.289  11.598  18.698  0.00  0.00    +0.000 A 
ATOM     17  C   UNL     1      -0.059  11.443  19.030  0.00  0.00    +0.000 A 
ATOM     18  N   UNL     1      -0.857  11.975  20.057  0.00  0.00    +0.000 N 
ATOM     19  C   UNL     1      -2.182  11.816  19.714  0.00  0.00    +0.000 A 
ATOM     20  C   UNL     1      -3.434  12.260  20.149  0.00  0.00    +0.000 A 
ATOM     21  C   UNL     1      -3.148  10.776  16.236  0.00  0.00    +0.000 C 
ATOM     22  O   UNL     1      -2.349  10.272  15.458  0.00  0.00    +0.000 OA
ATOM     23  N   UNL     1      -4.376  11.285  15.790  0.00  0.00    +0.000 N 
ATOM     24  C   UNL     1      -5.199  11.920  16.796  0.00  0.00    +0.000 C 
ATOM     25  H   UNL     1      -4.578  11.298  14.799  0.00  0.00    +0.000 HD
ENDROOT
BRANCH   1  26
ATOM     26  C   UNL     1      -3.401  12.645  22.662  0.00  0.00    +0.000 C 
BRANCH  26  28
ATOM     27  C   UNL     1      -2.662  15.089  22.627  0.00  0.00    +0.000 C 
ATOM     28  C   UNL     1      -3.038  13.974  23.273  0.00  0.00    +0.000 C 
ENDBRANCH  26  28
ENDBRANCH   1  26
BRANCH  18  29
ATOM     29  C   UNL     1      -0.264  12.511  21.267  0.00  0.00    +0.000 C 
BRANCH  29  30
ATOM     30  C   UNL     1      -0.277  11.546  22.437  0.00  0.00    +0.000 C 
ATOM     31  C   UNL     1      -0.178  10.209  22.411  0.00  0.00    +0.000 C 
ENDBRANCH  29  30
ENDBRANCH  18  29
TORSDOF 4
ENDMDL
MODEL 7
REMARK VINA RESULT:      -6.7      2.402      4.900
REMARK  Name = 
REMARK  4 active torsions:
REMARK  status: ('A' for Active; 'I' for Inactive)
REMARK    1  A    between atoms: C_2  and  C_3
REMARK    2  A    between atoms: C_3  and  N_4
REMARK    3  A    between atoms: N_21  and  C_22
REMARK    4  A    between atoms: C_22  and  C_23
REMARK                            x       y       z     vdW  Elec       q    Type
REMARK                         _______ _______ _______ _____ _____    ______ ____
ROOT
ATOM      1  N   UNL     1      -4.929  12.407  20.177  0.00  0.00    +0.000 N 
ATOM      2  C   UNL     1      -5.852  12.391  21.247  0.00  0.00    +0.000 A 
ATOM      3  C   UNL     1      -7.209  12.016  21.278  0.00  0.00    +0.000 A 
ATOM      4  C   UNL     1      -7.897  12.091  22.491  0.00  0.00    +0.000 A 
ATOM      5  C   UNL     1      -7.261  12.526  23.646  0.00  0.00    +0.000 A 
ATOM      6  C   UNL     1      -5.919  12.923  23.613  0.00  0.00    +0.000 A 
ATOM      7  C   UNL     1      -5.201  12.866  22.398  0.00  0.00    +0.000 A 
ATOM      8  C   UNL     1      -3.940  13.193  21.920  0.00  0.00    +0.000 A 
ATOM      9  C   UNL     1      -2.913  13.776  22.688  0.00  0.00    +0.000 A 
ATOM     10  C   UNL     1      -1.734  14.219  22.041  0.00  0.00    +0.000 A 
ATOM     11  C   UNL     1      -1.598  13.963  20.662  0.00  0.00    +0.000 A 
ATOM     12  C   UNL     1      -0.472  14.232  19.899  0.00  0.00    +0.000 A 
ATOM     13  C   UNL     1       0.441  15.258  19.642  0.00  0.00    +0.000 A 
ATOM     14  C   UNL     1       1.533  14.966  18.815  0.00  0.00    +0.000 A 
ATOM     15  C   UNL     1       1.803  13.649  18.437  0.00  0.00    +0.000 A 
ATOM     16  C   UNL     1       0.852  12.645  18.617  0.00  0.00    +0.000 A 
ATOM     17  C   UNL     1      -0.365  13.052  19.170  0.00  0.00    +0.000 A 
ATOM     18  N   UNL     1      -1.684  12.593  19.016  0.00  0.00    +0.000 N 
ATOM     19  C   UNL     1      -2.444  13.075  20.060  0.00  0.00    +0.000 A 
ATOM     20  C   UNL     1      -3.711  12.867  20.612  0.00  0.00    +0.000 A 
ATOM     21  C   UNL     1      -0.809  14.686  23.032  0.00  0.00    +0.000 C 
ATOM     22  O   UNL     1       0.347  15.089  23.005  0.00  0.00    +0.000 OA
ATOM     23  N   UNL     1      -1.490  14.511  24.245  0.00  0.00    +0.000 N 
ATOM     24  C   UNL     1      -2.824  13.961  24.145  0.00  0.00    +0.000 C 
ATOM     25  H   UNL     1      -0.998  14.655  25.117  0.00  0.00    +0.000 HD
ENDROOT
BRANCH   1  26
ATOM     26  C   UNL     1      -5.359  12.203  18.793  0.00  0.00    +0.000 C 
BRANCH  26  28
ATOM     27  C   UNL     1      -7.471  13.241  17.804  0.00  0.00    +0.000 C 
ATOM     28  C   UNL     1      -6.197  13.317  18.219  0.00  0.00    +0.000 C 
ENDBRANCH  26  28
ENDBRANCH   1  26
BRANCH  18  29
ATOM     29  C   UNL     1      -2.076  11.808  17.861  0.00  0.00    +0.000 C 
BRANCH  29  30
ATOM     30  C   UNL     1      -2.295  10.338  18.161  0.00  0.00    +0.000 C 
ATOM     31  C   UNL     1      -3.166   9.494  17.588  0.00  0.00    +0.000 C 
ENDBRANCH  29  30
ENDBRANCH  18  29
TORSDOF 4
ENDMDL
MODEL 8
REMARK VINA RESULT:      -6.6      2.121      4.154
REMARK  Name = 
REMARK  4 active torsions:
REMARK  status: ('A' for Active; 'I' for Inactive)
REMARK    1  A    between atoms: C_2  and  C_3
REMARK    2  A    between atoms: C_3  and  N_4
REMARK    3  A    between atoms: N_21  and  C_22
REMARK    4  A    between atoms: C_22  and  C_23
REMARK                            x       y       z     vdW  Elec       q    Type
REMARK                         _______ _______ _______ _____ _____    ______ ____
ROOT
ATOM      1  N   UNL     1      -2.121  13.321  22.384  0.00  0.00    +0.000 N 
ATOM      2  C   UNL     1      -2.722  14.212  23.302  0.00  0.00    +0.000 A 
ATOM      3  C   UNL     1      -2.295  14.638  24.575  0.00  0.00    +0.000 A 
ATOM      4  C   UNL     1      -3.089  15.546  25.279  0.00  0.00    +0.000 A 
ATOM      5  C   UNL     1      -4.277  16.022  24.739  0.00  0.00    +0.000 A 
ATOM      6  C   UNL     1      -4.716  15.582  23.486  0.00  0.00    +0.000 A 
ATOM      7  C   UNL     1      -3.937  14.658  22.755  0.00  0.00    +0.000 A 
ATOM      8  C   UNL     1      -4.011  13.950  21.564  0.00  0.00    +0.000 A 
ATOM      9  C   UNL     1      -5.090  14.002  20.661  0.00  0.00    +0.000 A 
ATOM     10  C   UNL     1      -5.120  13.101  19.568  0.00  0.00    +0.000 A 
ATOM     11  C   UNL     1      -4.009  12.255  19.375  0.00  0.00    +0.000 A 
ATOM     12  C   UNL     1      -3.827  11.395  18.303  0.00  0.00    +0.000 A 
ATOM     13  C   UNL     1      -4.507  10.413  17.578  0.00  0.00    +0.000 A 
ATOM     14  C   UNL     1      -3.876   9.889  16.442  0.00  0.00    +0.000 A 
ATOM     15  C   UNL     1      -2.709  10.475  15.947  0.00  0.00    +0.000 A 
ATOM     16  C   UNL     1      -1.988  11.391  16.713  0.00  0.00    +0.000 A 
ATOM     17  C   UNL     1      -2.497  11.651  17.987  0.00  0.00    +0.000 A 
ATOM     18  N   UNL     1      -1.888  11.994  19.206  0.00  0.00    +0.000 N 
ATOM     19  C   UNL     1      -2.848  12.511  20.049  0.00  0.00    +0.000 A 
ATOM     20  C   UNL     1      -2.911  13.193  21.268  0.00  0.00    +0.000 A 
ATOM     21  C   UNL     1      -6.257  13.405  18.748  0.00  0.00    +0.000 C 
ATOM     22  O   UNL     1      -6.679  12.986  17.678  0.00  0.00    +0.000 OA
ATOM     23  N   UNL     1      -6.872  14.482  19.402  0.00  0.00    +0.000 N 
ATOM     24  C   UNL     1      -6.233  14.928  20.621  0.00  0.00    +0.000 C 
ATOM     25  H   UNL     1      -7.638  14.965  18.952  0.00  0.00    +0.000 HD
ENDROOT
BRANCH   1  26
ATOM     26  C   UNL     1      -0.970  12.499  22.757  0.00  0.00    +0.000 C 
BRANCH  26  28
ATOM     27  C   UNL     1      -0.450  10.024  23.099  0.00  0.00    +0.000 C 
ATOM     28  C   UNL     1      -1.296  11.066  23.091  0.00  0.00    +0.000 C 
ENDBRANCH  26  28
ENDBRANCH   1  26
BRANCH  18  29
ATOM     29  C   UNL     1      -0.483  11.728  19.446  0.00  0.00    +0.000 C 
BRANCH  29  30
ATOM     30  C   UNL     1      -0.121  10.256  19.408  0.00  0.00    +0.000 C 
ATOM     31  C   UNL     1       0.888   9.667  18.749  0.00  0.00    +0.000 C 
ENDBRANCH  29  30
ENDBRANCH  18  29
TORSDOF 4
ENDMDL
MODEL 9
REMARK VINA RESULT:      -6.6      2.292      6.099
REMARK  Name = 
REMARK  4 active torsions:
REMARK  status: ('A' for Active; 'I' for Inactive)
REMARK    1  A    between atoms: C_2  and  C_3
REMARK    2  A    between atoms: C_3  and  N_4
REMARK    3  A    between atoms: N_21  and  C_22
REMARK    4  A    between atoms: C_22  and  C_23
REMARK                            x       y       z     vdW  Elec       q    Type
REMARK                         _______ _______ _______ _____ _____    ______ ____
ROOT
ATOM      1  N   UNL     1      -4.804  12.169  18.459  0.00  0.00    +0.000 N 
ATOM      2  C   UNL     1      -4.102  11.387  17.514  0.00  0.00    +0.000 A 
ATOM      3  C   UNL     1      -4.540  10.790  16.315  0.00  0.00    +0.000 A 
ATOM      4  C   UNL     1      -3.622  10.065  15.553  0.00  0.00    +0.000 A 
ATOM      5  C   UNL     1      -2.303   9.930  15.965  0.00  0.00    +0.000 A 
ATOM      6  C   UNL     1      -1.871  10.500  17.168  0.00  0.00    +0.000 A 
ATOM      7  C   UNL     1      -2.780  11.233  17.962  0.00  0.00    +0.000 A 
ATOM      8  C   UNL     1      -2.797  11.887  19.186  0.00  0.00    +0.000 A 
ATOM      9  C   UNL     1      -1.706  11.967  20.073  0.00  0.00    +0.000 A 
ATOM     10  C   UNL     1      -1.904  12.515  21.364  0.00  0.00    +0.000 A 
ATOM     11  C   UNL     1      -3.170  13.053  21.669  0.00  0.00    +0.000 A 
ATOM     12  C   UNL     1      -3.504  13.719  22.838  0.00  0.00    +0.000 A 
ATOM     13  C   UNL     1      -3.396  13.589  24.225  0.00  0.00    +0.000 A 
ATOM     14  C   UNL     1      -3.826  14.662  25.015  0.00  0.00    +0.000 A 
ATOM     15  C   UNL     1      -4.154  15.886  24.429  0.00  0.00    +0.000 A 
ATOM     16  C   UNL     1      -4.345  15.990  23.051  0.00  0.00    +0.000 A 
ATOM     17  C   UNL     1      -4.209  14.804  22.327  0.00  0.00    +0.000 A 
ATOM     18  N   UNL     1      -4.813  14.329  21.151  0.00  0.00    +0.000 N 
ATOM     19  C   UNL     1      -4.059  13.286  20.657  0.00  0.00    +0.000 A 
ATOM     20  C   UNL     1      -3.969  12.524  19.489  0.00  0.00    +0.000 A 
ATOM     21  C   UNL     1      -0.641  12.572  22.042  0.00  0.00    +0.000 C 
ATOM     22  O   UNL     1      -0.265  13.018  23.118  0.00  0.00    +0.000 OA
ATOM     23  N   UNL     1       0.267  12.037  21.118  0.00  0.00    +0.000 N 
ATOM     24  C   UNL     1      -0.295  11.610  19.855  0.00  0.00    +0.000 C 
ATOM     25  H   UNL     1       1.258  12.080  21.314  0.00  0.00    +0.000 HD
ENDROOT
BRANCH   1  26
ATOM     26  C   UNL     1      -6.259  12.306  18.408  0.00  0.00    +0.000 C 
BRANCH  26  28
ATOM     27  C   UNL     1      -7.245  11.197  20.485  0.00  0.00    +0.000 C 
ATOM     28  C   UNL     1      -7.024  11.249  19.162  0.00  0.00    +0.000 C 
ENDBRANCH  26  28
ENDBRANCH   1  26
BRANCH  18  29
ATOM     29  C   UNL     1      -6.068  14.880  20.675  0.00  0.00    +0.000 C 
BRANCH  29  30
ATOM     30  C   UNL     1      -5.907  15.944  19.607  0.00  0.00    +0.000 C 
ATOM     31  C   UNL     1      -6.555  16.051  18.438  0.00  0.00    +0.000 C 
ENDBRANCH  29  30
ENDBRANCH  18  29
TORSDOF 4
ENDMDL
