MODEL 1
REMARK VINA RESULT:      -6.7      0.000      0.000
REMARK  Name = 
REMARK  10 active torsions:
REMARK  status: ('A' for Active; 'I' for Inactive)
REMARK    1  A    between atoms: C_1  and  C_2
REMARK    2  A    between atoms: C_2  and  C_3
REMARK    3  A    between atoms: C_3  and  C_4
REMARK    4  A    between atoms: C_4  and  N_5
REMARK    5  A    between atoms: C_9  and  N_10
REMARK    6  A    between atoms: N_10  and  C_11
REMARK    7  A    between atoms: C_11  and  C_12
REMARK    8  A    between atoms: C_12  and  C_13
REMARK    9  A    between atoms: C_12  and  C_14
REMARK   10  A    between atoms: C_21  and  C_22
REMARK                            x       y       z     vdW  Elec       q    Type
REMARK                         _______ _______ _______ _____ _____    ______ ____
ROOT
ATOM      1  N   UNL     1       3.794   5.719  18.547  0.00  0.00    +0.000 N 
ATOM      2  C   UNL     1       5.073   5.750  17.962  0.00  0.00    +0.000 C 
ATOM      3  O   UNL     1       5.957   6.556  18.210  0.00  0.00    +0.000 OA
ATOM      4  C   UNL     1       5.176   4.825  16.829  0.00  0.00    +0.000 C 
ATOM      5  C   UNL     1       5.391   5.330  15.599  0.00  0.00    +0.000 C 
ATOM      6  C   UNL     1       4.689   3.461  16.999  0.00  0.00    +0.000 C 
ATOM      7  O   UNL     1       5.124   2.512  16.367  0.00  0.00    +0.000 OA
ATOM      8  C   UNL     1       3.573   3.336  17.963  0.00  0.00    +0.000 A 
ATOM      9  C   UNL     1       2.991   2.063  18.038  0.00  0.00    +0.000 A 
ATOM     10  C   UNL     1       1.870   1.865  18.817  0.00  0.00    +0.000 A 
ATOM     11  C   UNL     1       1.349   2.937  19.530  0.00  0.00    +0.000 A 
ATOM     12  C   UNL     1       1.937   4.232  19.492  0.00  0.00    +0.000 A 
ATOM     13  C   UNL     1       1.286   5.232  20.411  0.00  0.00    +0.000 C 
ATOM     14  C   UNL     1       3.072   4.463  18.672  0.00  0.00    +0.000 A 
ENDROOT
BRANCH   5  15
ATOM     15  N   UNL     1       5.272   4.674  14.394  0.00  0.00    +0.000 N 
ATOM     16  H   UNL     1       4.338   4.293  14.201  0.00  0.00    +0.000 HD
BRANCH  15  17
ATOM     17  C   UNL     1       6.352   4.235  13.531  0.00  0.00    +0.000 C 
BRANCH  17  18
ATOM     18  C   UNL     1       5.864   3.133  12.574  0.00  0.00    +0.000 C 
ATOM     19  C   UNL     1       4.601   3.546  11.812  0.00  0.00    +0.000 C 
ATOM     20  C   UNL     1       6.967   2.772  11.576  0.00  0.00    +0.000 C 
ENDBRANCH  17  18
ENDBRANCH  15  17
ENDBRANCH   5  15
BRANCH   1  21
ATOM     21  C   UNL     1       3.244   7.029  18.902  0.00  0.00    +0.000 C 
BRANCH  21  22
ATOM     22  C   UNL     1       2.347   7.605  17.783  0.00  0.00    +0.000 C 
BRANCH  22  24
ATOM     23  C   UNL     1       0.817   9.537  18.112  0.00  0.00    +0.000 C 
ATOM     24  C   UNL     1       2.244   9.120  17.782  0.00  0.00    +0.000 C 
ENDBRANCH  22  24
ENDBRANCH  21  22
ENDBRANCH   1  21
TORSDOF 6
ENDMDL
MODEL 2
REMARK VINA RESULT:      -6.6      2.372      4.985
REMARK  Name = 
REMARK  10 active torsions:
REMARK  status: ('A' for Active; 'I' for Inactive)
REMARK    1  A    between atoms: C_1  and  C_2
REMARK    2  A    between atoms: C_2  and  C_3
REMARK    3  A    between atoms: C_3  and  C_4
REMARK    4  A    between atoms: C_4  and  N_5
REMARK    5  A    between atoms: C_9  and  N_10
REMARK    6  A    between atoms: N_10  and  C_11
REMARK    7  A    between atoms: C_11  and  C_12
REMARK    8  A    between atoms: C_12  and  C_13
REMARK    9  A    between atoms: C_12  and  C_14
REMARK   10  A    between atoms: C_21  and  C_22
REMARK                            x       y       z     vdW  Elec       q    Type
REMARK                         _______ _______ _______ _____ _____    ______ ____
ROOT
ATOM      1  N   UNL     1       2.528   3.434  18.188  0.00  0.00    +0.000 N 
ATOM      2  C   UNL     1       3.014   3.479  16.868  0.00  0.00    +0.000 C 
ATOM      3  O   UNL     1       2.758   2.679  15.981  0.00  0.00    +0.000 OA
ATOM      4  C   UNL     1       4.066   4.488  16.710  0.00  0.00    +0.000 C 
ATOM      5  C   UNL     1       5.309   4.083  16.387  0.00  0.00    +0.000 C 
ATOM      6  C   UNL     1       3.835   5.823  17.250  0.00  0.00    +0.000 C 
ATOM      7  O   UNL     1       4.361   6.827  16.798  0.00  0.00    +0.000 OA
ATOM      8  C   UNL     1       2.953   5.847  18.437  0.00  0.00    +0.000 A 
ATOM      9  C   UNL     1       2.830   7.096  19.062  0.00  0.00    +0.000 A 
ATOM     10  C   UNL     1       2.128   7.208  20.244  0.00  0.00    +0.000 A 
ATOM     11  C   UNL     1       1.537   6.072  20.784  0.00  0.00    +0.000 A 
ATOM     12  C   UNL     1       1.624   4.799  20.155  0.00  0.00    +0.000 A 
ATOM     13  C   UNL     1       0.831   3.717  20.842  0.00  0.00    +0.000 C 
ATOM     14  C   UNL     1       2.368   4.659  18.955  0.00  0.00    +0.000 A 
ENDROOT
BRANCH   5  15
ATOM     15  N   UNL     1       6.469   4.824  16.437  0.00  0.00    +0.000 N 
ATOM     16  H   UNL     1       6.605   5.464  15.646  0.00  0.00    +0.000 HD
BRANCH  15  17
ATOM     17  C   UNL     1       7.608   4.599  17.306  0.00  0.00    +0.000 C 
BRANCH  17  18
ATOM     18  C   UNL     1       7.677   5.683  18.395  0.00  0.00    +0.000 C 
ATOM     19  C   UNL     1       7.557   7.096  17.814  0.00  0.00    +0.000 C 
ATOM     20  C   UNL     1       6.574   5.463  19.432  0.00  0.00    +0.000 C 
ENDBRANCH  17  18
ENDBRANCH  15  17
ENDBRANCH   5  15
BRANCH   1  21
ATOM     21  C   UNL     1       2.312   2.088  18.722  0.00  0.00    +0.000 C 
BRANCH  21  22
ATOM     22  C   UNL     1       3.640   1.392  19.097  0.00  0.00    +0.000 C 
BRANCH  22  24
ATOM     23  C   UNL     1       5.264   1.214  20.973  0.00  0.00    +0.000 C 
ATOM     24  C   UNL     1       4.503   2.178  20.071  0.00  0.00    +0.000 C 
ENDBRANCH  22  24
ENDBRANCH  21  22
ENDBRANCH   1  21
TORSDOF 6
ENDMDL
MODEL 3
REMARK VINA RESULT:      -6.4      4.611      8.102
REMARK  Name = 
REMARK  10 active torsions:
REMARK  status: ('A' for Active; 'I' for Inactive)
REMARK    1  A    between atoms: C_1  and  C_2
REMARK    2  A    between atoms: C_2  and  C_3
REMARK    3  A    between atoms: C_3  and  C_4
REMARK    4  A    between atoms: C_4  and  N_5
REMARK    5  A    between atoms: C_9  and  N_10
REMARK    6  A    between atoms: N_10  and  C_11
REMARK    7  A    between atoms: C_11  and  C_12
REMARK    8  A    between atoms: C_12  and  C_13
REMARK    9  A    between atoms: C_12  and  C_14
REMARK   10  A    between atoms: C_21  and  C_22
REMARK                            x       y       z     vdW  Elec       q    Type
REMARK                         _______ _______ _______ _____ _____    ______ ____
ROOT
ATOM      1  N   UNL     1      -0.370  11.059  19.369  0.00  0.00    +0.000 N 
ATOM      2  C   UNL     1       0.956  10.593  19.310  0.00  0.00    +0.000 C 
ATOM      3  O   UNL     1       1.752  10.805  18.408  0.00  0.00    +0.000 OA
ATOM      4  C   UNL     1       1.237   9.615  20.367  0.00  0.00    +0.000 C 
ATOM      5  C   UNL     1       1.540   8.351  20.014  0.00  0.00    +0.000 C 
ATOM      6  C   UNL     1       0.832   9.931  21.731  0.00  0.00    +0.000 C 
ATOM      7  O   UNL     1       1.394   9.481  22.717  0.00  0.00    +0.000 OA
ATOM      8  C   UNL     1      -0.364  10.798  21.819  0.00  0.00    +0.000 A 
ATOM      9  C   UNL     1      -0.861  10.999  23.114  0.00  0.00    +0.000 A 
ATOM     10  C   UNL     1      -2.038  11.693  23.299  0.00  0.00    +0.000 A 
ATOM     11  C   UNL     1      -2.702  12.198  22.189  0.00  0.00    +0.000 A 
ATOM     12  C   UNL     1      -2.205  12.031  20.866  0.00  0.00    +0.000 A 
ATOM     13  C   UNL     1      -3.013  12.739  19.810  0.00  0.00    +0.000 C 
ATOM     14  C   UNL     1      -1.012  11.293  20.653  0.00  0.00    +0.000 A 
ENDROOT
BRANCH   5  15
ATOM     15  N   UNL     1       1.589   7.245  20.833  0.00  0.00    +0.000 N 
ATOM     16  H   UNL     1       1.727   7.451  21.828  0.00  0.00    +0.000 HD
BRANCH  15  17
ATOM     17  C   UNL     1       1.742   5.863  20.419  0.00  0.00    +0.000 C 
BRANCH  17  18
ATOM     18  C   UNL     1       2.619   5.772  19.159  0.00  0.00    +0.000 C 
ATOM     19  C   UNL     1       4.073   5.418  19.489  0.00  0.00    +0.000 C 
ATOM     20  C   UNL     1       2.049   4.732  18.191  0.00  0.00    +0.000 C 
ENDBRANCH  17  18
ENDBRANCH  15  17
ENDBRANCH   5  15
BRANCH   1  21
ATOM     21  C   UNL     1      -1.043  11.176  18.074  0.00  0.00    +0.000 C 
BRANCH  21  22
ATOM     22  C   UNL     1      -1.626   9.825  17.600  0.00  0.00    +0.000 C 
BRANCH  22  24
ATOM     23  C   UNL     1      -3.644  10.796  16.518  0.00  0.00    +0.000 C 
ATOM     24  C   UNL     1      -3.143   9.786  17.542  0.00  0.00    +0.000 C 
ENDBRANCH  22  24
ENDBRANCH  21  22
ENDBRANCH   1  21
TORSDOF 6
ENDMDL
MODEL 4
REMARK VINA RESULT:      -6.3      2.375      4.908
REMARK  Name = 
REMARK  10 active torsions:
REMARK  status: ('A' for Active; 'I' for Inactive)
REMARK    1  A    between atoms: C_1  and  C_2
REMARK    2  A    between atoms: C_2  and  C_3
REMARK    3  A    between atoms: C_3  and  C_4
REMARK    4  A    between atoms: C_4  and  N_5
REMARK    5  A    between atoms: C_9  and  N_10
REMARK    6  A    between atoms: N_10  and  C_11
REMARK    7  A    between atoms: C_11  and  C_12
REMARK    8  A    between atoms: C_12  and  C_13
REMARK    9  A    between atoms: C_12  and  C_14
REMARK   10  A    between atoms: C_21  and  C_22
REMARK                            x       y       z     vdW  Elec       q    Type
REMARK                         _______ _______ _______ _____ _____    ______ ____
ROOT
ATOM      1  N   UNL     1       2.615   4.203  18.323  0.00  0.00    +0.000 N 
ATOM      2  C   UNL     1       3.117   3.628  17.142  0.00  0.00    +0.000 C 
ATOM      3  O   UNL     1       2.757   2.570  16.649  0.00  0.00    +0.000 OA
ATOM      4  C   UNL     1       4.308   4.334  16.656  0.00  0.00    +0.000 C 
ATOM      5  C   UNL     1       5.482   3.674  16.620  0.00  0.00    +0.000 C 
ATOM      6  C   UNL     1       4.269   5.789  16.577  0.00  0.00    +0.000 C 
ATOM      7  O   UNL     1       4.941   6.435  15.789  0.00  0.00    +0.000 OA
ATOM      8  C   UNL     1       3.387   6.422  17.582  0.00  0.00    +0.000 A 
ATOM      9  C   UNL     1       3.441   7.823  17.624  0.00  0.00    +0.000 A 
ATOM     10  C   UNL     1       2.749   8.508  18.601  0.00  0.00    +0.000 A 
ATOM     11  C   UNL     1       1.992   7.791  19.518  0.00  0.00    +0.000 A 
ATOM     12  C   UNL     1       1.898   6.371  19.480  0.00  0.00    +0.000 A 
ATOM     13  C   UNL     1       0.949   5.789  20.494  0.00  0.00    +0.000 C 
ATOM     14  C   UNL     1       2.628   5.647  18.502  0.00  0.00    +0.000 A 
ENDROOT
BRANCH   5  15
ATOM     15  N   UNL     1       6.737   4.212  16.441  0.00  0.00    +0.000 N 
ATOM     16  H   UNL     1       7.071   4.211  15.471  0.00  0.00    +0.000 HD
BRANCH  15  17
ATOM     17  C   UNL     1       7.712   4.508  17.474  0.00  0.00    +0.000 C 
BRANCH  17  18
ATOM     18  C   UNL     1       7.244   5.695  18.333  0.00  0.00    +0.000 C 
ATOM     19  C   UNL     1       7.793   5.627  19.762  0.00  0.00    +0.000 C 
ATOM     20  C   UNL     1       7.668   7.016  17.687  0.00  0.00    +0.000 C 
ENDBRANCH  17  18
ENDBRANCH  15  17
ENDBRANCH   5  15
BRANCH   1  21
ATOM     21  C   UNL     1       2.198   3.245  19.349  0.00  0.00    +0.000 C 
BRANCH  21  22
ATOM     22  C   UNL     1       3.357   2.877  20.304  0.00  0.00    +0.000 C 
BRANCH  22  24
ATOM     23  C   UNL     1       1.392   2.525  21.787  0.00  0.00    +0.000 C 
ATOM     24  C   UNL     1       2.912   2.471  21.698  0.00  0.00    +0.000 C 
ENDBRANCH  22  24
ENDBRANCH  21  22
ENDBRANCH   1  21
TORSDOF 6
ENDMDL
MODEL 5
REMARK VINA RESULT:      -6.2      7.894     12.283
REMARK  Name = 
REMARK  10 active torsions:
REMARK  status: ('A' for Active; 'I' for Inactive)
REMARK    1  A    between atoms: C_1  and  C_2
REMARK    2  A    between atoms: C_2  and  C_3
REMARK    3  A    between atoms: C_3  and  C_4
REMARK    4  A    between atoms: C_4  and  N_5
REMARK    5  A    between atoms: C_9  and  N_10
REMARK    6  A    between atoms: N_10  and  C_11
REMARK    7  A    between atoms: C_11  and  C_12
REMARK    8  A    between atoms: C_12  and  C_13
REMARK    9  A    between atoms: C_12  and  C_14
REMARK   10  A    between atoms: C_21  and  C_22
REMARK                            x       y       z     vdW  Elec       q    Type
REMARK                         _______ _______ _______ _____ _____    ______ ____
ROOT
ATOM      1  N   UNL     1      -1.048  11.912  20.504  0.00  0.00    +0.000 N 
ATOM      2  C   UNL     1      -1.569  13.017  21.201  0.00  0.00    +0.000 C 
ATOM      3  O   UNL     1      -0.921  13.839  21.831  0.00  0.00    +0.000 OA
ATOM      4  C   UNL     1      -3.033  12.968  21.284  0.00  0.00    +0.000 C 
ATOM      5  C   UNL     1      -3.608  12.848  22.496  0.00  0.00    +0.000 C 
ATOM      6  C   UNL     1      -3.788  12.685  20.070  0.00  0.00    +0.000 C 
ATOM      7  O   UNL     1      -4.932  13.072  19.889  0.00  0.00    +0.000 OA
ATOM      8  C   UNL     1      -3.069  11.832  19.098  0.00  0.00    +0.000 A 
ATOM      9  C   UNL     1      -3.825  11.426  17.989  0.00  0.00    +0.000 A 
ATOM     10  C   UNL     1      -3.290  10.535  17.082  0.00  0.00    +0.000 A 
ATOM     11  C   UNL     1      -1.996  10.069  17.281  0.00  0.00    +0.000 A 
ATOM     12  C   UNL     1      -1.199  10.487  18.383  0.00  0.00    +0.000 A 
ATOM     13  C   UNL     1       0.208   9.949  18.365  0.00  0.00    +0.000 C 
ATOM     14  C   UNL     1      -1.744  11.379  19.343  0.00  0.00    +0.000 A 
ENDROOT
BRANCH   5  15
ATOM     15  N   UNL     1      -4.922  12.537  22.770  0.00  0.00    +0.000 N 
ATOM     16  H   UNL     1      -5.519  12.424  21.943  0.00  0.00    +0.000 HD
BRANCH  15  17
ATOM     17  C   UNL     1      -5.587  12.628  24.055  0.00  0.00    +0.000 C 
BRANCH  17  18
ATOM     18  C   UNL     1      -7.114  12.647  23.872  0.00  0.00    +0.000 C 
ATOM     19  C   UNL     1      -7.714  14.029  24.152  0.00  0.00    +0.000 C 
ATOM     20  C   UNL     1      -7.483  12.210  22.452  0.00  0.00    +0.000 C 
ENDBRANCH  17  18
ENDBRANCH  15  17
ENDBRANCH   5  15
BRANCH   1  21
ATOM     21  C   UNL     1       0.148  11.312  21.100  0.00  0.00    +0.000 C 
BRANCH  21  22
ATOM     22  C   UNL     1      -0.197  10.392  22.293  0.00  0.00    +0.000 C 
BRANCH  22  24
ATOM     23  C   UNL     1       1.081   8.395  21.541  0.00  0.00    +0.000 C 
ATOM     24  C   UNL     1      -0.294   8.918  21.936  0.00  0.00    +0.000 C 
ENDBRANCH  22  24
ENDBRANCH  21  22
ENDBRANCH   1  21
TORSDOF 6
ENDMDL
MODEL 6
REMARK VINA RESULT:      -6.1      3.393      6.977
REMARK  Name = 
REMARK  10 active torsions:
REMARK  status: ('A' for Active; 'I' for Inactive)
REMARK    1  A    between atoms: C_1  and  C_2
REMARK    2  A    between atoms: C_2  and  C_3
REMARK    3  A    between atoms: C_3  and  C_4
REMARK    4  A    between atoms: C_4  and  N_5
REMARK    5  A    between atoms: C_9  and  N_10
REMARK    6  A    between atoms: N_10  and  C_11
REMARK    7  A    between atoms: C_11  and  C_12
REMARK    8  A    between atoms: C_12  and  C_13
REMARK    9  A    between atoms: C_12  and  C_14
REMARK   10  A    between atoms: C_21  and  C_22
REMARK                            x       y       z     vdW  Elec       q    Type
REMARK                         _______ _______ _______ _____ _____    ______ ____
ROOT
ATOM      1  N   UNL     1       2.345   6.619  19.939  0.00  0.00    +0.000 N 
ATOM      2  C   UNL     1       1.882   7.901  20.288  0.00  0.00    +0.000 C 
ATOM      3  O   UNL     1       1.607   8.282  21.415  0.00  0.00    +0.000 OA
ATOM      4  C   UNL     1       1.541   8.697  19.105  0.00  0.00    +0.000 C 
ATOM      5  C   UNL     1       0.261   9.073  18.924  0.00  0.00    +0.000 C 
ATOM      6  C   UNL     1       2.494   8.745  18.002  0.00  0.00    +0.000 C 
ATOM      7  O   UNL     1       2.573   9.685  17.226  0.00  0.00    +0.000 OA
ATOM      8  C   UNL     1       3.317   7.524  17.864  0.00  0.00    +0.000 A 
ATOM      9  C   UNL     1       4.138   7.484  16.728  0.00  0.00    +0.000 A 
ATOM     10  C   UNL     1       4.859   6.343  16.441  0.00  0.00    +0.000 A 
ATOM     11  C   UNL     1       4.768   5.257  17.302  0.00  0.00    +0.000 A 
ATOM     12  C   UNL     1       3.964   5.282  18.475  0.00  0.00    +0.000 A 
ATOM     13  C   UNL     1       4.081   4.046  19.329  0.00  0.00    +0.000 C 
ATOM     14  C   UNL     1       3.192   6.435  18.771  0.00  0.00    +0.000 A 
ENDROOT
BRANCH   5  15
ATOM     15  N   UNL     1      -0.304   9.596  17.781  0.00  0.00    +0.000 N 
ATOM     16  H   UNL     1       0.246   9.454  16.926  0.00  0.00    +0.000 HD
BRANCH  15  17
ATOM     17  C   UNL     1      -1.408  10.533  17.706  0.00  0.00    +0.000 C 
BRANCH  17  18
ATOM     18  C   UNL     1      -2.618   9.886  17.012  0.00  0.00    +0.000 C 
ATOM     19  C   UNL     1      -3.935  10.206  17.727  0.00  0.00    +0.000 C 
ATOM     20  C   UNL     1      -2.704  10.349  15.556  0.00  0.00    +0.000 C 
ENDBRANCH  17  18
ENDBRANCH  15  17
ENDBRANCH   5  15
BRANCH   1  21
ATOM     21  C   UNL     1       1.825   5.527  20.765  0.00  0.00    +0.000 C 
BRANCH  21  22
ATOM     22  C   UNL     1       0.766   4.686  20.017  0.00  0.00    +0.000 C 
BRANCH  22  24
ATOM     23  C   UNL     1       0.740   2.464  18.900  0.00  0.00    +0.000 C 
ATOM     24  C   UNL     1       0.892   3.188  20.232  0.00  0.00    +0.000 C 
ENDBRANCH  22  24
ENDBRANCH  21  22
ENDBRANCH   1  21
TORSDOF 6
ENDMDL
MODEL 7
REMARK VINA RESULT:      -6.1      1.917      4.451
REMARK  Name = 
REMARK  10 active torsions:
REMARK  status: ('A' for Active; 'I' for Inactive)
REMARK    1  A    between atoms: C_1  and  C_2
REMARK    2  A    between atoms: C_2  and  C_3
REMARK    3  A    between atoms: C_3  and  C_4
REMARK    4  A    between atoms: C_4  and  N_5
REMARK    5  A    between atoms: C_9  and  N_10
REMARK    6  A    between atoms: N_10  and  C_11
REMARK    7  A    between atoms: C_11  and  C_12
REMARK    8  A    between atoms: C_12  and  C_13
REMARK    9  A    between atoms: C_12  and  C_14
REMARK   10  A    between atoms: C_21  and  C_22
REMARK                            x       y       z     vdW  Elec       q    Type
REMARK                         _______ _______ _______ _____ _____    ______ ____
ROOT
ATOM      1  N   UNL     1       2.661   5.449  19.397  0.00  0.00    +0.000 N 
ATOM      2  C   UNL     1       3.151   4.570  18.414  0.00  0.00    +0.000 C 
ATOM      3  O   UNL     1       2.906   3.376  18.333  0.00  0.00    +0.000 OA
ATOM      4  C   UNL     1       4.191   5.197  17.593  0.00  0.00    +0.000 C 
ATOM      5  C   UNL     1       5.440   4.695  17.635  0.00  0.00    +0.000 C 
ATOM      6  C   UNL     1       3.943   6.530  17.056  0.00  0.00    +0.000 C 
ATOM      7  O   UNL     1       4.459   6.945  16.030  0.00  0.00    +0.000 OA
ATOM      8  C   UNL     1       3.057   7.363  17.899  0.00  0.00    +0.000 A 
ATOM      9  C   UNL     1       2.918   8.695  17.482  0.00  0.00    +0.000 A 
ATOM     10  C   UNL     1       2.211   9.588  18.259  0.00  0.00    +0.000 A 
ATOM     11  C   UNL     1       1.631   9.140  19.440  0.00  0.00    +0.000 A 
ATOM     12  C   UNL     1       1.735   7.788  19.871  0.00  0.00    +0.000 A 
ATOM     13  C   UNL     1       0.953   7.478  21.121  0.00  0.00    +0.000 C 
ATOM     14  C   UNL     1       2.485   6.862  19.100  0.00  0.00    +0.000 A 
ENDROOT
BRANCH   5  15
ATOM     15  N   UNL     1       6.591   5.274  17.149  0.00  0.00    +0.000 N 
ATOM     16  H   UNL     1       6.743   6.244  17.447  0.00  0.00    +0.000 HD
BRANCH  15  17
ATOM     17  C   UNL     1       7.431   4.775  16.078  0.00  0.00    +0.000 C 
BRANCH  17  18
ATOM     18  C   UNL     1       6.748   4.983  14.716  0.00  0.00    +0.000 C 
ATOM     19  C   UNL     1       7.756   5.286  13.603  0.00  0.00    +0.000 C 
ATOM     20  C   UNL     1       5.930   3.746  14.338  0.00  0.00    +0.000 C 
ENDBRANCH  17  18
ENDBRANCH  15  17
ENDBRANCH   5  15
BRANCH   1  21
ATOM     21  C   UNL     1       2.459   4.849  20.718  0.00  0.00    +0.000 C 
BRANCH  21  22
ATOM     22  C   UNL     1       1.155   4.021  20.786  0.00  0.00    +0.000 C 
BRANCH  22  24
ATOM     23  C   UNL     1       2.792   2.351  21.632  0.00  0.00    +0.000 C 
ATOM     24  C   UNL     1       1.312   2.662  21.446  0.00  0.00    +0.000 C 
ENDBRANCH  22  24
ENDBRANCH  21  22
ENDBRANCH   1  21
TORSDOF 6
ENDMDL
MODEL 8
REMARK VINA RESULT:      -6.0      2.535      4.864
REMARK  Name = 
REMARK  10 active torsions:
REMARK  status: ('A' for Active; 'I' for Inactive)
REMARK    1  A    between atoms: C_1  and  C_2
REMARK    2  A    between atoms: C_2  and  C_3
REMARK    3  A    between atoms: C_3  and  C_4
REMARK    4  A    between atoms: C_4  and  N_5
REMARK    5  A    between atoms: C_9  and  N_10
REMARK    6  A    between atoms: N_10  and  C_11
REMARK    7  A    between atoms: C_11  and  C_12
REMARK    8  A    between atoms: C_12  and  C_13
REMARK    9  A    between atoms: C_12  and  C_14
REMARK   10  A    between atoms: C_21  and  C_22
REMARK                            x       y       z     vdW  Elec       q    Type
REMARK                         _______ _______ _______ _____ _____    ______ ____
ROOT
ATOM      1  N   UNL     1       3.512   4.500  19.064  0.00  0.00    +0.000 N 
ATOM      2  C   UNL     1       4.094   3.748  18.028  0.00  0.00    +0.000 C 
ATOM      3  O   UNL     1       4.027   2.536  17.895  0.00  0.00    +0.000 OA
ATOM      4  C   UNL     1       5.004   4.560  17.212  0.00  0.00    +0.000 C 
ATOM      5  C   UNL     1       6.314   4.248  17.199  0.00  0.00    +0.000 C 
ATOM      6  C   UNL     1       4.544   5.863  16.747  0.00  0.00    +0.000 C 
ATOM      7  O   UNL     1       4.960   6.395  15.730  0.00  0.00    +0.000 OA
ATOM      8  C   UNL     1       3.573   6.516  17.651  0.00  0.00    +0.000 A 
ATOM      9  C   UNL     1       3.225   7.829  17.302  0.00  0.00    +0.000 A 
ATOM     10  C   UNL     1       2.418   8.571  18.140  0.00  0.00    +0.000 A 
ATOM     11  C   UNL     1       1.949   7.990  19.311  0.00  0.00    +0.000 A 
ATOM     12  C   UNL     1       2.265   6.651  19.673  0.00  0.00    +0.000 A 
ATOM     13  C   UNL     1       1.578   6.173  20.926  0.00  0.00    +0.000 C 
ATOM     14  C   UNL     1       3.119   5.882  18.840  0.00  0.00    +0.000 A 
ENDROOT
BRANCH   5  15
ATOM     15  N   UNL     1       7.351   5.014  16.713  0.00  0.00    +0.000 N 
ATOM     16  H   UNL     1       8.185   4.483  16.437  0.00  0.00    +0.000 HD
BRANCH  15  17
ATOM     17  C   UNL     1       7.489   6.454  16.813  0.00  0.00    +0.000 C 
BRANCH  17  18
ATOM     18  C   UNL     1       7.553   6.889  18.286  0.00  0.00    +0.000 C 
ATOM     19  C   UNL     1       8.161   5.806  19.184  0.00  0.00    +0.000 C 
ATOM     20  C   UNL     1       8.366   8.179  18.423  0.00  0.00    +0.000 C 
ENDBRANCH  17  18
ENDBRANCH  15  17
ENDBRANCH   5  15
BRANCH   1  21
ATOM     21  C   UNL     1       3.443   3.819  20.359  0.00  0.00    +0.000 C 
BRANCH  21  22
ATOM     22  C   UNL     1       2.513   2.584  20.316  0.00  0.00    +0.000 C 
BRANCH  22  24
ATOM     23  C   UNL     1       0.592   2.503  18.739  0.00  0.00    +0.000 C 
ATOM     24  C   UNL     1       1.042   2.917  20.134  0.00  0.00    +0.000 C 
ENDBRANCH  22  24
ENDBRANCH  21  22
ENDBRANCH   1  21
TORSDOF 6
ENDMDL
MODEL 9
REMARK VINA RESULT:      -6.0      8.254     12.277
REMARK  Name = 
REMARK  10 active torsions:
REMARK  status: ('A' for Active; 'I' for Inactive)
REMARK    1  A    between atoms: C_1  and  C_2
REMARK    2  A    between atoms: C_2  and  C_3
REMARK    3  A    between atoms: C_3  and  C_4
REMARK    4  A    between atoms: C_4  and  N_5
REMARK    5  A    between atoms: C_9  and  N_10
REMARK    6  A    between atoms: N_10  and  C_11
REMARK    7  A    between atoms: C_11  and  C_12
REMARK    8  A    between atoms: C_12  and  C_13
REMARK    9  A    between atoms: C_12  and  C_14
REMARK   10  A    between atoms: C_21  and  C_22
REMARK                            x       y       z     vdW  Elec       q    Type
REMARK                         _______ _______ _______ _____ _____    ______ ____
ROOT
ATOM      1  N   UNL     1      -1.341  11.459  19.742  0.00  0.00    +0.000 N 
ATOM      2  C   UNL     1      -1.227  12.435  20.749  0.00  0.00    +0.000 C 
ATOM      3  O   UNL     1      -0.188  12.948  21.137  0.00  0.00    +0.000 OA
ATOM      4  C   UNL     1      -2.492  12.629  21.465  0.00  0.00    +0.000 C 
ATOM      5  C   UNL     1      -2.548  12.320  22.775  0.00  0.00    +0.000 C 
ATOM      6  C   UNL     1      -3.713  12.792  20.686  0.00  0.00    +0.000 C 
ATOM      7  O   UNL     1      -4.686  13.409  21.090  0.00  0.00    +0.000 OA
ATOM      8  C   UNL     1      -3.696  12.089  19.385  0.00  0.00    +0.000 A 
ATOM      9  C   UNL     1      -4.908  12.109  18.680  0.00  0.00    +0.000 A 
ATOM     10  C   UNL     1      -5.036  11.387  17.512  0.00  0.00    +0.000 A 
ATOM     11  C   UNL     1      -3.946  10.663  17.046  0.00  0.00    +0.000 A 
ATOM     12  C   UNL     1      -2.697  10.649  17.728  0.00  0.00    +0.000 A 
ATOM     13  C   UNL     1      -1.612   9.890  17.009  0.00  0.00    +0.000 C 
ATOM     14  C   UNL     1      -2.555  11.361  18.947  0.00  0.00    +0.000 A 
ENDROOT
BRANCH   5  15
ATOM     15  N   UNL     1      -3.675  12.191  23.556  0.00  0.00    +0.000 N 
ATOM     16  H   UNL     1      -4.352  11.496  23.223  0.00  0.00    +0.000 HD
BRANCH  15  17
ATOM     17  C   UNL     1      -4.119  13.097  24.598  0.00  0.00    +0.000 C 
BRANCH  17  18
ATOM     18  C   UNL     1      -3.609  14.522  24.328  0.00  0.00    +0.000 C 
ATOM     19  C   UNL     1      -4.754  15.505  24.060  0.00  0.00    +0.000 C 
ATOM     20  C   UNL     1      -2.776  15.021  25.511  0.00  0.00    +0.000 C 
ENDBRANCH  17  18
ENDBRANCH  15  17
ENDBRANCH   5  15
BRANCH   1  21
ATOM     21  C   UNL     1      -0.214  10.529  19.651  0.00  0.00    +0.000 C 
BRANCH  21  22
ATOM     22  C   UNL     1      -0.301   9.407  20.711  0.00  0.00    +0.000 C 
BRANCH  22  24
ATOM     23  C   UNL     1      -0.071   9.546  23.183  0.00  0.00    +0.000 C 
ATOM     24  C   UNL     1       0.682   9.555  21.859  0.00  0.00    +0.000 C 
ENDBRANCH  22  24
ENDBRANCH  21  22
ENDBRANCH   1  21
TORSDOF 6
ENDMDL
