MODEL 1
REMARK VINA RESULT:      -7.8      0.000      0.000
REMARK  Name = 
REMARK  7 active torsions:
REMARK  status: ('A' for Active; 'I' for Inactive)
REMARK    1  A    between atoms: C_1  and  C_2
REMARK    2  A    between atoms: C_2  and  C_3
REMARK    3  A    between atoms: C_3  and  C_4
REMARK    4  A    between atoms: C_10  and  O_11
REMARK    5  A    between atoms: C_12  and  C_13
REMARK    6  A    between atoms: C_15  and  C_16
REMARK    7  A    between atoms: C_18  and  O_19
REMARK                            x       y       z     vdW  Elec       q    Type
REMARK                         _______ _______ _______ _____ _____    ______ ____
ROOT
ATOM      1  C   UNL     1       3.701   5.422  17.328  0.00  0.00    +0.000 C 
ATOM      2  O   UNL     1       3.044   6.666  17.542  0.00  0.00    +0.000 OA
ATOM      3  C   UNL     1       2.457   6.920  18.752  0.00  0.00    +0.000 A 
ATOM      4  C   UNL     1       2.273   5.943  19.758  0.00  0.00    +0.000 A 
ATOM      5  C   UNL     1       1.664   6.414  20.936  0.00  0.00    +0.000 A 
ATOM      6  C   UNL     1       1.179   7.725  21.074  0.00  0.00    +0.000 A 
ATOM      7  C   UNL     1       1.363   8.644  20.055  0.00  0.00    +0.000 A 
ATOM      8  C   UNL     1       2.027   8.268  18.893  0.00  0.00    +0.000 A 
ATOM      9  C   UNL     1       2.317   9.273  17.807  0.00  0.00    +0.000 C 
ATOM     10  C   UNL     1       2.723   4.528  19.525  0.00  0.00    +0.000 A 
ATOM     11  C   UNL     1       2.519   3.380  20.348  0.00  0.00    +0.000 A 
ATOM     12  C   UNL     1       1.781   3.289  21.661  0.00  0.00    +0.000 C 
ATOM     13  C   UNL     1       3.073   2.121  19.978  0.00  0.00    +0.000 A 
ATOM     14  C   UNL     1       3.748   1.951  18.783  0.00  0.00    +0.000 A 
ATOM     15  C   UNL     1       3.893   3.025  17.944  0.00  0.00    +0.000 A 
ATOM     16  C   UNL     1       3.419   4.298  18.311  0.00  0.00    +0.000 A 
ENDROOT
BRANCH   7  17
ATOM     17  O   UNL     1       0.910   9.923  20.198  0.00  0.00    +0.000 OA
ATOM     18  H   UNL     1       1.616  10.471  20.576  0.00  0.00    +0.000 HD
ENDBRANCH   7  17
BRANCH  14  19
ATOM     19  O   UNL     1       4.272   0.755  18.414  0.00  0.00    +0.000 OA
ATOM     20  H   UNL     1       4.751   0.862  17.580  0.00  0.00    +0.000 HD
ENDBRANCH  14  19
BRANCH   1  21
ATOM     21  C   UNL     1       5.218   5.681  17.186  0.00  0.00    +0.000 C 
BRANCH  21  23
ATOM     22  C   UNL     1       5.563   4.548  14.963  0.00  0.00    +0.000 C 
ATOM     23  C   UNL     1       5.652   5.861  15.727  0.00  0.00    +0.000 C 
ENDBRANCH  21  23
ENDBRANCH   1  21
TORSDOF 4
ENDMDL
MODEL 2
REMARK VINA RESULT:      -7.3      2.059      4.807
REMARK  Name = 
REMARK  7 active torsions:
REMARK  status: ('A' for Active; 'I' for Inactive)
REMARK    1  A    between atoms: C_1  and  C_2
REMARK    2  A    between atoms: C_2  and  C_3
REMARK    3  A    between atoms: C_3  and  C_4
REMARK    4  A    between atoms: C_10  and  O_11
REMARK    5  A    between atoms: C_12  and  C_13
REMARK    6  A    between atoms: C_15  and  C_16
REMARK    7  A    between atoms: C_18  and  O_19
REMARK                            x       y       z     vdW  Elec       q    Type
REMARK                         _______ _______ _______ _____ _____    ______ ____
ROOT
ATOM      1  C   UNL     1       3.657   6.084  19.598  0.00  0.00    +0.000 C 
ATOM      2  O   UNL     1       4.782   6.414  18.791  0.00  0.00    +0.000 OA
ATOM      3  C   UNL     1       5.195   5.543  17.820  0.00  0.00    +0.000 A 
ATOM      4  C   UNL     1       4.707   4.222  17.688  0.00  0.00    +0.000 A 
ATOM      5  C   UNL     1       5.248   3.496  16.612  0.00  0.00    +0.000 A 
ATOM      6  C   UNL     1       6.271   3.996  15.790  0.00  0.00    +0.000 A 
ATOM      7  C   UNL     1       6.734   5.288  15.966  0.00  0.00    +0.000 A 
ATOM      8  C   UNL     1       6.187   6.091  16.961  0.00  0.00    +0.000 A 
ATOM      9  C   UNL     1       6.612   7.529  17.118  0.00  0.00    +0.000 C 
ATOM     10  C   UNL     1       3.681   3.699  18.654  0.00  0.00    +0.000 A 
ATOM     11  C   UNL     1       3.160   2.375  18.771  0.00  0.00    +0.000 A 
ATOM     12  C   UNL     1       3.519   1.152  17.964  0.00  0.00    +0.000 C 
ATOM     13  C   UNL     1       2.144   2.083  19.727  0.00  0.00    +0.000 A 
ATOM     14  C   UNL     1       1.693   3.040  20.618  0.00  0.00    +0.000 A 
ATOM     15  C   UNL     1       2.232   4.299  20.570  0.00  0.00    +0.000 A 
ATOM     16  C   UNL     1       3.187   4.639  19.593  0.00  0.00    +0.000 A 
ENDROOT
BRANCH   7  17
ATOM     17  O   UNL     1       7.713   5.781  15.154  0.00  0.00    +0.000 OA
ATOM     18  H   UNL     1       7.637   6.749  15.115  0.00  0.00    +0.000 HD
ENDBRANCH   7  17
BRANCH  14  19
ATOM     19  O   UNL     1       0.733   2.772  21.539  0.00  0.00    +0.000 OA
ATOM     20  H   UNL     1       0.658   3.523  22.146  0.00  0.00    +0.000 HD
ENDBRANCH  14  19
BRANCH   1  21
ATOM     21  C   UNL     1       2.503   7.056  19.262  0.00  0.00    +0.000 C 
BRANCH  21  23
ATOM     22  C   UNL     1       1.831   9.049  17.878  0.00  0.00    +0.000 C 
ATOM     23  C   UNL     1       2.753   7.842  17.970  0.00  0.00    +0.000 C 
ENDBRANCH  21  23
ENDBRANCH   1  21
TORSDOF 4
ENDMDL
MODEL 3
REMARK VINA RESULT:      -7.3      1.479      4.018
REMARK  Name = 
REMARK  7 active torsions:
REMARK  status: ('A' for Active; 'I' for Inactive)
REMARK    1  A    between atoms: C_1  and  C_2
REMARK    2  A    between atoms: C_2  and  C_3
REMARK    3  A    between atoms: C_3  and  C_4
REMARK    4  A    between atoms: C_10  and  O_11
REMARK    5  A    between atoms: C_12  and  C_13
REMARK    6  A    between atoms: C_15  and  C_16
REMARK    7  A    between atoms: C_18  and  O_19
REMARK                            x       y       z     vdW  Elec       q    Type
REMARK                         _______ _______ _______ _____ _____    ______ ____
ROOT
ATOM      1  C   UNL     1       2.144   5.182  20.227  0.00  0.00    +0.000 C 
ATOM      2  O   UNL     1       1.696   6.466  20.648  0.00  0.00    +0.000 OA
ATOM      3  C   UNL     1       1.801   7.532  19.797  0.00  0.00    +0.000 A 
ATOM      4  C   UNL     1       2.522   7.498  18.580  0.00  0.00    +0.000 A 
ATOM      5  C   UNL     1       2.491   8.695  17.842  0.00  0.00    +0.000 A 
ATOM      6  C   UNL     1       1.885   9.870  18.315  0.00  0.00    +0.000 A 
ATOM      7  C   UNL     1       1.207   9.864  19.521  0.00  0.00    +0.000 A 
ATOM      8  C   UNL     1       1.128   8.693  20.267  0.00  0.00    +0.000 A 
ATOM      9  C   UNL     1       0.323   8.637  21.540  0.00  0.00    +0.000 C 
ATOM     10  C   UNL     1       3.237   6.244  18.163  0.00  0.00    +0.000 A 
ATOM     11  C   UNL     1       4.111   6.043  17.052  0.00  0.00    +0.000 A 
ATOM     12  C   UNL     1       4.558   7.047  16.018  0.00  0.00    +0.000 C 
ATOM     13  C   UNL     1       4.658   4.753  16.791  0.00  0.00    +0.000 A 
ATOM     14  C   UNL     1       4.429   3.685  17.639  0.00  0.00    +0.000 A 
ATOM     15  C   UNL     1       3.651   3.875  18.750  0.00  0.00    +0.000 A 
ATOM     16  C   UNL     1       3.039   5.117  19.001  0.00  0.00    +0.000 A 
ENDROOT
BRANCH   7  17
ATOM     17  O   UNL     1       0.599  11.000  19.971  0.00  0.00    +0.000 OA
ATOM     18  H   UNL     1       0.709  11.703  19.310  0.00  0.00    +0.000 HD
ENDBRANCH   7  17
BRANCH  14  19
ATOM     19  O   UNL     1       4.952   2.454  17.406  0.00  0.00    +0.000 OA
ATOM     20  H   UNL     1       5.119   2.016  18.252  0.00  0.00    +0.000 HD
ENDBRANCH  14  19
BRANCH   1  21
ATOM     21  C   UNL     1       0.918   4.253  20.082  0.00  0.00    +0.000 C 
BRANCH  21  23
ATOM     22  C   UNL     1       2.152   3.092  21.944  0.00  0.00    +0.000 C 
ATOM     23  C   UNL     1       1.055   2.963  20.898  0.00  0.00    +0.000 C 
ENDBRANCH  21  23
ENDBRANCH   1  21
TORSDOF 4
ENDMDL
MODEL 4
REMARK VINA RESULT:      -6.9      1.715      3.850
REMARK  Name = 
REMARK  7 active torsions:
REMARK  status: ('A' for Active; 'I' for Inactive)
REMARK    1  A    between atoms: C_1  and  C_2
REMARK    2  A    between atoms: C_2  and  C_3
REMARK    3  A    between atoms: C_3  and  C_4
REMARK    4  A    between atoms: C_10  and  O_11
REMARK    5  A    between atoms: C_12  and  C_13
REMARK    6  A    between atoms: C_15  and  C_16
REMARK    7  A    between atoms: C_18  and  O_19
REMARK                            x       y       z     vdW  Elec       q    Type
REMARK                         _______ _______ _______ _____ _____    ______ ____
ROOT
ATOM      1  C   UNL     1       2.212   5.599  20.732  0.00  0.00    +0.000 C 
ATOM      2  O   UNL     1       1.601   6.877  20.858  0.00  0.00    +0.000 OA
ATOM      3  C   UNL     1       1.692   7.775  19.829  0.00  0.00    +0.000 A 
ATOM      4  C   UNL     1       2.535   7.602  18.706  0.00  0.00    +0.000 A 
ATOM      5  C   UNL     1       2.467   8.632  17.751  0.00  0.00    +0.000 A 
ATOM      6  C   UNL     1       1.704   9.796  17.936  0.00  0.00    +0.000 A 
ATOM      7  C   UNL     1       0.908   9.933  19.059  0.00  0.00    +0.000 A 
ATOM      8  C   UNL     1       0.865   8.918  20.008  0.00  0.00    +0.000 A 
ATOM      9  C   UNL     1      -0.059   9.004  21.196  0.00  0.00    +0.000 C 
ATOM     10  C   UNL     1       3.407   6.382  18.601  0.00  0.00    +0.000 A 
ATOM     11  C   UNL     1       4.407   6.083  17.628  0.00  0.00    +0.000 A 
ATOM     12  C   UNL     1       4.861   6.924  16.461  0.00  0.00    +0.000 C 
ATOM     13  C   UNL     1       5.100   4.838  17.667  0.00  0.00    +0.000 A 
ATOM     14  C   UNL     1       4.888   3.924  18.683  0.00  0.00    +0.000 A 
ATOM     15  C   UNL     1       3.983   4.224  19.667  0.00  0.00    +0.000 A 
ATOM     16  C   UNL     1       3.232   5.413  19.621  0.00  0.00    +0.000 A 
ENDROOT
BRANCH   7  17
ATOM     17  O   UNL     1       0.150  11.056  19.228  0.00  0.00    +0.000 OA
ATOM     18  H   UNL     1       0.056  11.237  20.177  0.00  0.00    +0.000 HD
ENDBRANCH   7  17
BRANCH  14  19
ATOM     19  O   UNL     1       5.548   2.739  18.736  0.00  0.00    +0.000 OA
ATOM     20  H   UNL     1       4.967   2.037  18.409  0.00  0.00    +0.000 HD
ENDBRANCH  14  19
BRANCH   1  21
ATOM     21  C   UNL     1       1.103   4.524  20.666  0.00  0.00    +0.000 C 
BRANCH  21  23
ATOM     22  C   UNL     1       0.847   2.455  19.254  0.00  0.00    +0.000 C 
ATOM     23  C   UNL     1       0.897   3.975  19.250  0.00  0.00    +0.000 C 
ENDBRANCH  21  23
ENDBRANCH   1  21
TORSDOF 4
ENDMDL
MODEL 5
REMARK VINA RESULT:      -6.7      1.912      4.413
REMARK  Name = 
REMARK  7 active torsions:
REMARK  status: ('A' for Active; 'I' for Inactive)
REMARK    1  A    between atoms: C_1  and  C_2
REMARK    2  A    between atoms: C_2  and  C_3
REMARK    3  A    between atoms: C_3  and  C_4
REMARK    4  A    between atoms: C_10  and  O_11
REMARK    5  A    between atoms: C_12  and  C_13
REMARK    6  A    between atoms: C_15  and  C_16
REMARK    7  A    between atoms: C_18  and  O_19
REMARK                            x       y       z     vdW  Elec       q    Type
REMARK                         _______ _______ _______ _____ _____    ______ ____
ROOT
ATOM      1  C   UNL     1       4.186   3.142  18.207  0.00  0.00    +0.000 C 
ATOM      2  O   UNL     1       3.599   3.840  19.300  0.00  0.00    +0.000 OA
ATOM      3  C   UNL     1       3.223   5.147  19.143  0.00  0.00    +0.000 A 
ATOM      4  C   UNL     1       3.565   5.934  18.019  0.00  0.00    +0.000 A 
ATOM      5  C   UNL     1       3.064   7.249  18.043  0.00  0.00    +0.000 A 
ATOM      6  C   UNL     1       2.368   7.781  19.140  0.00  0.00    +0.000 A 
ATOM      7  C   UNL     1       2.073   6.981  20.230  0.00  0.00    +0.000 A 
ATOM      8  C   UNL     1       2.468   5.648  20.239  0.00  0.00    +0.000 A 
ATOM      9  C   UNL     1       2.083   4.732  21.373  0.00  0.00    +0.000 C 
ATOM     10  C   UNL     1       4.396   5.347  16.912  0.00  0.00    +0.000 A 
ATOM     11  C   UNL     1       4.947   5.999  15.769  0.00  0.00    +0.000 A 
ATOM     12  C   UNL     1       4.853   7.455  15.384  0.00  0.00    +0.000 C 
ATOM     13  C   UNL     1       5.672   5.253  14.794  0.00  0.00    +0.000 A 
ATOM     14  C   UNL     1       5.932   3.906  14.962  0.00  0.00    +0.000 A 
ATOM     15  C   UNL     1       5.472   3.276  16.089  0.00  0.00    +0.000 A 
ATOM     16  C   UNL     1       4.695   3.966  17.037  0.00  0.00    +0.000 A 
ENDROOT
BRANCH   7  17
ATOM     17  O   UNL     1       1.378   7.492  21.287  0.00  0.00    +0.000 OA
ATOM     18  H   UNL     1       0.848   6.786  21.692  0.00  0.00    +0.000 HD
ENDBRANCH   7  17
BRANCH  14  19
ATOM     19  O   UNL     1       6.629   3.186  14.046  0.00  0.00    +0.000 OA
ATOM     20  H   UNL     1       6.102   3.108  13.237  0.00  0.00    +0.000 HD
ENDBRANCH  14  19
BRANCH   1  21
ATOM     21  C   UNL     1       3.206   2.041  17.740  0.00  0.00    +0.000 C 
BRANCH  21  23
ATOM     22  C   UNL     1       0.853   2.347  18.583  0.00  0.00    +0.000 C 
ATOM     23  C   UNL     1       2.189   1.659  18.821  0.00  0.00    +0.000 C 
ENDBRANCH  21  23
ENDBRANCH   1  21
TORSDOF 4
ENDMDL
MODEL 6
REMARK VINA RESULT:      -6.4      1.399      3.644
REMARK  Name = 
REMARK  7 active torsions:
REMARK  status: ('A' for Active; 'I' for Inactive)
REMARK    1  A    between atoms: C_1  and  C_2
REMARK    2  A    between atoms: C_2  and  C_3
REMARK    3  A    between atoms: C_3  and  C_4
REMARK    4  A    between atoms: C_10  and  O_11
REMARK    5  A    between atoms: C_12  and  C_13
REMARK    6  A    between atoms: C_15  and  C_16
REMARK    7  A    between atoms: C_18  and  O_19
REMARK                            x       y       z     vdW  Elec       q    Type
REMARK                         _______ _______ _______ _____ _____    ______ ____
ROOT
ATOM      1  C   UNL     1       2.366   4.345  20.827  0.00  0.00    +0.000 C 
ATOM      2  O   UNL     1       2.088   5.737  20.932  0.00  0.00    +0.000 OA
ATOM      3  C   UNL     1       2.254   6.543  19.839  0.00  0.00    +0.000 A 
ATOM      4  C   UNL     1       2.886   6.128  18.644  0.00  0.00    +0.000 A 
ATOM      5  C   UNL     1       2.939   7.105  17.632  0.00  0.00    +0.000 A 
ATOM      6  C   UNL     1       2.495   8.423  17.820  0.00  0.00    +0.000 A 
ATOM      7  C   UNL     1       1.899   8.793  19.013  0.00  0.00    +0.000 A 
ATOM      8  C   UNL     1       1.743   7.856  20.029  0.00  0.00    +0.000 A 
ATOM      9  C   UNL     1       1.020   8.210  21.304  0.00  0.00    +0.000 C 
ATOM     10  C   UNL     1       3.433   4.733  18.526  0.00  0.00    +0.000 A 
ATOM     11  C   UNL     1       4.206   4.164  17.470  0.00  0.00    +0.000 A 
ATOM     12  C   UNL     1       4.692   4.825  16.204  0.00  0.00    +0.000 C 
ATOM     13  C   UNL     1       4.592   2.793  17.518  0.00  0.00    +0.000 A 
ATOM     14  C   UNL     1       4.304   1.999  18.613  0.00  0.00    +0.000 A 
ATOM     15  C   UNL     1       3.624   2.546  19.669  0.00  0.00    +0.000 A 
ATOM     16  C   UNL     1       3.168   3.876  19.625  0.00  0.00    +0.000 A 
ENDROOT
BRANCH   7  17
ATOM     17  O   UNL     1       1.449  10.069  19.187  0.00  0.00    +0.000 OA
ATOM     18  H   UNL     1       2.163  10.691  18.975  0.00  0.00    +0.000 HD
ENDBRANCH   7  17
BRANCH  14  19
ATOM     19  O   UNL     1       4.674   0.694  18.675  0.00  0.00    +0.000 OA
ATOM     20  H   UNL     1       4.905   0.473  19.588  0.00  0.00    +0.000 HD
ENDBRANCH  14  19
BRANCH   1  21
ATOM     21  C   UNL     1       1.040   3.564  20.962  0.00  0.00    +0.000 C 
BRANCH  21  23
ATOM     22  C   UNL     1       0.469   2.172  18.942  0.00  0.00    +0.000 C 
ATOM     23  C   UNL     1       0.255   3.503  19.647  0.00  0.00    +0.000 C 
ENDBRANCH  21  23
ENDBRANCH   1  21
TORSDOF 4
ENDMDL
MODEL 7
REMARK VINA RESULT:      -6.4      8.914     11.794
REMARK  Name = 
REMARK  7 active torsions:
REMARK  status: ('A' for Active; 'I' for Inactive)
REMARK    1  A    between atoms: C_1  and  C_2
REMARK    2  A    between atoms: C_2  and  C_3
REMARK    3  A    between atoms: C_3  and  C_4
REMARK    4  A    between atoms: C_10  and  O_11
REMARK    5  A    between atoms: C_12  and  C_13
REMARK    6  A    between atoms: C_15  and  C_16
REMARK    7  A    between atoms: C_18  and  O_19
REMARK                            x       y       z     vdW  Elec       q    Type
REMARK                         _______ _______ _______ _____ _____    ______ ____
ROOT
ATOM      1  C   UNL     1      -6.868  12.159  20.232  0.00  0.00    +0.000 C 
ATOM      2  O   UNL     1      -6.032  12.092  19.083  0.00  0.00    +0.000 OA
ATOM      3  C   UNL     1      -4.672  12.131  19.233  0.00  0.00    +0.000 A 
ATOM      4  C   UNL     1      -4.024  12.442  20.451  0.00  0.00    +0.000 A 
ATOM      5  C   UNL     1      -2.618  12.409  20.398  0.00  0.00    +0.000 A 
ATOM      6  C   UNL     1      -1.903  12.190  19.209  0.00  0.00    +0.000 A 
ATOM      7  C   UNL     1      -2.579  11.908  18.035  0.00  0.00    +0.000 A 
ATOM      8  C   UNL     1      -3.968  11.846  18.031  0.00  0.00    +0.000 A 
ATOM      9  C   UNL     1      -4.723  11.456  16.786  0.00  0.00    +0.000 C 
ATOM     10  C   UNL     1      -4.834  12.765  21.674  0.00  0.00    +0.000 A 
ATOM     11  C   UNL     1      -4.382  13.222  22.949  0.00  0.00    +0.000 A 
ATOM     12  C   UNL     1      -2.970  13.515  23.392  0.00  0.00    +0.000 C 
ATOM     13  C   UNL     1      -5.310  13.427  24.011  0.00  0.00    +0.000 A 
ATOM     14  C   UNL     1      -6.671  13.272  23.822  0.00  0.00    +0.000 A 
ATOM     15  C   UNL     1      -7.132  12.903  22.586  0.00  0.00    +0.000 A 
ATOM     16  C   UNL     1      -6.238  12.626  21.534  0.00  0.00    +0.000 A 
ENDROOT
BRANCH   7  17
ATOM     17  O   UNL     1      -1.883  11.674  16.884  0.00  0.00    +0.000 OA
ATOM     18  H   UNL     1      -1.147  12.304  16.823  0.00  0.00    +0.000 HD
ENDBRANCH   7  17
BRANCH  14  19
ATOM     19  O   UNL     1      -7.565  13.473  24.823  0.00  0.00    +0.000 OA
ATOM     20  H   UNL     1      -7.111  13.397  25.674  0.00  0.00    +0.000 HD
ENDBRANCH  14  19
BRANCH   1  21
ATOM     21  C   UNL     1      -7.582  10.799  20.405  0.00  0.00    +0.000 C 
BRANCH  21  23
ATOM     22  C   UNL     1      -7.123   8.348  20.052  0.00  0.00    +0.000 C 
ATOM     23  C   UNL     1      -7.067   9.735  19.429  0.00  0.00    +0.000 C 
ENDBRANCH  21  23
ENDBRANCH   1  21
TORSDOF 4
ENDMDL
MODEL 8
REMARK VINA RESULT:      -6.2      8.019     10.506
REMARK  Name = 
REMARK  7 active torsions:
REMARK  status: ('A' for Active; 'I' for Inactive)
REMARK    1  A    between atoms: C_1  and  C_2
REMARK    2  A    between atoms: C_2  and  C_3
REMARK    3  A    between atoms: C_3  and  C_4
REMARK    4  A    between atoms: C_10  and  O_11
REMARK    5  A    between atoms: C_12  and  C_13
REMARK    6  A    between atoms: C_15  and  C_16
REMARK    7  A    between atoms: C_18  and  O_19
REMARK                            x       y       z     vdW  Elec       q    Type
REMARK                         _______ _______ _______ _____ _____    ______ ____
ROOT
ATOM      1  C   UNL     1      -2.161  12.505  20.528  0.00  0.00    +0.000 C 
ATOM      2  O   UNL     1      -2.821  13.000  21.687  0.00  0.00    +0.000 OA
ATOM      3  C   UNL     1      -4.173  12.834  21.818  0.00  0.00    +0.000 A 
ATOM      4  C   UNL     1      -5.014  12.378  20.775  0.00  0.00    +0.000 A 
ATOM      5  C   UNL     1      -6.373  12.259  21.121  0.00  0.00    +0.000 A 
ATOM      6  C   UNL     1      -6.882  12.657  22.367  0.00  0.00    +0.000 A 
ATOM      7  C   UNL     1      -6.026  13.116  23.352  0.00  0.00    +0.000 A 
ATOM      8  C   UNL     1      -4.659  13.186  23.107  0.00  0.00    +0.000 A 
ATOM      9  C   UNL     1      -3.697  13.600  24.191  0.00  0.00    +0.000 C 
ATOM     10  C   UNL     1      -4.434  12.056  19.427  0.00  0.00    +0.000 A 
ATOM     11  C   UNL     1      -5.117  11.708  18.222  0.00  0.00    +0.000 A 
ATOM     12  C   UNL     1      -6.603  11.592  17.988  0.00  0.00    +0.000 C 
ATOM     13  C   UNL     1      -4.381  11.384  17.045  0.00  0.00    +0.000 A 
ATOM     14  C   UNL     1      -3.002  11.474  17.008  0.00  0.00    +0.000 A 
ATOM     15  C   UNL     1      -2.331  11.875  18.133  0.00  0.00    +0.000 A 
ATOM     16  C   UNL     1      -3.022  12.136  19.332  0.00  0.00    +0.000 A 
ENDROOT
BRANCH   7  17
ATOM     17  O   UNL     1      -6.519  13.484  24.571  0.00  0.00    +0.000 OA
ATOM     18  H   UNL     1      -5.912  14.121  24.981  0.00  0.00    +0.000 HD
ENDBRANCH   7  17
BRANCH  14  19
ATOM     19  O   UNL     1      -2.290  11.177  15.890  0.00  0.00    +0.000 OA
ATOM     20  H   UNL     1      -2.900  10.903  15.190  0.00  0.00    +0.000 HD
ENDBRANCH  14  19
BRANCH   1  21
ATOM     21  C   UNL     1      -1.240  11.336  20.944  0.00  0.00    +0.000 C 
BRANCH  21  23
ATOM     22  C   UNL     1      -0.771  10.135  23.107  0.00  0.00    +0.000 C 
ATOM     23  C   UNL     1      -0.728  11.471  22.382  0.00  0.00    +0.000 C 
ENDBRANCH  21  23
ENDBRANCH   1  21
TORSDOF 4
ENDMDL
MODEL 9
REMARK VINA RESULT:      -6.1      6.574      9.374
REMARK  Name = 
REMARK  7 active torsions:
REMARK  status: ('A' for Active; 'I' for Inactive)
REMARK    1  A    between atoms: C_1  and  C_2
REMARK    2  A    between atoms: C_2  and  C_3
REMARK    3  A    between atoms: C_3  and  C_4
REMARK    4  A    between atoms: C_10  and  O_11
REMARK    5  A    between atoms: C_12  and  C_13
REMARK    6  A    between atoms: C_15  and  C_16
REMARK    7  A    between atoms: C_18  and  O_19
REMARK                            x       y       z     vdW  Elec       q    Type
REMARK                         _______ _______ _______ _____ _____    ______ ____
ROOT
ATOM      1  C   UNL     1      -1.104  11.500  19.114  0.00  0.00    +0.000 C 
ATOM      2  O   UNL     1      -1.265  12.175  20.356  0.00  0.00    +0.000 OA
ATOM      3  C   UNL     1      -2.523  12.465  20.810  0.00  0.00    +0.000 A 
ATOM      4  C   UNL     1      -3.693  12.322  20.028  0.00  0.00    +0.000 A 
ATOM      5  C   UNL     1      -4.890  12.656  20.688  0.00  0.00    +0.000 A 
ATOM      6  C   UNL     1      -4.923  13.190  21.986  0.00  0.00    +0.000 A 
ATOM      7  C   UNL     1      -3.752  13.331  22.709  0.00  0.00    +0.000 A 
ATOM      8  C   UNL     1      -2.539  12.947  22.148  0.00  0.00    +0.000 A 
ATOM      9  C   UNL     1      -1.261  13.009  22.945  0.00  0.00    +0.000 C 
ATOM     10  C   UNL     1      -3.596  11.838  18.609  0.00  0.00    +0.000 A 
ATOM     11  C   UNL     1      -4.626  11.747  17.625  0.00  0.00    +0.000 A 
ATOM     12  C   UNL     1      -6.080  12.131  17.752  0.00  0.00    +0.000 C 
ATOM     13  C   UNL     1      -4.346  11.208  16.336  0.00  0.00    +0.000 A 
ATOM     14  C   UNL     1      -3.064  10.837  15.971  0.00  0.00    +0.000 A 
ATOM     15  C   UNL     1      -2.047  10.983  16.877  0.00  0.00    +0.000 A 
ATOM     16  C   UNL     1      -2.302  11.447  18.182  0.00  0.00    +0.000 A 
ENDROOT
BRANCH   7  17
ATOM     17  O   UNL     1      -3.786  13.830  23.979  0.00  0.00    +0.000 OA
ATOM     18  H   UNL     1      -2.889  14.085  24.246  0.00  0.00    +0.000 HD
ENDBRANCH   7  17
BRANCH  14  19
ATOM     19  O   UNL     1      -2.782  10.331  14.744  0.00  0.00    +0.000 OA
ATOM     20  H   UNL     1      -1.822  10.313  14.621  0.00  0.00    +0.000 HD
ENDBRANCH  14  19
BRANCH   1  21
ATOM     21  C   UNL     1      -0.538  10.088  19.388  0.00  0.00    +0.000 C 
BRANCH  21  23
ATOM     22  C   UNL     1      -0.226   8.982  21.629  0.00  0.00    +0.000 C 
ATOM     23  C   UNL     1       0.309  10.030  20.664  0.00  0.00    +0.000 C 
ENDBRANCH  21  23
ENDBRANCH   1  21
TORSDOF 4
ENDMDL
