MODEL 1
REMARK VINA RESULT:      -8.9      0.000      0.000
REMARK  Name = 
REMARK  7 active torsions:
REMARK  status: ('A' for Active; 'I' for Inactive)
REMARK    1  A    between atoms: C_1  and  O_2
REMARK    2  A    between atoms: O_2  and  C_3
REMARK    3  A    between atoms: C_6  and  C_7
REMARK    4  A    between atoms: C_8  and  C_9
REMARK    5  A    between atoms: C_9  and  N_10
REMARK    6  A    between atoms: C_14  and  C_15
REMARK    7  A    between atoms: C_15  and  C_17
REMARK                            x       y       z     vdW  Elec       q    Type
REMARK                         _______ _______ _______ _____ _____    ______ ____
ROOT
ATOM      1  N   UNL     1       6.823   6.889  17.158  0.00  0.00    +0.000 NA
ATOM      2  C   UNL     1       7.083   5.632  16.434  0.00  0.00    +0.000 C 
ATOM      3  C   UNL     1       5.928   5.297  15.492  0.00  0.00    +0.000 C 
ATOM      4  C   UNL     1       4.618   5.171  16.256  0.00  0.00    +0.000 C 
ATOM      5  C   UNL     1       4.358   6.419  17.111  0.00  0.00    +0.000 C 
ATOM      6  C   UNL     1       5.592   6.773  17.962  0.00  0.00    +0.000 C 
ENDROOT
BRANCH   5   7
ATOM      7  C   UNL     1       3.171   6.178  18.042  0.00  0.00    +0.000 C 
ATOM      8  O   UNL     1       2.413   7.090  18.379  0.00  0.00    +0.000 OA
BRANCH   7   9
ATOM      9  C   UNL     1       2.814   4.804  18.482  0.00  0.00    +0.000 A 
ATOM     10  C   UNL     1       3.670   4.166  19.392  0.00  0.00    +0.000 A 
ATOM     11  C   UNL     1       3.386   2.876  19.826  0.00  0.00    +0.000 A 
ATOM     12  F   UNL     1       4.206   2.277  20.698  0.00  0.00    +0.000 F 
ATOM     13  C   UNL     1       2.263   2.197  19.367  0.00  0.00    +0.000 A 
ATOM     14  C   UNL     1       1.418   2.817  18.450  0.00  0.00    +0.000 A 
ATOM     15  C   UNL     1       1.699   4.111  18.006  0.00  0.00    +0.000 A 
ATOM     16  F   UNL     1       0.890   4.638  17.080  0.00  0.00    +0.000 F 
ENDBRANCH   7   9
ENDBRANCH   5   7
BRANCH   1  17
ATOM     17  C   UNL     1       7.963   7.253  18.023  0.00  0.00    +0.000 C 
BRANCH  17  19
ATOM     18  C   UNL     1       8.978   9.397  18.894  0.00  0.00    +0.000 C 
ATOM     19  C   UNL     1       8.221   8.733  18.003  0.00  0.00    +0.000 C 
BRANCH  18  23
ATOM     20  C   UNL     1      10.023  13.542  18.480  0.00  0.00    +0.000 A 
ATOM     21  C   UNL     1      10.649  12.741  19.437  0.00  0.00    +0.000 A 
ATOM     22  C   UNL     1      10.305  11.389  19.575  0.00  0.00    +0.000 A 
ATOM     23  C   UNL     1       9.305  10.828  18.775  0.00  0.00    +0.000 A 
ATOM     24  C   UNL     1       8.684  11.640  17.817  0.00  0.00    +0.000 A 
ATOM     25  C   UNL     1       9.031  12.988  17.675  0.00  0.00    +0.000 A 
BRANCH  20  27
ATOM     26  C   UNL     1      10.922  15.299  17.178  0.00  0.00    +0.000 C 
ATOM     27  O   UNL     1      10.438  14.844  18.438  0.00  0.00    +0.000 OA
ENDBRANCH  20  27
ENDBRANCH  18  23
ENDBRANCH  17  19
ENDBRANCH   1  17
TORSDOF 6
ENDMDL
MODEL 2
REMARK VINA RESULT:      -8.8      1.051      1.371
REMARK  Name = 
REMARK  7 active torsions:
REMARK  status: ('A' for Active; 'I' for Inactive)
REMARK    1  A    between atoms: C_1  and  O_2
REMARK    2  A    between atoms: O_2  and  C_3
REMARK    3  A    between atoms: C_6  and  C_7
REMARK    4  A    between atoms: C_8  and  C_9
REMARK    5  A    between atoms: C_9  and  N_10
REMARK    6  A    between atoms: C_14  and  C_15
REMARK    7  A    between atoms: C_15  and  C_17
REMARK                            x       y       z     vdW  Elec       q    Type
REMARK                         _______ _______ _______ _____ _____    ______ ____
ROOT
ATOM      1  N   UNL     1       6.642   6.343  17.339  0.00  0.00    +0.000 NA
ATOM      2  C   UNL     1       6.769   4.910  17.014  0.00  0.00    +0.000 C 
ATOM      3  C   UNL     1       5.611   4.446  16.133  0.00  0.00    +0.000 C 
ATOM      4  C   UNL     1       4.273   4.685  16.819  0.00  0.00    +0.000 C 
ATOM      5  C   UNL     1       4.140   6.145  17.271  0.00  0.00    +0.000 C 
ATOM      6  C   UNL     1       5.381   6.593  18.065  0.00  0.00    +0.000 C 
ENDROOT
BRANCH   5   7
ATOM      7  C   UNL     1       2.906   6.308  18.157  0.00  0.00    +0.000 C 
ATOM      8  O   UNL     1       2.298   7.379  18.236  0.00  0.00    +0.000 OA
BRANCH   7   9
ATOM      9  C   UNL     1       2.317   5.143  18.867  0.00  0.00    +0.000 A 
ATOM     10  C   UNL     1       2.714   4.918  20.194  0.00  0.00    +0.000 A 
ATOM     11  C   UNL     1       2.200   3.834  20.898  0.00  0.00    +0.000 A 
ATOM     12  F   UNL     1       2.580   3.631  22.165  0.00  0.00    +0.000 F 
ATOM     13  C   UNL     1       1.297   2.958  20.306  0.00  0.00    +0.000 A 
ATOM     14  C   UNL     1       0.913   3.165  18.984  0.00  0.00    +0.000 A 
ATOM     15  C   UNL     1       1.428   4.248  18.268  0.00  0.00    +0.000 A 
ATOM     16  F   UNL     1       1.074   4.367  16.983  0.00  0.00    +0.000 F 
ENDBRANCH   7   9
ENDBRANCH   5   7
BRANCH   1  17
ATOM     17  C   UNL     1       7.791   6.814  18.136  0.00  0.00    +0.000 C 
BRANCH  17  19
ATOM     18  C   UNL     1       8.687   9.098  18.739  0.00  0.00    +0.000 C 
ATOM     19  C   UNL     1       8.089   8.262  17.872  0.00  0.00    +0.000 C 
BRANCH  18  23
ATOM     20  C   UNL     1       9.752  13.163  17.857  0.00  0.00    +0.000 A 
ATOM     21  C   UNL     1       8.484  12.674  17.539  0.00  0.00    +0.000 A 
ATOM     22  C   UNL     1       8.138  11.346  17.823  0.00  0.00    +0.000 A 
ATOM     23  C   UNL     1       9.070  10.479  18.403  0.00  0.00    +0.000 A 
ATOM     24  C   UNL     1      10.340  10.982  18.719  0.00  0.00    +0.000 A 
ATOM     25  C   UNL     1      10.684  12.309  18.441  0.00  0.00    +0.000 A 
BRANCH  20  27
ATOM     26  C   UNL     1       8.975  15.395  17.948  0.00  0.00    +0.000 C 
ATOM     27  O   UNL     1       9.977  14.473  17.534  0.00  0.00    +0.000 OA
ENDBRANCH  20  27
ENDBRANCH  18  23
ENDBRANCH  17  19
ENDBRANCH   1  17
TORSDOF 6
ENDMDL
MODEL 3
REMARK VINA RESULT:      -8.7      0.948      1.889
REMARK  Name = 
REMARK  7 active torsions:
REMARK  status: ('A' for Active; 'I' for Inactive)
REMARK    1  A    between atoms: C_1  and  O_2
REMARK    2  A    between atoms: O_2  and  C_3
REMARK    3  A    between atoms: C_6  and  C_7
REMARK    4  A    between atoms: C_8  and  C_9
REMARK    5  A    between atoms: C_9  and  N_10
REMARK    6  A    between atoms: C_14  and  C_15
REMARK    7  A    between atoms: C_15  and  C_17
REMARK                            x       y       z     vdW  Elec       q    Type
REMARK                         _______ _______ _______ _____ _____    ______ ____
ROOT
ATOM      1  N   UNL     1       6.768   6.831  17.149  0.00  0.00    +0.000 NA
ATOM      2  C   UNL     1       7.120   5.556  16.498  0.00  0.00    +0.000 C 
ATOM      3  C   UNL     1       6.017   5.112  15.538  0.00  0.00    +0.000 C 
ATOM      4  C   UNL     1       4.690   4.951  16.266  0.00  0.00    +0.000 C 
ATOM      5  C   UNL     1       4.334   6.223  17.047  0.00  0.00    +0.000 C 
ATOM      6  C   UNL     1       5.517   6.686  17.918  0.00  0.00    +0.000 C 
ENDROOT
BRANCH   5   7
ATOM      7  C   UNL     1       3.131   5.962  17.952  0.00  0.00    +0.000 C 
ATOM      8  O   UNL     1       2.296   6.837  18.193  0.00  0.00    +0.000 OA
BRANCH   7   9
ATOM      9  C   UNL     1       2.855   4.600  18.480  0.00  0.00    +0.000 A 
ATOM     10  C   UNL     1       1.609   4.027  18.188  0.00  0.00    +0.000 A 
ATOM     11  C   UNL     1       1.298   2.759  18.669  0.00  0.00    +0.000 A 
ATOM     12  F   UNL     1       0.108   2.218  18.380  0.00  0.00    +0.000 F 
ATOM     13  C   UNL     1       2.203   2.046  19.446  0.00  0.00    +0.000 A 
ATOM     14  C   UNL     1       3.436   2.616  19.755  0.00  0.00    +0.000 A 
ATOM     15  C   UNL     1       3.753   3.891  19.279  0.00  0.00    +0.000 A 
ATOM     16  F   UNL     1       4.925   4.418  19.656  0.00  0.00    +0.000 F 
ENDBRANCH   7   9
ENDBRANCH   5   7
BRANCH   1  17
ATOM     17  C   UNL     1       7.856   7.299  18.029  0.00  0.00    +0.000 C 
BRANCH  17  19
ATOM     18  C   UNL     1       8.877   9.537  18.606  0.00  0.00    +0.000 C 
ATOM     19  C   UNL     1       8.202   8.737  17.763  0.00  0.00    +0.000 C 
BRANCH  18  23
ATOM     20  C   UNL     1      10.084  13.561  17.715  0.00  0.00    +0.000 A 
ATOM     21  C   UNL     1       8.742  13.186  17.637  0.00  0.00    +0.000 A 
ATOM     22  C   UNL     1       8.348  11.872  17.923  0.00  0.00    +0.000 A 
ATOM     23  C   UNL     1       9.301  10.905  18.263  0.00  0.00    +0.000 A 
ATOM     24  C   UNL     1      10.645  11.294  18.341  0.00  0.00    +0.000 A 
ATOM     25  C   UNL     1      11.038  12.607  18.060  0.00  0.00    +0.000 A 
BRANCH  20  27
ATOM     26  C   UNL     1       9.390  15.816  17.867  0.00  0.00    +0.000 C 
ATOM     27  O   UNL     1      10.350  14.868  17.413  0.00  0.00    +0.000 OA
ENDBRANCH  20  27
ENDBRANCH  18  23
ENDBRANCH  17  19
ENDBRANCH   1  17
TORSDOF 6
ENDMDL
MODEL 4
REMARK VINA RESULT:      -8.6      1.701      2.144
REMARK  Name = 
REMARK  7 active torsions:
REMARK  status: ('A' for Active; 'I' for Inactive)
REMARK    1  A    between atoms: C_1  and  O_2
REMARK    2  A    between atoms: O_2  and  C_3
REMARK    3  A    between atoms: C_6  and  C_7
REMARK    4  A    between atoms: C_8  and  C_9
REMARK    5  A    between atoms: C_9  and  N_10
REMARK    6  A    between atoms: C_14  and  C_15
REMARK    7  A    between atoms: C_15  and  C_17
REMARK                            x       y       z     vdW  Elec       q    Type
REMARK                         _______ _______ _______ _____ _____    ______ ____
ROOT
ATOM      1  N   UNL     1       6.750   7.011  17.859  0.00  0.00    +0.000 NA
ATOM      2  C   UNL     1       6.751   6.752  16.408  0.00  0.00    +0.000 C 
ATOM      3  C   UNL     1       5.353   6.372  15.922  0.00  0.00    +0.000 C 
ATOM      4  C   UNL     1       4.837   5.138  16.649  0.00  0.00    +0.000 C 
ATOM      5  C   UNL     1       4.918   5.323  18.171  0.00  0.00    +0.000 C 
ATOM      6  C   UNL     1       6.317   5.807  18.595  0.00  0.00    +0.000 C 
ENDROOT
BRANCH   5   7
ATOM      7  C   UNL     1       4.622   4.000  18.875  0.00  0.00    +0.000 C 
ATOM      8  O   UNL     1       5.506   3.350  19.438  0.00  0.00    +0.000 OA
BRANCH   7   9
ATOM      9  C   UNL     1       3.227   3.505  19.012  0.00  0.00    +0.000 A 
ATOM     10  C   UNL     1       2.329   4.282  19.758  0.00  0.00    +0.000 A 
ATOM     11  C   UNL     1       1.015   3.856  19.925  0.00  0.00    +0.000 A 
ATOM     12  F   UNL     1       0.163   4.607  20.634  0.00  0.00    +0.000 F 
ATOM     13  C   UNL     1       0.573   2.662  19.369  0.00  0.00    +0.000 A 
ATOM     14  C   UNL     1       1.465   1.875  18.643  0.00  0.00    +0.000 A 
ATOM     15  C   UNL     1       2.786   2.294  18.474  0.00  0.00    +0.000 A 
ATOM     16  F   UNL     1       3.618   1.474  17.820  0.00  0.00    +0.000 F 
ENDBRANCH   7   9
ENDBRANCH   5   7
BRANCH   1  17
ATOM     17  C   UNL     1       8.083   7.441  18.325  0.00  0.00    +0.000 C 
BRANCH  17  19
ATOM     18  C   UNL     1       9.167   9.693  18.696  0.00  0.00    +0.000 C 
ATOM     19  C   UNL     1       8.340   8.887  18.008  0.00  0.00    +0.000 C 
BRANCH  18  23
ATOM     20  C   UNL     1      10.093  13.744  17.613  0.00  0.00    +0.000 A 
ATOM     21  C   UNL     1       8.777  13.360  17.878  0.00  0.00    +0.000 A 
ATOM     22  C   UNL     1       8.474  12.038  18.227  0.00  0.00    +0.000 A 
ATOM     23  C   UNL     1       9.484  11.071  18.285  0.00  0.00    +0.000 A 
ATOM     24  C   UNL     1      10.801  11.468  18.019  0.00  0.00    +0.000 A 
ATOM     25  C   UNL     1      11.105  12.790  17.675  0.00  0.00    +0.000 A 
BRANCH  20  27
ATOM     26  C   UNL     1      11.463  15.665  17.763  0.00  0.00    +0.000 C 
ATOM     27  O   UNL     1      10.268  15.060  17.282  0.00  0.00    +0.000 OA
ENDBRANCH  20  27
ENDBRANCH  18  23
ENDBRANCH  17  19
ENDBRANCH   1  17
TORSDOF 6
ENDMDL
MODEL 5
REMARK VINA RESULT:      -8.4      4.321      6.732
REMARK  Name = 
REMARK  7 active torsions:
REMARK  status: ('A' for Active; 'I' for Inactive)
REMARK    1  A    between atoms: C_1  and  O_2
REMARK    2  A    between atoms: O_2  and  C_3
REMARK    3  A    between atoms: C_6  and  C_7
REMARK    4  A    between atoms: C_8  and  C_9
REMARK    5  A    between atoms: C_9  and  N_10
REMARK    6  A    between atoms: C_14  and  C_15
REMARK    7  A    between atoms: C_15  and  C_17
REMARK                            x       y       z     vdW  Elec       q    Type
REMARK                         _______ _______ _______ _____ _____    ______ ____
ROOT
ATOM      1  N   UNL     1       2.583   3.984  19.936  0.00  0.00    +0.000 NA
ATOM      2  C   UNL     1       1.393   3.496  19.216  0.00  0.00    +0.000 C 
ATOM      3  C   UNL     1       1.768   2.391  18.229  0.00  0.00    +0.000 C 
ATOM      4  C   UNL     1       2.795   2.885  17.219  0.00  0.00    +0.000 C 
ATOM      5  C   UNL     1       4.009   3.502  17.927  0.00  0.00    +0.000 C 
ATOM      6  C   UNL     1       3.569   4.531  18.984  0.00  0.00    +0.000 C 
ENDROOT
BRANCH   5   7
ATOM      7  C   UNL     1       4.910   4.198  16.908  0.00  0.00    +0.000 C 
ATOM      8  O   UNL     1       4.773   4.026  15.695  0.00  0.00    +0.000 OA
BRANCH   7   9
ATOM      9  C   UNL     1       5.912   5.208  17.340  0.00  0.00    +0.000 A 
ATOM     10  C   UNL     1       6.857   4.820  18.301  0.00  0.00    +0.000 A 
ATOM     11  C   UNL     1       7.809   5.731  18.746  0.00  0.00    +0.000 A 
ATOM     12  F   UNL     1       8.710   5.351  19.660  0.00  0.00    +0.000 F 
ATOM     13  C   UNL     1       7.839   7.032  18.257  0.00  0.00    +0.000 A 
ATOM     14  C   UNL     1       6.892   7.429  17.315  0.00  0.00    +0.000 A 
ATOM     15  C   UNL     1       5.931   6.521  16.867  0.00  0.00    +0.000 A 
ATOM     16  F   UNL     1       5.007   6.970  16.008  0.00  0.00    +0.000 F 
ENDBRANCH   7   9
ENDBRANCH   5   7
BRANCH   1  17
ATOM     17  C   UNL     1       2.219   5.006  20.937  0.00  0.00    +0.000 C 
BRANCH  17  19
ATOM     18  C   UNL     1       1.292   7.350  20.765  0.00  0.00    +0.000 C 
ATOM     19  C   UNL     1       2.092   6.367  20.315  0.00  0.00    +0.000 C 
BRANCH  18  23
ATOM     20  C   UNL     1       1.153  11.295  19.074  0.00  0.00    +0.000 A 
ATOM     21  C   UNL     1       1.547  10.201  18.300  0.00  0.00    +0.000 A 
ATOM     22  C   UNL     1       1.596   8.914  18.853  0.00  0.00    +0.000 A 
ATOM     23  C   UNL     1       1.282   8.710  20.200  0.00  0.00    +0.000 A 
ATOM     24  C   UNL     1       0.886   9.815  20.967  0.00  0.00    +0.000 A 
ATOM     25  C   UNL     1       0.831  11.098  20.414  0.00  0.00    +0.000 A 
BRANCH  20  27
ATOM     26  C   UNL     1       2.393  13.181  18.368  0.00  0.00    +0.000 C 
ATOM     27  O   UNL     1       1.144  12.501  18.428  0.00  0.00    +0.000 OA
ENDBRANCH  20  27
ENDBRANCH  18  23
ENDBRANCH  17  19
ENDBRANCH   1  17
TORSDOF 6
ENDMDL
MODEL 6
REMARK VINA RESULT:      -8.4      1.610      1.767
REMARK  Name = 
REMARK  7 active torsions:
REMARK  status: ('A' for Active; 'I' for Inactive)
REMARK    1  A    between atoms: C_1  and  O_2
REMARK    2  A    between atoms: O_2  and  C_3
REMARK    3  A    between atoms: C_6  and  C_7
REMARK    4  A    between atoms: C_8  and  C_9
REMARK    5  A    between atoms: C_9  and  N_10
REMARK    6  A    between atoms: C_14  and  C_15
REMARK    7  A    between atoms: C_15  and  C_17
REMARK                            x       y       z     vdW  Elec       q    Type
REMARK                         _______ _______ _______ _____ _____    ______ ____
ROOT
ATOM      1  N   UNL     1       6.701   6.951  17.883  0.00  0.00    +0.000 NA
ATOM      2  C   UNL     1       6.523   6.788  16.429  0.00  0.00    +0.000 C 
ATOM      3  C   UNL     1       5.065   6.485  16.088  0.00  0.00    +0.000 C 
ATOM      4  C   UNL     1       4.590   5.222  16.793  0.00  0.00    +0.000 C 
ATOM      5  C   UNL     1       4.855   5.303  18.303  0.00  0.00    +0.000 C 
ATOM      6  C   UNL     1       6.311   5.714  18.588  0.00  0.00    +0.000 C 
ENDROOT
BRANCH   5   7
ATOM      7  C   UNL     1       4.591   3.946  18.953  0.00  0.00    +0.000 C 
ATOM      8  O   UNL     1       5.510   3.231  19.362  0.00  0.00    +0.000 OA
BRANCH   7   9
ATOM      9  C   UNL     1       3.205   3.487  19.228  0.00  0.00    +0.000 A 
ATOM     10  C   UNL     1       2.794   3.418  20.568  0.00  0.00    +0.000 A 
ATOM     11  C   UNL     1       1.509   2.984  20.879  0.00  0.00    +0.000 A 
ATOM     12  F   UNL     1       1.124   2.927  22.160  0.00  0.00    +0.000 F 
ATOM     13  C   UNL     1       0.619   2.609  19.880  0.00  0.00    +0.000 A 
ATOM     14  C   UNL     1       1.026   2.658  18.549  0.00  0.00    +0.000 A 
ATOM     15  C   UNL     1       2.316   3.088  18.229  0.00  0.00    +0.000 A 
ATOM     16  F   UNL     1       2.677   3.059  16.940  0.00  0.00    +0.000 F 
ENDBRANCH   7   9
ENDBRANCH   5   7
BRANCH   1  17
ATOM     17  C   UNL     1       8.095   7.307  18.214  0.00  0.00    +0.000 C 
BRANCH  17  19
ATOM     18  C   UNL     1       9.085   9.468  19.070  0.00  0.00    +0.000 C 
ATOM     19  C   UNL     1       8.299   8.796  18.211  0.00  0.00    +0.000 C 
BRANCH  18  23
ATOM     20  C   UNL     1       9.977  13.654  18.715  0.00  0.00    +0.000 A 
ATOM     21  C   UNL     1      10.418  12.923  19.819  0.00  0.00    +0.000 A 
ATOM     22  C   UNL     1      10.124  11.558  19.937  0.00  0.00    +0.000 A 
ATOM     23  C   UNL     1       9.354  10.912  18.963  0.00  0.00    +0.000 A 
ATOM     24  C   UNL     1       8.918  11.656  17.858  0.00  0.00    +0.000 A 
ATOM     25  C   UNL     1       9.217  13.017  17.737  0.00  0.00    +0.000 A 
BRANCH  20  27
ATOM     26  C   UNL     1       9.575  15.818  19.579  0.00  0.00    +0.000 C 
ATOM     27  O   UNL     1      10.323  14.977  18.707  0.00  0.00    +0.000 OA
ENDBRANCH  20  27
ENDBRANCH  18  23
ENDBRANCH  17  19
ENDBRANCH   1  17
TORSDOF 6
ENDMDL
MODEL 7
REMARK VINA RESULT:      -8.4      1.972      3.208
REMARK  Name = 
REMARK  7 active torsions:
REMARK  status: ('A' for Active; 'I' for Inactive)
REMARK    1  A    between atoms: C_1  and  O_2
REMARK    2  A    between atoms: O_2  and  C_3
REMARK    3  A    between atoms: C_6  and  C_7
REMARK    4  A    between atoms: C_8  and  C_9
REMARK    5  A    between atoms: C_9  and  N_10
REMARK    6  A    between atoms: C_14  and  C_15
REMARK    7  A    between atoms: C_15  and  C_17
REMARK                            x       y       z     vdW  Elec       q    Type
REMARK                         _______ _______ _______ _____ _____    ______ ____
ROOT
ATOM      1  N   UNL     1       6.956   6.575  17.316  0.00  0.00    +0.000 NA
ATOM      2  C   UNL     1       7.420   5.271  16.808  0.00  0.00    +0.000 C 
ATOM      3  C   UNL     1       6.465   4.728  15.746  0.00  0.00    +0.000 C 
ATOM      4  C   UNL     1       5.057   4.574  16.304  0.00  0.00    +0.000 C 
ATOM      5  C   UNL     1       4.572   5.884  16.941  0.00  0.00    +0.000 C 
ATOM      6  C   UNL     1       5.618   6.441  17.924  0.00  0.00    +0.000 C 
ENDROOT
BRANCH   5   7
ATOM      7  C   UNL     1       3.266   5.645  17.696  0.00  0.00    +0.000 C 
ATOM      8  O   UNL     1       2.758   4.524  17.780  0.00  0.00    +0.000 OA
BRANCH   7   9
ATOM      9  C   UNL     1       2.617   6.740  18.465  0.00  0.00    +0.000 A 
ATOM     10  C   UNL     1       2.410   7.963  17.810  0.00  0.00    +0.000 A 
ATOM     11  C   UNL     1       1.817   9.022  18.489  0.00  0.00    +0.000 A 
ATOM     12  F   UNL     1       1.619  10.184  17.855  0.00  0.00    +0.000 F 
ATOM     13  C   UNL     1       1.428   8.894  19.817  0.00  0.00    +0.000 A 
ATOM     14  C   UNL     1       1.647   7.688  20.479  0.00  0.00    +0.000 A 
ATOM     15  C   UNL     1       2.246   6.621  19.805  0.00  0.00    +0.000 A 
ATOM     16  F   UNL     1       2.489   5.505  20.503  0.00  0.00    +0.000 F 
ENDBRANCH   7   9
ENDBRANCH   5   7
BRANCH   1  17
ATOM     17  C   UNL     1       7.907   7.135  18.296  0.00  0.00    +0.000 C 
BRANCH  17  19
ATOM     18  C   UNL     1       8.905   9.399  18.808  0.00  0.00    +0.000 C 
ATOM     19  C   UNL     1       8.232   8.570  17.992  0.00  0.00    +0.000 C 
BRANCH  18  23
ATOM     20  C   UNL     1      10.028  13.418  17.796  0.00  0.00    +0.000 A 
ATOM     21  C   UNL     1       8.756  12.935  17.487  0.00  0.00    +0.000 A 
ATOM     22  C   UNL     1       8.390  11.622  17.813  0.00  0.00    +0.000 A 
ATOM     23  C   UNL     1       9.308  10.763  18.428  0.00  0.00    +0.000 A 
ATOM     24  C   UNL     1      10.582  11.260  18.736  0.00  0.00    +0.000 A 
ATOM     25  C   UNL     1      10.945  12.573  18.415  0.00  0.00    +0.000 A 
BRANCH  20  27
ATOM     26  C   UNL     1       9.511  15.704  18.113  0.00  0.00    +0.000 C 
ATOM     27  O   UNL     1      10.272  14.713  17.430  0.00  0.00    +0.000 OA
ENDBRANCH  20  27
ENDBRANCH  18  23
ENDBRANCH  17  19
ENDBRANCH   1  17
TORSDOF 6
ENDMDL
MODEL 8
REMARK VINA RESULT:      -8.4      1.585      1.969
REMARK  Name = 
REMARK  7 active torsions:
REMARK  status: ('A' for Active; 'I' for Inactive)
REMARK    1  A    between atoms: C_1  and  O_2
REMARK    2  A    between atoms: O_2  and  C_3
REMARK    3  A    between atoms: C_6  and  C_7
REMARK    4  A    between atoms: C_8  and  C_9
REMARK    5  A    between atoms: C_9  and  N_10
REMARK    6  A    between atoms: C_14  and  C_15
REMARK    7  A    between atoms: C_15  and  C_17
REMARK                            x       y       z     vdW  Elec       q    Type
REMARK                         _______ _______ _______ _____ _____    ______ ____
ROOT
ATOM      1  N   UNL     1       6.759   6.498  17.718  0.00  0.00    +0.000 NA
ATOM      2  C   UNL     1       6.928   5.960  16.356  0.00  0.00    +0.000 C 
ATOM      3  C   UNL     1       5.593   5.477  15.792  0.00  0.00    +0.000 C 
ATOM      4  C   UNL     1       4.980   4.403  16.680  0.00  0.00    +0.000 C 
ATOM      5  C   UNL     1       4.883   4.883  18.135  0.00  0.00    +0.000 C 
ATOM      6  C   UNL     1       6.228   5.456  18.618  0.00  0.00    +0.000 C 
ENDROOT
BRANCH   5   7
ATOM      7  C   UNL     1       4.489   3.720  19.043  0.00  0.00    +0.000 C 
ATOM      8  O   UNL     1       5.334   3.035  19.626  0.00  0.00    +0.000 OA
BRANCH   7   9
ATOM      9  C   UNL     1       3.062   3.444  19.356  0.00  0.00    +0.000 A 
ATOM     10  C   UNL     1       2.739   3.098  20.677  0.00  0.00    +0.000 A 
ATOM     11  C   UNL     1       1.419   2.820  21.018  0.00  0.00    +0.000 A 
ATOM     12  F   UNL     1       1.119   2.496  22.282  0.00  0.00    +0.000 F 
ATOM     13  C   UNL     1       0.407   2.873  20.067  0.00  0.00    +0.000 A 
ATOM     14  C   UNL     1       0.724   3.199  18.750  0.00  0.00    +0.000 A 
ATOM     15  C   UNL     1       2.047   3.475  18.399  0.00  0.00    +0.000 A 
ATOM     16  F   UNL     1       2.307   3.722  17.109  0.00  0.00    +0.000 F 
ENDBRANCH   7   9
ENDBRANCH   5   7
BRANCH   1  17
ATOM     17  C   UNL     1       8.034   7.025  18.245  0.00  0.00    +0.000 C 
BRANCH  17  19
ATOM     18  C   UNL     1       9.007   9.301  18.751  0.00  0.00    +0.000 C 
ATOM     19  C   UNL     1       8.098   8.522  18.139  0.00  0.00    +0.000 C 
BRANCH  18  23
ATOM     20  C   UNL     1       9.222  13.552  18.181  0.00  0.00    +0.000 A 
ATOM     21  C   UNL     1       8.309  12.781  17.459  0.00  0.00    +0.000 A 
ATOM     22  C   UNL     1       8.241  11.393  17.641  0.00  0.00    +0.000 A 
ATOM     23  C   UNL     1       9.112  10.753  18.530  0.00  0.00    +0.000 A 
ATOM     24  C   UNL     1      10.023  11.536  19.251  0.00  0.00    +0.000 A 
ATOM     25  C   UNL     1      10.087  12.923  19.073  0.00  0.00    +0.000 A 
BRANCH  20  27
ATOM     26  C   UNL     1      10.337  15.630  18.353  0.00  0.00    +0.000 C 
ATOM     27  O   UNL     1       9.198  14.894  17.919  0.00  0.00    +0.000 OA
ENDBRANCH  20  27
ENDBRANCH  18  23
ENDBRANCH  17  19
ENDBRANCH   1  17
TORSDOF 6
ENDMDL
MODEL 9
REMARK VINA RESULT:      -8.4      1.780      2.544
REMARK  Name = 
REMARK  7 active torsions:
REMARK  status: ('A' for Active; 'I' for Inactive)
REMARK    1  A    between atoms: C_1  and  O_2
REMARK    2  A    between atoms: O_2  and  C_3
REMARK    3  A    between atoms: C_6  and  C_7
REMARK    4  A    between atoms: C_8  and  C_9
REMARK    5  A    between atoms: C_9  and  N_10
REMARK    6  A    between atoms: C_14  and  C_15
REMARK    7  A    between atoms: C_15  and  C_17
REMARK                            x       y       z     vdW  Elec       q    Type
REMARK                         _______ _______ _______ _____ _____    ______ ____
ROOT
ATOM      1  N   UNL     1       6.631   5.690  17.461  0.00  0.00    +0.000 NA
ATOM      2  C   UNL     1       7.167   5.126  16.209  0.00  0.00    +0.000 C 
ATOM      3  C   UNL     1       6.126   5.189  15.093  0.00  0.00    +0.000 C 
ATOM      4  C   UNL     1       4.863   4.433  15.480  0.00  0.00    +0.000 C 
ATOM      5  C   UNL     1       4.327   4.916  16.835  0.00  0.00    +0.000 C 
ATOM      6  C   UNL     1       5.442   4.933  17.896  0.00  0.00    +0.000 C 
ENDROOT
BRANCH   5   7
ATOM      7  C   UNL     1       3.207   3.994  17.313  0.00  0.00    +0.000 C 
ATOM      8  O   UNL     1       2.656   3.192  16.555  0.00  0.00    +0.000 OA
BRANCH   7   9
ATOM      9  C   UNL     1       2.819   3.944  18.747  0.00  0.00    +0.000 A 
ATOM     10  C   UNL     1       2.178   5.067  19.290  0.00  0.00    +0.000 A 
ATOM     11  C   UNL     1       1.805   5.074  20.630  0.00  0.00    +0.000 A 
ATOM     12  F   UNL     1       1.188   6.148  21.138  0.00  0.00    +0.000 F 
ATOM     13  C   UNL     1       2.063   3.982  21.451  0.00  0.00    +0.000 A 
ATOM     14  C   UNL     1       2.716   2.871  20.923  0.00  0.00    +0.000 A 
ATOM     15  C   UNL     1       3.098   2.858  19.580  0.00  0.00    +0.000 A 
ATOM     16  F   UNL     1       3.776   1.792  19.138  0.00  0.00    +0.000 F 
ENDBRANCH   7   9
ENDBRANCH   5   7
BRANCH   1  17
ATOM     17  C   UNL     1       7.653   5.692  18.526  0.00  0.00    +0.000 C 
BRANCH  17  19
ATOM     18  C   UNL     1       8.005   8.125  17.944  0.00  0.00    +0.000 C 
ATOM     19  C   UNL     1       8.228   7.063  18.738  0.00  0.00    +0.000 C 
BRANCH  18  23
ATOM     20  C   UNL     1       9.312  12.106  18.884  0.00  0.00    +0.000 A 
ATOM     21  C   UNL     1       8.528  11.861  17.755  0.00  0.00    +0.000 A 
ATOM     22  C   UNL     1       8.104  10.562  17.446  0.00  0.00    +0.000 A 
ATOM     23  C   UNL     1       8.489   9.482  18.248  0.00  0.00    +0.000 A 
ATOM     24  C   UNL     1       9.275   9.739  19.380  0.00  0.00    +0.000 A 
ATOM     25  C   UNL     1       9.693  11.037  19.692  0.00  0.00    +0.000 A 
BRANCH  20  27
ATOM     26  C   UNL     1      10.377  13.683  20.287  0.00  0.00    +0.000 C 
ATOM     27  O   UNL     1       9.666  13.412  19.085  0.00  0.00    +0.000 OA
ENDBRANCH  20  27
ENDBRANCH  18  23
ENDBRANCH  17  19
ENDBRANCH   1  17
TORSDOF 6
ENDMDL
