MODEL 1
REMARK VINA RESULT:      -9.4      0.000      0.000
REMARK  Name = 
REMARK  7 active torsions:
REMARK  status: ('A' for Active; 'I' for Inactive)
REMARK    1  A    between atoms: C_1  and  C_2
REMARK    2  A    between atoms: C_5  and  O_6
REMARK    3  A    between atoms: C_7  and  C_8
REMARK    4  A    between atoms: C_7  and  C_9
REMARK    5  A    between atoms: C_17  and  C_18
REMARK    6  A    between atoms: C_19  and  C_20
REMARK    7  A    between atoms: C_23  and  C_24
REMARK                            x       y       z     vdW  Elec       q    Type
REMARK                         _______ _______ _______ _____ _____    ______ ____
ROOT
ATOM      1  C   UNL     1       4.608   5.479  19.445  0.00  0.00    +0.000 C 
ATOM      2  C   UNL     1       3.954   5.593  18.040  0.00  0.00    +0.000 C 
ATOM      3  C   UNL     1       4.281   6.959  17.381  0.00  0.00    +0.000 C 
ATOM      4  C   UNL     1       5.642   7.094  16.705  0.00  0.00    +0.000 C 
ATOM      5  C   UNL     1       6.097   5.882  15.891  0.00  0.00    +0.000 C 
ATOM      6  C   UNL     1       5.941   4.533  16.641  0.00  0.00    +0.000 C 
ATOM      7  C   UNL     1       7.009   4.426  17.748  0.00  0.00    +0.000 C 
ATOM      8  C   UNL     1       4.423   4.432  17.076  0.00  0.00    +0.000 C 
ATOM      9  C   UNL     1       3.971   3.043  17.580  0.00  0.00    +0.000 C 
ATOM     10  C   UNL     1       2.475   2.978  17.914  0.00  0.00    +0.000 C 
ATOM     11  C   UNL     1       2.047   4.120  18.786  0.00  0.00    +0.000 C 
ATOM     12  C   UNL     1       1.795   3.870  20.264  0.00  0.00    +0.000 C 
ATOM     13  O   UNL     1       0.724   3.957  19.317  0.00  0.00    +0.000 OA
ATOM     14  C   UNL     1       2.368   5.511  18.243  0.00  0.00    +0.000 C 
ENDROOT
BRANCH   5  15
ATOM     15  O   UNL     1       7.453   6.095  15.481  0.00  0.00    +0.000 OA
ATOM     16  H   UNL     1       7.492   6.895  14.926  0.00  0.00    +0.000 HD
ENDBRANCH   5  15
BRANCH   6  17
ATOM     17  C   UNL     1       6.318   3.415  15.658  0.00  0.00    +0.000 C 
ATOM     18  O   UNL     1       6.268   3.528  14.437  0.00  0.00    +0.000 OA
ENDBRANCH   6  17
BRANCH  14  19
ATOM     19  C   UNL     1       1.843   6.683  19.085  0.00  0.00    +0.000 C 
ATOM     20  C   UNL     1       1.968   8.000  18.825  0.00  0.00    +0.000 C 
BRANCH  20  21
ATOM     21  C   UNL     1       1.338   8.975  19.731  0.00  0.00    +0.000 A 
ATOM     22  C   UNL     1       0.827   8.595  20.981  0.00  0.00    +0.000 A 
ATOM     23  C   UNL     1       0.169   9.527  21.793  0.00  0.00    +0.000 A 
ATOM     24  C   UNL     1      -0.022  10.853  21.379  0.00  0.00    +0.000 A 
ATOM     25  C   UNL     1       0.509  11.195  20.127  0.00  0.00    +0.000 A 
ATOM     26  N   UNL     1       1.195  10.297  19.309  0.00  0.00    +0.000 N 
ATOM     27  O   UNL     1       1.656  10.719  18.197  0.00  0.00    +0.000 OA
BRANCH  24  28
ATOM     28  C   UNL     1      -0.748  11.852  22.201  0.00  0.00    +0.000 A 
ATOM     29  C   UNL     1      -0.316  13.195  22.279  0.00  0.00    +0.000 A 
ATOM     30  C   UNL     1      -1.001  14.149  23.041  0.00  0.00    +0.000 A 
ATOM     31  C   UNL     1      -2.142  13.789  23.747  0.00  0.00    +0.000 A 
ATOM     32  C   UNL     1      -2.579  12.476  23.687  0.00  0.00    +0.000 A 
ATOM     33  F   UNL     1      -3.673  12.120  24.375  0.00  0.00    +0.000 F 
ATOM     34  C   UNL     1      -1.905  11.520  22.928  0.00  0.00    +0.000 A 
ENDBRANCH  24  28
ENDBRANCH  20  21
ENDBRANCH  14  19
TORSDOF 5
ENDMDL
MODEL 2
REMARK VINA RESULT:      -9.1      0.855      1.194
REMARK  Name = 
REMARK  7 active torsions:
REMARK  status: ('A' for Active; 'I' for Inactive)
REMARK    1  A    between atoms: C_1  and  C_2
REMARK    2  A    between atoms: C_5  and  O_6
REMARK    3  A    between atoms: C_7  and  C_8
REMARK    4  A    between atoms: C_7  and  C_9
REMARK    5  A    between atoms: C_17  and  C_18
REMARK    6  A    between atoms: C_19  and  C_20
REMARK    7  A    between atoms: C_23  and  C_24
REMARK                            x       y       z     vdW  Elec       q    Type
REMARK                         _______ _______ _______ _____ _____    ______ ____
ROOT
ATOM      1  C   UNL     1       4.660   5.532  19.425  0.00  0.00    +0.000 C 
ATOM      2  C   UNL     1       3.983   5.620  18.028  0.00  0.00    +0.000 C 
ATOM      3  C   UNL     1       4.300   6.973  17.339  0.00  0.00    +0.000 C 
ATOM      4  C   UNL     1       5.649   7.095  16.638  0.00  0.00    +0.000 C 
ATOM      5  C   UNL     1       6.091   5.868  15.839  0.00  0.00    +0.000 C 
ATOM      6  C   UNL     1       5.947   4.534  16.617  0.00  0.00    +0.000 C 
ATOM      7  C   UNL     1       7.033   4.447  17.708  0.00  0.00    +0.000 C 
ATOM      8  C   UNL     1       4.437   4.442  17.078  0.00  0.00    +0.000 C 
ATOM      9  C   UNL     1       3.992   3.062  17.616  0.00  0.00    +0.000 C 
ATOM     10  C   UNL     1       2.503   3.004  17.975  0.00  0.00    +0.000 C 
ATOM     11  C   UNL     1       2.089   4.162  18.833  0.00  0.00    +0.000 C 
ATOM     12  C   UNL     1       1.860   3.939  20.318  0.00  0.00    +0.000 C 
ATOM     13  O   UNL     1       0.774   4.010  19.387  0.00  0.00    +0.000 OA
ATOM     14  C   UNL     1       2.401   5.543  18.259  0.00  0.00    +0.000 C 
ENDROOT
BRANCH   5  15
ATOM     15  O   UNL     1       7.440   6.073  15.404  0.00  0.00    +0.000 OA
ATOM     16  H   UNL     1       7.625   5.472  14.660  0.00  0.00    +0.000 HD
ENDBRANCH   5  15
BRANCH   6  17
ATOM     17  C   UNL     1       6.308   3.398  15.649  0.00  0.00    +0.000 C 
ATOM     18  O   UNL     1       6.308   3.510  14.427  0.00  0.00    +0.000 OA
ENDBRANCH   6  17
BRANCH  14  19
ATOM     19  C   UNL     1       1.890   6.730  19.086  0.00  0.00    +0.000 C 
ATOM     20  C   UNL     1       1.916   8.036  18.751  0.00  0.00    +0.000 C 
BRANCH  20  21
ATOM     21  C   UNL     1       1.317   9.025  19.662  0.00  0.00    +0.000 A 
ATOM     22  C   UNL     1       0.747   8.647  20.887  0.00  0.00    +0.000 A 
ATOM     23  C   UNL     1       0.120   9.597  21.703  0.00  0.00    +0.000 A 
ATOM     24  C   UNL     1       0.021  10.941  21.317  0.00  0.00    +0.000 A 
ATOM     25  C   UNL     1       0.609  11.281  20.091  0.00  0.00    +0.000 A 
ATOM     26  N   UNL     1       1.266  10.363  19.270  0.00  0.00    +0.000 N 
ATOM     27  O   UNL     1       1.785  10.783  18.184  0.00  0.00    +0.000 OA
BRANCH  24  28
ATOM     28  C   UNL     1      -0.669  11.963  22.143  0.00  0.00    +0.000 A 
ATOM     29  C   UNL     1      -1.806  11.640  22.917  0.00  0.00    +0.000 A 
ATOM     30  C   UNL     1      -2.457  12.593  23.709  0.00  0.00    +0.000 A 
ATOM     31  C   UNL     1      -1.989  13.899  23.754  0.00  0.00    +0.000 A 
ATOM     32  C   UNL     1      -0.878  14.238  22.998  0.00  0.00    +0.000 A 
ATOM     33  F   UNL     1      -0.427  15.501  23.029  0.00  0.00    +0.000 F 
ATOM     34  C   UNL     1      -0.221  13.295  22.209  0.00  0.00    +0.000 A 
ENDBRANCH  24  28
ENDBRANCH  20  21
ENDBRANCH  14  19
TORSDOF 5
ENDMDL
MODEL 3
REMARK VINA RESULT:      -8.4      0.934      1.145
REMARK  Name = 
REMARK  7 active torsions:
REMARK  status: ('A' for Active; 'I' for Inactive)
REMARK    1  A    between atoms: C_1  and  C_2
REMARK    2  A    between atoms: C_5  and  O_6
REMARK    3  A    between atoms: C_7  and  C_8
REMARK    4  A    between atoms: C_7  and  C_9
REMARK    5  A    between atoms: C_17  and  C_18
REMARK    6  A    between atoms: C_19  and  C_20
REMARK    7  A    between atoms: C_23  and  C_24
REMARK                            x       y       z     vdW  Elec       q    Type
REMARK                         _______ _______ _______ _____ _____    ______ ____
ROOT
ATOM      1  C   UNL     1       4.488   5.511  19.313  0.00  0.00    +0.000 C 
ATOM      2  C   UNL     1       3.962   5.629  17.855  0.00  0.00    +0.000 C 
ATOM      3  C   UNL     1       4.323   7.007  17.242  0.00  0.00    +0.000 C 
ATOM      4  C   UNL     1       5.737   7.172  16.693  0.00  0.00    +0.000 C 
ATOM      5  C   UNL     1       6.286   5.977  15.912  0.00  0.00    +0.000 C 
ATOM      6  C   UNL     1       6.085   4.618  16.633  0.00  0.00    +0.000 C 
ATOM      7  C   UNL     1       7.051   4.517  17.831  0.00  0.00    +0.000 C 
ATOM      8  C   UNL     1       4.537   4.487  16.927  0.00  0.00    +0.000 C 
ATOM      9  C   UNL     1       4.065   3.085  17.375  0.00  0.00    +0.000 C 
ATOM     10  C   UNL     1       2.547   2.992  17.571  0.00  0.00    +0.000 C 
ATOM     11  C   UNL     1       2.021   4.117  18.411  0.00  0.00    +0.000 C 
ATOM     12  C   UNL     1       1.640   3.846  19.857  0.00  0.00    +0.000 C 
ATOM     13  O   UNL     1       0.658   3.926  18.818  0.00  0.00    +0.000 OA
ATOM     14  C   UNL     1       2.366   5.519  17.913  0.00  0.00    +0.000 C 
ENDROOT
BRANCH   5  15
ATOM     15  O   UNL     1       7.669   6.217  15.630  0.00  0.00    +0.000 OA
ATOM     16  H   UNL     1       8.036   5.440  15.170  0.00  0.00    +0.000 HD
ENDBRANCH   5  15
BRANCH   6  17
ATOM     17  C   UNL     1       6.570   3.517  15.677  0.00  0.00    +0.000 C 
ATOM     18  O   UNL     1       6.436   3.557  14.458  0.00  0.00    +0.000 OA
ENDBRANCH   6  17
BRANCH  14  19
ATOM     19  C   UNL     1       1.746   6.672  18.714  0.00  0.00    +0.000 C 
ATOM     20  C   UNL     1       2.014   7.989  18.598  0.00  0.00    +0.000 C 
BRANCH  20  21
ATOM     21  C   UNL     1       1.265   8.952  19.422  0.00  0.00    +0.000 A 
ATOM     22  C   UNL     1       0.634  10.070  18.856  0.00  0.00    +0.000 A 
ATOM     23  C   UNL     1      -0.011  11.009  19.670  0.00  0.00    +0.000 A 
ATOM     24  C   UNL     1      -0.028  10.879  21.066  0.00  0.00    +0.000 A 
ATOM     25  C   UNL     1       0.607   9.745  21.592  0.00  0.00    +0.000 A 
ATOM     26  N   UNL     1       1.232   8.777  20.806  0.00  0.00    +0.000 N 
ATOM     27  O   UNL     1       1.762   7.773  21.386  0.00  0.00    +0.000 OA
BRANCH  24  28
ATOM     28  C   UNL     1      -0.671  11.877  21.956  0.00  0.00    +0.000 A 
ATOM     29  C   UNL     1      -0.170  13.193  22.071  0.00  0.00    +0.000 A 
ATOM     30  C   UNL     1      -0.776  14.146  22.898  0.00  0.00    +0.000 A 
ATOM     31  C   UNL     1      -1.906  13.813  23.634  0.00  0.00    +0.000 A 
ATOM     32  C   UNL     1      -2.412  12.526  23.538  0.00  0.00    +0.000 A 
ATOM     33  F   UNL     1      -3.496  12.195  24.253  0.00  0.00    +0.000 F 
ATOM     34  C   UNL     1      -1.816  11.571  22.714  0.00  0.00    +0.000 A 
ENDBRANCH  24  28
ENDBRANCH  20  21
ENDBRANCH  14  19
TORSDOF 5
ENDMDL
MODEL 4
REMARK VINA RESULT:      -8.3      3.860     11.162
REMARK  Name = 
REMARK  7 active torsions:
REMARK  status: ('A' for Active; 'I' for Inactive)
REMARK    1  A    between atoms: C_1  and  C_2
REMARK    2  A    between atoms: C_5  and  O_6
REMARK    3  A    between atoms: C_7  and  C_8
REMARK    4  A    between atoms: C_7  and  C_9
REMARK    5  A    between atoms: C_17  and  C_18
REMARK    6  A    between atoms: C_19  and  C_20
REMARK    7  A    between atoms: C_23  and  C_24
REMARK                            x       y       z     vdW  Elec       q    Type
REMARK                         _______ _______ _______ _____ _____    ______ ____
ROOT
ATOM      1  C   UNL     1      -0.298  13.704  22.633  0.00  0.00    +0.000 C 
ATOM      2  C   UNL     1      -1.639  13.428  21.895  0.00  0.00    +0.000 C 
ATOM      3  C   UNL     1      -2.248  12.071  22.335  0.00  0.00    +0.000 C 
ATOM      4  C   UNL     1      -3.024  12.052  23.648  0.00  0.00    +0.000 C 
ATOM      5  C   UNL     1      -3.935  13.255  23.893  0.00  0.00    +0.000 C 
ATOM      6  C   UNL     1      -3.247  14.621  23.631  0.00  0.00    +0.000 C 
ATOM      7  C   UNL     1      -2.238  14.919  24.758  0.00  0.00    +0.000 C 
ATOM      8  C   UNL     1      -2.697  14.572  22.149  0.00  0.00    +0.000 C 
ATOM      9  C   UNL     1      -2.233  15.929  21.572  0.00  0.00    +0.000 C 
ATOM     10  C   UNL     1      -1.783  15.841  20.108  0.00  0.00    +0.000 C 
ATOM     11  C   UNL     1      -0.820  14.714  19.886  0.00  0.00    +0.000 C 
ATOM     12  C   UNL     1       0.658  15.025  19.715  0.00  0.00    +0.000 C 
ATOM     13  O   UNL     1      -0.194  14.755  18.595  0.00  0.00    +0.000 OA
ATOM     14  C   UNL     1      -1.312  13.338  20.331  0.00  0.00    +0.000 C 
ENDROOT
BRANCH   5  15
ATOM     15  O   UNL     1      -4.441  13.175  25.230  0.00  0.00    +0.000 OA
ATOM     16  H   UNL     1      -5.220  13.755  25.307  0.00  0.00    +0.000 HD
ENDBRANCH   5  15
BRANCH   6  17
ATOM     17  C   UNL     1      -4.316  15.711  23.798  0.00  0.00    +0.000 C 
ATOM     18  O   UNL     1      -5.520  15.521  23.656  0.00  0.00    +0.000 OA
ENDBRANCH   6  17
BRANCH  14  19
ATOM     19  C   UNL     1      -0.370  12.168  20.014  0.00  0.00    +0.000 C 
ATOM     20  C   UNL     1      -0.711  10.903  19.695  0.00  0.00    +0.000 C 
BRANCH  20  21
ATOM     21  C   UNL     1       0.346   9.934  19.364  0.00  0.00    +0.000 A 
ATOM     22  C   UNL     1       0.862   9.823  18.064  0.00  0.00    +0.000 A 
ATOM     23  C   UNL     1       1.816   8.844  17.759  0.00  0.00    +0.000 A 
ATOM     24  C   UNL     1       2.267   7.935  18.727  0.00  0.00    +0.000 A 
ATOM     25  C   UNL     1       1.733   8.083  20.015  0.00  0.00    +0.000 A 
ATOM     26  N   UNL     1       0.804   9.066  20.356  0.00  0.00    +0.000 N 
ATOM     27  O   UNL     1       0.398   9.125  21.563  0.00  0.00    +0.000 OA
BRANCH  24  28
ATOM     28  C   UNL     1       3.249   6.865  18.424  0.00  0.00    +0.000 A 
ATOM     29  C   UNL     1       4.115   6.951  17.311  0.00  0.00    +0.000 A 
ATOM     30  C   UNL     1       5.053   5.953  17.024  0.00  0.00    +0.000 A 
ATOM     31  C   UNL     1       5.157   4.837  17.845  0.00  0.00    +0.000 A 
ATOM     32  C   UNL     1       4.315   4.731  18.939  0.00  0.00    +0.000 A 
ATOM     33  F   UNL     1       4.402   3.651  19.730  0.00  0.00    +0.000 F 
ATOM     34  C   UNL     1       3.379   5.722  19.235  0.00  0.00    +0.000 A 
ENDBRANCH  24  28
ENDBRANCH  20  21
ENDBRANCH  14  19
TORSDOF 5
ENDMDL
MODEL 5
REMARK VINA RESULT:      -8.1      3.968     11.252
REMARK  Name = 
REMARK  7 active torsions:
REMARK  status: ('A' for Active; 'I' for Inactive)
REMARK    1  A    between atoms: C_1  and  C_2
REMARK    2  A    between atoms: C_5  and  O_6
REMARK    3  A    between atoms: C_7  and  C_8
REMARK    4  A    between atoms: C_7  and  C_9
REMARK    5  A    between atoms: C_17  and  C_18
REMARK    6  A    between atoms: C_19  and  C_20
REMARK    7  A    between atoms: C_23  and  C_24
REMARK                            x       y       z     vdW  Elec       q    Type
REMARK                         _______ _______ _______ _____ _____    ______ ____
ROOT
ATOM      1  C   UNL     1      -0.226  13.731  22.540  0.00  0.00    +0.000 C 
ATOM      2  C   UNL     1      -1.581  13.488  21.818  0.00  0.00    +0.000 C 
ATOM      3  C   UNL     1      -2.200  12.128  22.236  0.00  0.00    +0.000 C 
ATOM      4  C   UNL     1      -2.955  12.088  23.561  0.00  0.00    +0.000 C 
ATOM      5  C   UNL     1      -3.847  13.296  23.849  0.00  0.00    +0.000 C 
ATOM      6  C   UNL     1      -3.147  14.659  23.608  0.00  0.00    +0.000 C 
ATOM      7  C   UNL     1      -2.115  14.919  24.724  0.00  0.00    +0.000 C 
ATOM      8  C   UNL     1      -2.621  14.639  22.116  0.00  0.00    +0.000 C 
ATOM      9  C   UNL     1      -2.149  16.003  21.562  0.00  0.00    +0.000 C 
ATOM     10  C   UNL     1      -1.724  15.944  20.090  0.00  0.00    +0.000 C 
ATOM     11  C   UNL     1      -0.779  14.810  19.826  0.00  0.00    +0.000 C 
ATOM     12  C   UNL     1       0.699  15.108  19.638  0.00  0.00    +0.000 C 
ATOM     13  O   UNL     1      -0.173  14.875  18.526  0.00  0.00    +0.000 OA
ATOM     14  C   UNL     1      -1.281  13.431  20.247  0.00  0.00    +0.000 C 
ENDROOT
BRANCH   5  15
ATOM     15  O   UNL     1      -4.332  13.191  25.192  0.00  0.00    +0.000 OA
ATOM     16  H   UNL     1      -3.825  12.501  25.657  0.00  0.00    +0.000 HD
ENDBRANCH   5  15
BRANCH   6  17
ATOM     17  C   UNL     1      -4.199  15.759  23.817  0.00  0.00    +0.000 C 
ATOM     18  O   UNL     1      -5.372  15.542  24.105  0.00  0.00    +0.000 OA
ENDBRANCH   6  17
BRANCH  14  19
ATOM     19  C   UNL     1      -0.359  12.257  19.887  0.00  0.00    +0.000 C 
ATOM     20  C   UNL     1      -0.612  10.941  20.031  0.00  0.00    +0.000 C 
BRANCH  20  21
ATOM     21  C   UNL     1       0.384   9.961  19.568  0.00  0.00    +0.000 A 
ATOM     22  C   UNL     1       0.841   9.947  18.242  0.00  0.00    +0.000 A 
ATOM     23  C   UNL     1       1.735   8.960  17.809  0.00  0.00    +0.000 A 
ATOM     24  C   UNL     1       2.182   7.948  18.670  0.00  0.00    +0.000 A 
ATOM     25  C   UNL     1       1.708   8.001  19.989  0.00  0.00    +0.000 A 
ATOM     26  N   UNL     1       0.841   8.988  20.458  0.00  0.00    +0.000 N 
ATOM     27  O   UNL     1       0.488   8.954  21.682  0.00  0.00    +0.000 OA
BRANCH  24  28
ATOM     28  C   UNL     1       3.099   6.868  18.230  0.00  0.00    +0.000 A 
ATOM     29  C   UNL     1       2.995   5.557  18.746  0.00  0.00    +0.000 A 
ATOM     30  C   UNL     1       3.847   4.528  18.328  0.00  0.00    +0.000 A 
ATOM     31  C   UNL     1       4.829   4.778  17.378  0.00  0.00    +0.000 A 
ATOM     32  C   UNL     1       4.950   6.058  16.862  0.00  0.00    +0.000 A 
ATOM     33  F   UNL     1       5.902   6.309  15.952  0.00  0.00    +0.000 F 
ATOM     34  C   UNL     1       4.104   7.088  17.270  0.00  0.00    +0.000 A 
ENDBRANCH  24  28
ENDBRANCH  20  21
ENDBRANCH  14  19
TORSDOF 5
ENDMDL
MODEL 6
REMARK VINA RESULT:      -8.0      3.967     10.413
REMARK  Name = 
REMARK  7 active torsions:
REMARK  status: ('A' for Active; 'I' for Inactive)
REMARK    1  A    between atoms: C_1  and  C_2
REMARK    2  A    between atoms: C_5  and  O_6
REMARK    3  A    between atoms: C_7  and  C_8
REMARK    4  A    between atoms: C_7  and  C_9
REMARK    5  A    between atoms: C_17  and  C_18
REMARK    6  A    between atoms: C_19  and  C_20
REMARK    7  A    between atoms: C_23  and  C_24
REMARK                            x       y       z     vdW  Elec       q    Type
REMARK                         _______ _______ _______ _____ _____    ______ ____
ROOT
ATOM      1  C   UNL     1       0.151  13.111  18.481  0.00  0.00    +0.000 C 
ATOM      2  C   UNL     1      -0.290  12.583  19.875  0.00  0.00    +0.000 C 
ATOM      3  C   UNL     1       0.888  12.620  20.883  0.00  0.00    +0.000 C 
ATOM      4  C   UNL     1       1.194  13.961  21.542  0.00  0.00    +0.000 C 
ATOM      5  C   UNL     1      -0.025  14.778  21.974  0.00  0.00    +0.000 C 
ATOM      6  C   UNL     1      -1.117  14.892  20.879  0.00  0.00    +0.000 C 
ATOM      7  C   UNL     1      -0.640  15.845  19.765  0.00  0.00    +0.000 C 
ATOM      8  C   UNL     1      -1.497  13.414  20.465  0.00  0.00    +0.000 C 
ATOM      9  C   UNL     1      -2.772  13.276  19.600  0.00  0.00    +0.000 C 
ATOM     10  C   UNL     1      -3.139  11.819  19.292  0.00  0.00    +0.000 C 
ATOM     11  C   UNL     1      -1.962  11.041  18.785  0.00  0.00    +0.000 C 
ATOM     12  C   UNL     1      -1.869  10.722  17.302  0.00  0.00    +0.000 C 
ATOM     13  O   UNL     1      -2.323   9.756  18.257  0.00  0.00    +0.000 OA
ATOM     14  C   UNL     1      -0.731  11.055  19.689  0.00  0.00    +0.000 C 
ENDROOT
BRANCH   5  15
ATOM     15  O   UNL     1       0.423  16.070  22.399  0.00  0.00    +0.000 OA
ATOM     16  H   UNL     1       1.286  16.255  21.987  0.00  0.00    +0.000 HD
ENDBRANCH   5  15
BRANCH   6  17
ATOM     17  C   UNL     1      -2.315  15.625  21.502  0.00  0.00    +0.000 C 
ATOM     18  O   UNL     1      -2.581  15.614  22.700  0.00  0.00    +0.000 OA
ENDBRANCH   6  17
BRANCH  14  19
ATOM     19  C   UNL     1       0.439  10.180  19.221  0.00  0.00    +0.000 C 
ATOM     20  C   UNL     1       0.775   8.952  19.667  0.00  0.00    +0.000 C 
BRANCH  20  21
ATOM     21  C   UNL     1       1.905   8.244  19.045  0.00  0.00    +0.000 A 
ATOM     22  C   UNL     1       2.528   8.729  17.884  0.00  0.00    +0.000 A 
ATOM     23  C   UNL     1       3.554   8.000  17.271  0.00  0.00    +0.000 A 
ATOM     24  C   UNL     1       3.975   6.762  17.776  0.00  0.00    +0.000 A 
ATOM     25  C   UNL     1       3.333   6.315  18.940  0.00  0.00    +0.000 A 
ATOM     26  N   UNL     1       2.329   7.032  19.590  0.00  0.00    +0.000 N 
ATOM     27  O   UNL     1       1.826   6.543  20.655  0.00  0.00    +0.000 OA
BRANCH  24  28
ATOM     28  C   UNL     1       5.033   5.950  17.127  0.00  0.00    +0.000 A 
ATOM     29  C   UNL     1       4.995   5.656  15.745  0.00  0.00    +0.000 A 
ATOM     30  C   UNL     1       5.994   4.902  15.121  0.00  0.00    +0.000 A 
ATOM     31  C   UNL     1       7.067   4.419  15.859  0.00  0.00    +0.000 A 
ATOM     32  C   UNL     1       7.123   4.692  17.216  0.00  0.00    +0.000 A 
ATOM     33  F   UNL     1       8.150   4.220  17.936  0.00  0.00    +0.000 F 
ATOM     34  C   UNL     1       6.133   5.445  17.846  0.00  0.00    +0.000 A 
ENDBRANCH  24  28
ENDBRANCH  20  21
ENDBRANCH  14  19
TORSDOF 5
ENDMDL
MODEL 7
REMARK VINA RESULT:      -7.9      1.308      1.696
REMARK  Name = 
REMARK  7 active torsions:
REMARK  status: ('A' for Active; 'I' for Inactive)
REMARK    1  A    between atoms: C_1  and  C_2
REMARK    2  A    between atoms: C_5  and  O_6
REMARK    3  A    between atoms: C_7  and  C_8
REMARK    4  A    between atoms: C_7  and  C_9
REMARK    5  A    between atoms: C_17  and  C_18
REMARK    6  A    between atoms: C_19  and  C_20
REMARK    7  A    between atoms: C_23  and  C_24
REMARK                            x       y       z     vdW  Elec       q    Type
REMARK                         _______ _______ _______ _____ _____    ______ ____
ROOT
ATOM      1  C   UNL     1       4.508   5.510  19.211  0.00  0.00    +0.000 C 
ATOM      2  C   UNL     1       3.894   5.541  17.783  0.00  0.00    +0.000 C 
ATOM      3  C   UNL     1       4.188   6.892  17.079  0.00  0.00    +0.000 C 
ATOM      4  C   UNL     1       5.563   7.055  16.439  0.00  0.00    +0.000 C 
ATOM      5  C   UNL     1       6.092   5.831  15.689  0.00  0.00    +0.000 C 
ATOM      6  C   UNL     1       5.965   4.508  16.489  0.00  0.00    +0.000 C 
ATOM      7  C   UNL     1       7.001   4.489  17.630  0.00  0.00    +0.000 C 
ATOM      8  C   UNL     1       4.440   4.363  16.882  0.00  0.00    +0.000 C 
ATOM      9  C   UNL     1       4.027   2.977  17.429  0.00  0.00    +0.000 C 
ATOM     10  C   UNL     1       2.525   2.865  17.721  0.00  0.00    +0.000 C 
ATOM     11  C   UNL     1       2.025   4.023  18.532  0.00  0.00    +0.000 C 
ATOM     12  C   UNL     1       1.736   3.821  20.010  0.00  0.00    +0.000 C 
ATOM     13  O   UNL     1       0.693   3.827  19.029  0.00  0.00    +0.000 OA
ATOM     14  C   UNL     1       2.308   5.403  17.942  0.00  0.00    +0.000 C 
ENDROOT
BRANCH   5  15
ATOM     15  O   UNL     1       7.450   6.083  15.312  0.00  0.00    +0.000 OA
ATOM     16  H   UNL     1       7.571   5.822  14.381  0.00  0.00    +0.000 HD
ENDBRANCH   5  15
BRANCH   6  17
ATOM     17  C   UNL     1       6.416   3.368  15.564  0.00  0.00    +0.000 C 
ATOM     18  O   UNL     1       6.451   3.449  14.340  0.00  0.00    +0.000 OA
ENDBRANCH   6  17
BRANCH  14  19
ATOM     19  C   UNL     1       1.711   6.585  18.719  0.00  0.00    +0.000 C 
ATOM     20  C   UNL     1       2.221   7.826  18.844  0.00  0.00    +0.000 C 
BRANCH  20  21
ATOM     21  C   UNL     1       1.463   8.846  19.587  0.00  0.00    +0.000 A 
ATOM     22  C   UNL     1       1.086  10.060  18.993  0.00  0.00    +0.000 A 
ATOM     23  C   UNL     1       0.427  11.043  19.743  0.00  0.00    +0.000 A 
ATOM     24  C   UNL     1       0.146  10.859  21.104  0.00  0.00    +0.000 A 
ATOM     25  C   UNL     1       0.532   9.631  21.658  0.00  0.00    +0.000 A 
ATOM     26  N   UNL     1       1.163   8.621  20.931  0.00  0.00    +0.000 N 
ATOM     27  O   UNL     1       1.453   7.533  21.528  0.00  0.00    +0.000 OA
BRANCH  24  28
ATOM     28  C   UNL     1      -0.517  11.897  21.932  0.00  0.00    +0.000 A 
ATOM     29  C   UNL     1      -1.617  11.586  22.762  0.00  0.00    +0.000 A 
ATOM     30  C   UNL     1      -2.241  12.554  23.557  0.00  0.00    +0.000 A 
ATOM     31  C   UNL     1      -1.782  13.865  23.549  0.00  0.00    +0.000 A 
ATOM     32  C   UNL     1      -0.706  14.192  22.739  0.00  0.00    +0.000 A 
ATOM     33  F   UNL     1      -0.264  15.457  22.719  0.00  0.00    +0.000 F 
ATOM     34  C   UNL     1      -0.077  13.233  21.946  0.00  0.00    +0.000 A 
ENDBRANCH  24  28
ENDBRANCH  20  21
ENDBRANCH  14  19
TORSDOF 5
ENDMDL
MODEL 8
REMARK VINA RESULT:      -7.8      4.025     10.454
REMARK  Name = 
REMARK  7 active torsions:
REMARK  status: ('A' for Active; 'I' for Inactive)
REMARK    1  A    between atoms: C_1  and  C_2
REMARK    2  A    between atoms: C_5  and  O_6
REMARK    3  A    between atoms: C_7  and  C_8
REMARK    4  A    between atoms: C_7  and  C_9
REMARK    5  A    between atoms: C_17  and  C_18
REMARK    6  A    between atoms: C_19  and  C_20
REMARK    7  A    between atoms: C_23  and  C_24
REMARK                            x       y       z     vdW  Elec       q    Type
REMARK                         _______ _______ _______ _____ _____    ______ ____
ROOT
ATOM      1  C   UNL     1      -0.598  12.867  18.917  0.00  0.00    +0.000 C 
ATOM      2  C   UNL     1      -1.307  11.982  19.981  0.00  0.00    +0.000 C 
ATOM      3  C   UNL     1      -0.386  11.738  21.205  0.00  0.00    +0.000 C 
ATOM      4  C   UNL     1      -0.311  12.848  22.249  0.00  0.00    +0.000 C 
ATOM      5  C   UNL     1      -1.640  13.523  22.591  0.00  0.00    +0.000 C 
ATOM      6  C   UNL     1      -2.467  13.936  21.345  0.00  0.00    +0.000 C 
ATOM      7  C   UNL     1      -1.809  15.154  20.665  0.00  0.00    +0.000 C 
ATOM      8  C   UNL     1      -2.660  12.629  20.477  0.00  0.00    +0.000 C 
ATOM      9  C   UNL     1      -3.700  12.738  19.339  0.00  0.00    +0.000 C 
ATOM     10  C   UNL     1      -3.907  11.422  18.579  0.00  0.00    +0.000 C 
ATOM     11  C   UNL     1      -2.604  10.804  18.167  0.00  0.00    +0.000 C 
ATOM     12  C   UNL     1      -2.166  10.899  16.715  0.00  0.00    +0.000 C 
ATOM     13  O   UNL     1      -2.765   9.713  17.249  0.00  0.00    +0.000 OA
ATOM     14  C   UNL     1      -1.608  10.565  19.300  0.00  0.00    +0.000 C 
ENDROOT
BRANCH   5  15
ATOM     15  O   UNL     1      -1.372  14.648  23.434  0.00  0.00    +0.000 OA
ATOM     16  H   UNL     1      -1.545  15.466  22.933  0.00  0.00    +0.000 HD
ENDBRANCH   5  15
BRANCH   6  17
ATOM     17  C   UNL     1      -3.812  14.480  21.848  0.00  0.00    +0.000 C 
ATOM     18  O   UNL     1      -3.948  15.555  22.423  0.00  0.00    +0.000 OA
ENDBRANCH   6  17
BRANCH  14  19
ATOM     19  C   UNL     1      -0.315   9.843  18.897  0.00  0.00    +0.000 C 
ATOM     20  C   UNL     1       0.519   9.146  19.696  0.00  0.00    +0.000 C 
BRANCH  20  21
ATOM     21  C   UNL     1       1.685   8.470  19.105  0.00  0.00    +0.000 A 
ATOM     22  C   UNL     1       2.291   8.941  17.930  0.00  0.00    +0.000 A 
ATOM     23  C   UNL     1       3.354   8.240  17.349  0.00  0.00    +0.000 A 
ATOM     24  C   UNL     1       3.831   7.043  17.901  0.00  0.00    +0.000 A 
ATOM     25  C   UNL     1       3.204   6.609  19.079  0.00  0.00    +0.000 A 
ATOM     26  N   UNL     1       2.163   7.301  19.697  0.00  0.00    +0.000 N 
ATOM     27  O   UNL     1       1.678   6.829  20.778  0.00  0.00    +0.000 OA
BRANCH  24  28
ATOM     28  C   UNL     1       4.930   6.258  17.287  0.00  0.00    +0.000 A 
ATOM     29  C   UNL     1       4.981   6.025  15.895  0.00  0.00    +0.000 A 
ATOM     30  C   UNL     1       6.020   5.297  15.304  0.00  0.00    +0.000 A 
ATOM     31  C   UNL     1       7.045   4.783  16.088  0.00  0.00    +0.000 A 
ATOM     32  C   UNL     1       7.012   4.997  17.456  0.00  0.00    +0.000 A 
ATOM     33  F   UNL     1       7.993   4.494  18.220  0.00  0.00    +0.000 F 
ATOM     34  C   UNL     1       5.982   5.723  18.053  0.00  0.00    +0.000 A 
ENDBRANCH  24  28
ENDBRANCH  20  21
ENDBRANCH  14  19
TORSDOF 5
ENDMDL
MODEL 9
REMARK VINA RESULT:      -7.8      3.562     10.745
REMARK  Name = 
REMARK  7 active torsions:
REMARK  status: ('A' for Active; 'I' for Inactive)
REMARK    1  A    between atoms: C_1  and  C_2
REMARK    2  A    between atoms: C_5  and  O_6
REMARK    3  A    between atoms: C_7  and  C_8
REMARK    4  A    between atoms: C_7  and  C_9
REMARK    5  A    between atoms: C_17  and  C_18
REMARK    6  A    between atoms: C_19  and  C_20
REMARK    7  A    between atoms: C_23  and  C_24
REMARK                            x       y       z     vdW  Elec       q    Type
REMARK                         _______ _______ _______ _____ _____    ______ ____
ROOT
ATOM      1  C   UNL     1      -0.781  13.071  22.618  0.00  0.00    +0.000 C 
ATOM      2  C   UNL     1      -1.365  13.383  21.211  0.00  0.00    +0.000 C 
ATOM      3  C   UNL     1      -2.567  12.458  20.889  0.00  0.00    +0.000 C 
ATOM      4  C   UNL     1      -3.918  12.845  21.482  0.00  0.00    +0.000 C 
ATOM      5  C   UNL     1      -4.251  14.337  21.448  0.00  0.00    +0.000 C 
ATOM      6  C   UNL     1      -3.099  15.243  21.957  0.00  0.00    +0.000 C 
ATOM      7  C   UNL     1      -2.975  15.115  23.489  0.00  0.00    +0.000 C 
ATOM      8  C   UNL     1      -1.827  14.889  21.087  0.00  0.00    +0.000 C 
ATOM      9  C   UNL     1      -0.641  15.871  21.218  0.00  0.00    +0.000 C 
ATOM     10  C   UNL     1       0.535  15.526  20.296  0.00  0.00    +0.000 C 
ATOM     11  C   UNL     1       0.918  14.080  20.396  0.00  0.00    +0.000 C 
ATOM     12  C   UNL     1       2.168  13.696  21.171  0.00  0.00    +0.000 C 
ATOM     13  O   UNL     1       2.160  13.781  19.741  0.00  0.00    +0.000 OA
ATOM     14  C   UNL     1      -0.214  13.086  20.139  0.00  0.00    +0.000 C 
ENDROOT
BRANCH   5  15
ATOM     15  O   UNL     1      -5.451  14.551  22.199  0.00  0.00    +0.000 OA
ATOM     16  H   UNL     1      -6.175  14.763  21.581  0.00  0.00    +0.000 HD
ENDBRANCH   5  15
BRANCH   6  17
ATOM     17  C   UNL     1      -3.535  16.701  21.745  0.00  0.00    +0.000 C 
ATOM     18  O   UNL     1      -4.429  17.046  20.978  0.00  0.00    +0.000 OA
ENDBRANCH   6  17
BRANCH  14  19
ATOM     19  C   UNL     1       0.197  11.607  20.142  0.00  0.00    +0.000 C 
ATOM     20  C   UNL     1       0.865  10.939  19.180  0.00  0.00    +0.000 C 
BRANCH  20  21
ATOM     21  C   UNL     1       1.220   9.527  19.397  0.00  0.00    +0.000 A 
ATOM     22  C   UNL     1       0.954   8.881  20.614  0.00  0.00    +0.000 A 
ATOM     23  C   UNL     1       1.366   7.559  20.821  0.00  0.00    +0.000 A 
ATOM     24  C   UNL     1       2.072   6.850  19.839  0.00  0.00    +0.000 A 
ATOM     25  C   UNL     1       2.312   7.528  18.636  0.00  0.00    +0.000 A 
ATOM     26  N   UNL     1       1.889   8.834  18.389  0.00  0.00    +0.000 N 
ATOM     27  O   UNL     1       2.142   9.349  17.250  0.00  0.00    +0.000 OA
BRANCH  24  28
ATOM     28  C   UNL     1       2.554   5.461  20.044  0.00  0.00    +0.000 A 
ATOM     29  C   UNL     1       3.704   4.975  19.383  0.00  0.00    +0.000 A 
ATOM     30  C   UNL     1       4.174   3.671  19.578  0.00  0.00    +0.000 A 
ATOM     31  C   UNL     1       3.510   2.813  20.445  0.00  0.00    +0.000 A 
ATOM     32  C   UNL     1       2.377   3.269  21.100  0.00  0.00    +0.000 A 
ATOM     33  F   UNL     1       1.725   2.442  21.930  0.00  0.00    +0.000 F 
ATOM     34  C   UNL     1       1.903   4.567  20.914  0.00  0.00    +0.000 A 
ENDBRANCH  24  28
ENDBRANCH  20  21
ENDBRANCH  14  19
TORSDOF 5
ENDMDL
