MODEL 1
REMARK VINA RESULT:      -8.4      0.000      0.000
REMARK  Name = 
REMARK  5 active torsions:
REMARK  status: ('A' for Active; 'I' for Inactive)
REMARK    1  A    between atoms: C_2  and  C_9
REMARK    2  A    between atoms: N_3  and  N_4
REMARK    3  A    between atoms: C_9  and  C_11
REMARK    4  A    between atoms: N_13  and  C_14
REMARK    5  A    between atoms: C_14  and  C_15
REMARK                            x       y       z     vdW  Elec       q    Type
REMARK                         _______ _______ _______ _____ _____    ______ ____
ROOT
ATOM      1  C   UNL     1       4.951   6.071  17.720  0.00  0.00    +0.000 A 
ATOM      2  C   UNL     1       4.314   7.300  17.704  0.00  0.00    +0.000 A 
ATOM      3  N   UNL     1       2.962   7.112  17.825  0.00  0.00    +0.000 N 
ATOM      4  C   UNL     1       2.682   5.767  17.922  0.00  0.00    +0.000 A 
ATOM      5  C   UNL     1       1.453   5.092  17.998  0.00  0.00    +0.000 A 
ATOM      6  C   UNL     1       1.467   3.699  18.057  0.00  0.00    +0.000 A 
ATOM      7  C   UNL     1       2.669   3.002  18.080  0.00  0.00    +0.000 A 
ATOM      8  C   UNL     1       3.892   3.683  18.010  0.00  0.00    +0.000 A 
ATOM      9  C   UNL     1       3.910   5.092  17.901  0.00  0.00    +0.000 A 
ENDROOT
BRANCH   1  10
ATOM     10  C   UNL     1       6.388   5.845  17.540  0.00  0.00    +0.000 C 
ATOM     11  O   UNL     1       7.230   6.175  18.382  0.00  0.00    +0.000 OA
BRANCH  10  13
ATOM     12  O   UNL     1       7.965   4.436  16.348  0.00  0.00    +0.000 OA
ATOM     13  C   UNL     1       6.947   5.109  16.297  0.00  0.00    +0.000 C 
ATOM     14  N   UNL     1       6.219   5.320  15.145  0.00  0.00    +0.000 N 
ATOM     15  H   UNL     1       5.385   5.895  15.147  0.00  0.00    +0.000 HD
BRANCH  14  16
ATOM     16  N   UNL     1       6.636   4.787  13.976  0.00  0.00    +0.000 N 
ATOM     17  C   UNL     1       6.093   3.707  13.360  0.00  0.00    +0.000 A 
ATOM     18  N   UNL     1       6.683   3.536  12.197  0.00  0.00    +0.000 NA
ATOM     19  N   UNL     1       7.632   4.535  12.057  0.00  0.00    +0.000 NA
ATOM     20  C   UNL     1       7.586   5.281  13.139  0.00  0.00    +0.000 A 
ENDBRANCH  14  16
ENDBRANCH  10  13
ENDBRANCH   1  10
BRANCH   3  21
ATOM     21  C   UNL     1       1.978   8.193  17.777  0.00  0.00    +0.000 C 
BRANCH  21  22
ATOM     22  C   UNL     1       1.571   8.603  19.172  0.00  0.00    +0.000 A 
ATOM     23  C   UNL     1       1.855   7.778  20.270  0.00  0.00    +0.000 A 
ATOM     24  C   UNL     1       1.364   8.096  21.538  0.00  0.00    +0.000 A 
ATOM     25  C   UNL     1       0.600   9.247  21.718  0.00  0.00    +0.000 A 
ATOM     26 CL   UNL     1      -0.061   9.603  23.266  0.00  0.00    +0.000 Cl
ATOM     27  C   UNL     1       0.355  10.104  20.650  0.00  0.00    +0.000 A 
ATOM     28  C   UNL     1       0.848   9.788  19.383  0.00  0.00    +0.000 A 
ENDBRANCH  21  22
ENDBRANCH   3  21
TORSDOF 5
ENDMDL
MODEL 2
REMARK VINA RESULT:      -8.3      4.273      8.439
REMARK  Name = 
REMARK  5 active torsions:
REMARK  status: ('A' for Active; 'I' for Inactive)
REMARK    1  A    between atoms: C_2  and  C_9
REMARK    2  A    between atoms: N_3  and  N_4
REMARK    3  A    between atoms: C_9  and  C_11
REMARK    4  A    between atoms: N_13  and  C_14
REMARK    5  A    between atoms: C_14  and  C_15
REMARK                            x       y       z     vdW  Elec       q    Type
REMARK                         _______ _______ _______ _____ _____    ______ ____
ROOT
ATOM      1  C   UNL     1       2.738   6.517  19.147  0.00  0.00    +0.000 A 
ATOM      2  C   UNL     1       4.009   6.332  18.633  0.00  0.00    +0.000 A 
ATOM      3  N   UNL     1       4.413   5.044  18.873  0.00  0.00    +0.000 N 
ATOM      4  C   UNL     1       3.424   4.360  19.545  0.00  0.00    +0.000 A 
ATOM      5  C   UNL     1       3.402   3.052  20.054  0.00  0.00    +0.000 A 
ATOM      6  C   UNL     1       2.259   2.625  20.730  0.00  0.00    +0.000 A 
ATOM      7  C   UNL     1       1.158   3.462  20.859  0.00  0.00    +0.000 A 
ATOM      8  C   UNL     1       1.185   4.765  20.343  0.00  0.00    +0.000 A 
ATOM      9  C   UNL     1       2.346   5.243  19.694  0.00  0.00    +0.000 A 
ENDROOT
BRANCH   1  10
ATOM     10  C   UNL     1       1.989   7.778  19.158  0.00  0.00    +0.000 C 
ATOM     11  O   UNL     1       1.668   8.376  18.125  0.00  0.00    +0.000 OA
BRANCH  10  13
ATOM     12  O   UNL     1       1.773   7.950  21.569  0.00  0.00    +0.000 OA
ATOM     13  C   UNL     1       1.487   8.415  20.477  0.00  0.00    +0.000 C 
ATOM     14  N   UNL     1       0.669   9.511  20.296  0.00  0.00    +0.000 N 
ATOM     15  H   UNL     1       0.450   9.856  19.369  0.00  0.00    +0.000 HD
BRANCH  14  16
ATOM     16  N   UNL     1       0.111  10.121  21.363  0.00  0.00    +0.000 N 
ATOM     17  C   UNL     1      -0.411   9.498  22.449  0.00  0.00    +0.000 A 
ATOM     18  N   UNL     1      -0.769  10.405  23.332  0.00  0.00    +0.000 NA
ATOM     19  N   UNL     1      -0.468  11.648  22.803  0.00  0.00    +0.000 NA
ATOM     20  C   UNL     1       0.066  11.457  21.616  0.00  0.00    +0.000 A 
ENDBRANCH  14  16
ENDBRANCH  10  13
ENDBRANCH   1  10
BRANCH   3  21
ATOM     21  C   UNL     1       5.735   4.523  18.525  0.00  0.00    +0.000 C 
BRANCH  21  22
ATOM     22  C   UNL     1       5.925   4.515  17.027  0.00  0.00    +0.000 A 
ATOM     23  C   UNL     1       4.947   3.963  16.187  0.00  0.00    +0.000 A 
ATOM     24  C   UNL     1       5.183   3.839  14.815  0.00  0.00    +0.000 A 
ATOM     25  C   UNL     1       6.390   4.280  14.276  0.00  0.00    +0.000 A 
ATOM     26 CL   UNL     1       6.708   4.065  12.599  0.00  0.00    +0.000 Cl
ATOM     27  C   UNL     1       7.348   4.878  15.088  0.00  0.00    +0.000 A 
ATOM     28  C   UNL     1       7.111   5.005  16.458  0.00  0.00    +0.000 A 
ENDBRANCH  21  22
ENDBRANCH   3  21
TORSDOF 5
ENDMDL
MODEL 3
REMARK VINA RESULT:      -8.1      4.330      8.487
REMARK  Name = 
REMARK  5 active torsions:
REMARK  status: ('A' for Active; 'I' for Inactive)
REMARK    1  A    between atoms: C_2  and  C_9
REMARK    2  A    between atoms: N_3  and  N_4
REMARK    3  A    between atoms: C_9  and  C_11
REMARK    4  A    between atoms: N_13  and  C_14
REMARK    5  A    between atoms: C_14  and  C_15
REMARK                            x       y       z     vdW  Elec       q    Type
REMARK                         _______ _______ _______ _____ _____    ______ ____
ROOT
ATOM      1  C   UNL     1       2.696   6.614  19.334  0.00  0.00    +0.000 A 
ATOM      2  C   UNL     1       4.013   6.482  18.932  0.00  0.00    +0.000 A 
ATOM      3  N   UNL     1       4.432   5.197  19.163  0.00  0.00    +0.000 N 
ATOM      4  C   UNL     1       3.406   4.463  19.716  0.00  0.00    +0.000 A 
ATOM      5  C   UNL     1       3.376   3.135  20.175  0.00  0.00    +0.000 A 
ATOM      6  C   UNL     1       2.190   2.654  20.727  0.00  0.00    +0.000 A 
ATOM      7  C   UNL     1       1.057   3.457  20.784  0.00  0.00    +0.000 A 
ATOM      8  C   UNL     1       1.093   4.778  20.319  0.00  0.00    +0.000 A 
ATOM      9  C   UNL     1       2.294   5.311  19.797  0.00  0.00    +0.000 A 
ENDROOT
BRANCH   1  10
ATOM     10  C   UNL     1       1.912   7.854  19.321  0.00  0.00    +0.000 C 
ATOM     11  O   UNL     1       1.546   8.405  18.277  0.00  0.00    +0.000 OA
BRANCH  10  13
ATOM     12  O   UNL     1       1.650   8.036  21.726  0.00  0.00    +0.000 OA
ATOM     13  C   UNL     1       1.430   8.526  20.629  0.00  0.00    +0.000 C 
ATOM     14  N   UNL     1       0.706   9.683  20.433  0.00  0.00    +0.000 N 
ATOM     15  H   UNL     1       0.538  10.048  19.502  0.00  0.00    +0.000 HD
BRANCH  14  16
ATOM     16  N   UNL     1       0.172  10.334  21.489  0.00  0.00    +0.000 N 
ATOM     17  C   UNL     1       0.110  11.680  21.642  0.00  0.00    +0.000 A 
ATOM     18  N   UNL     1      -0.566  11.956  22.735  0.00  0.00    +0.000 NA
ATOM     19  N   UNL     1      -0.953  10.755  23.305  0.00  0.00    +0.000 NA
ATOM     20  C   UNL     1      -0.501   9.787  22.537  0.00  0.00    +0.000 A 
ENDBRANCH  14  16
ENDBRANCH  10  13
ENDBRANCH   1  10
BRANCH   3  21
ATOM     21  C   UNL     1       5.794   4.724  18.919  0.00  0.00    +0.000 C 
BRANCH  21  22
ATOM     22  C   UNL     1       6.004   4.443  17.450  0.00  0.00    +0.000 A 
ATOM     23  C   UNL     1       7.178   4.859  16.806  0.00  0.00    +0.000 A 
ATOM     24  C   UNL     1       7.314   4.714  15.423  0.00  0.00    +0.000 A 
ATOM     25  C   UNL     1       6.283   4.142  14.681  0.00  0.00    +0.000 A 
ATOM     26 CL   UNL     1       6.421   4.027  12.970  0.00  0.00    +0.000 Cl
ATOM     27  C   UNL     1       5.134   3.677  15.312  0.00  0.00    +0.000 A 
ATOM     28  C   UNL     1       5.000   3.817  16.694  0.00  0.00    +0.000 A 
ENDBRANCH  21  22
ENDBRANCH   3  21
TORSDOF 5
ENDMDL
MODEL 4
REMARK VINA RESULT:      -8.0      1.544      2.064
REMARK  Name = 
REMARK  5 active torsions:
REMARK  status: ('A' for Active; 'I' for Inactive)
REMARK    1  A    between atoms: C_2  and  C_9
REMARK    2  A    between atoms: N_3  and  N_4
REMARK    3  A    between atoms: C_9  and  C_11
REMARK    4  A    between atoms: N_13  and  C_14
REMARK    5  A    between atoms: C_14  and  C_15
REMARK                            x       y       z     vdW  Elec       q    Type
REMARK                         _______ _______ _______ _____ _____    ______ ____
ROOT
ATOM      1  C   UNL     1       4.631   5.335  18.386  0.00  0.00    +0.000 A 
ATOM      2  C   UNL     1       4.047   6.197  19.298  0.00  0.00    +0.000 A 
ATOM      3  N   UNL     1       2.847   5.678  19.709  0.00  0.00    +0.000 N 
ATOM      4  C   UNL     1       2.619   4.473  19.083  0.00  0.00    +0.000 A 
ATOM      5  C   UNL     1       1.512   3.610  19.136  0.00  0.00    +0.000 A 
ATOM      6  C   UNL     1       1.538   2.453  18.360  0.00  0.00    +0.000 A 
ATOM      7  C   UNL     1       2.649   2.144  17.584  0.00  0.00    +0.000 A 
ATOM      8  C   UNL     1       3.752   3.007  17.540  0.00  0.00    +0.000 A 
ATOM      9  C   UNL     1       3.737   4.211  18.280  0.00  0.00    +0.000 A 
ENDROOT
BRANCH   1  10
ATOM     10  C   UNL     1       5.883   5.570  17.659  0.00  0.00    +0.000 C 
ATOM     11  O   UNL     1       6.974   5.699  18.227  0.00  0.00    +0.000 OA
BRANCH  10  13
ATOM     12  O   UNL     1       5.324   6.446  15.466  0.00  0.00    +0.000 OA
ATOM     13  C   UNL     1       5.932   5.607  16.112  0.00  0.00    +0.000 C 
ATOM     14  N   UNL     1       6.680   4.594  15.549  0.00  0.00    +0.000 N 
ATOM     15  H   UNL     1       7.160   3.912  16.125  0.00  0.00    +0.000 HD
BRANCH  14  16
ATOM     16  N   UNL     1       6.752   4.474  14.206  0.00  0.00    +0.000 N 
ATOM     17  C   UNL     1       7.653   5.092  13.403  0.00  0.00    +0.000 A 
ATOM     18  N   UNL     1       7.492   4.663  12.170  0.00  0.00    +0.000 NA
ATOM     19  N   UNL     1       6.460   3.741  12.178  0.00  0.00    +0.000 NA
ATOM     20  C   UNL     1       6.028   3.637  13.416  0.00  0.00    +0.000 A 
ENDBRANCH  14  16
ENDBRANCH  10  13
ENDBRANCH   1  10
BRANCH   3  21
ATOM     21  C   UNL     1       1.930   6.360  20.621  0.00  0.00    +0.000 C 
BRANCH  21  22
ATOM     22  C   UNL     1       1.678   7.776  20.160  0.00  0.00    +0.000 A 
ATOM     23  C   UNL     1       1.165   8.734  21.046  0.00  0.00    +0.000 A 
ATOM     24  C   UNL     1       0.812  10.005  20.586  0.00  0.00    +0.000 A 
ATOM     25  C   UNL     1       0.982  10.328  19.240  0.00  0.00    +0.000 A 
ATOM     26 CL   UNL     1       0.483  11.868  18.659  0.00  0.00    +0.000 Cl
ATOM     27  C   UNL     1       1.539   9.406  18.360  0.00  0.00    +0.000 A 
ATOM     28  C   UNL     1       1.896   8.138  18.821  0.00  0.00    +0.000 A 
ENDBRANCH  21  22
ENDBRANCH   3  21
TORSDOF 5
ENDMDL
MODEL 5
REMARK VINA RESULT:      -8.0      4.051      8.384
REMARK  Name = 
REMARK  5 active torsions:
REMARK  status: ('A' for Active; 'I' for Inactive)
REMARK    1  A    between atoms: C_2  and  C_9
REMARK    2  A    between atoms: N_3  and  N_4
REMARK    3  A    between atoms: C_9  and  C_11
REMARK    4  A    between atoms: N_13  and  C_14
REMARK    5  A    between atoms: C_14  and  C_15
REMARK                            x       y       z     vdW  Elec       q    Type
REMARK                         _______ _______ _______ _____ _____    ______ ____
ROOT
ATOM      1  C   UNL     1       2.984   6.279  18.239  0.00  0.00    +0.000 A 
ATOM      2  C   UNL     1       4.305   6.181  17.837  0.00  0.00    +0.000 A 
ATOM      3  N   UNL     1       4.665   4.860  17.778  0.00  0.00    +0.000 N 
ATOM      4  C   UNL     1       3.598   4.066  18.136  0.00  0.00    +0.000 A 
ATOM      5  C   UNL     1       3.503   2.673  18.284  0.00  0.00    +0.000 A 
ATOM      6  C   UNL     1       2.285   2.133  18.696  0.00  0.00    +0.000 A 
ATOM      7  C   UNL     1       1.185   2.952  18.915  0.00  0.00    +0.000 A 
ATOM      8  C   UNL     1       1.285   4.342  18.761  0.00  0.00    +0.000 A 
ATOM      9  C   UNL     1       2.519   4.924  18.390  0.00  0.00    +0.000 A 
ENDROOT
BRANCH   1  10
ATOM     10  C   UNL     1       2.252   7.523  18.494  0.00  0.00    +0.000 C 
ATOM     11  O   UNL     1       1.936   8.311  17.596  0.00  0.00    +0.000 OA
BRANCH  10  13
ATOM     12  O   UNL     1       1.957   7.182  20.879  0.00  0.00    +0.000 OA
ATOM     13  C   UNL     1       1.763   7.904  19.913  0.00  0.00    +0.000 C 
ATOM     14  N   UNL     1       1.065   9.092  19.967  0.00  0.00    +0.000 N 
ATOM     15  H   UNL     1       0.919   9.655  19.136  0.00  0.00    +0.000 HD
BRANCH  14  16
ATOM     16  N   UNL     1       0.529   9.508  21.134  0.00  0.00    +0.000 N 
ATOM     17  C   UNL     1       0.674  10.742  21.677  0.00  0.00    +0.000 A 
ATOM     18  N   UNL     1      -0.069  10.823  22.760  0.00  0.00    +0.000 NA
ATOM     19  N   UNL     1      -0.713   9.609  22.919  0.00  0.00    +0.000 NA
ATOM     20  C   UNL     1      -0.343   8.829  21.927  0.00  0.00    +0.000 A 
ENDBRANCH  14  16
ENDBRANCH  10  13
ENDBRANCH   1  10
BRANCH   3  21
ATOM     21  C   UNL     1       6.013   4.392  17.455  0.00  0.00    +0.000 C 
BRANCH  21  22
ATOM     22  C   UNL     1       6.256   4.463  15.966  0.00  0.00    +0.000 A 
ATOM     23  C   UNL     1       5.435   3.756  15.075  0.00  0.00    +0.000 A 
ATOM     24  C   UNL     1       5.740   3.718  13.712  0.00  0.00    +0.000 A 
ATOM     25  C   UNL     1       6.858   4.397  13.232  0.00  0.00    +0.000 A 
ATOM     26 CL   UNL     1       7.273   4.294  11.566  0.00  0.00    +0.000 Cl
ATOM     27  C   UNL     1       7.652   5.146  14.095  0.00  0.00    +0.000 A 
ATOM     28  C   UNL     1       7.346   5.187  15.456  0.00  0.00    +0.000 A 
ENDBRANCH  21  22
ENDBRANCH   3  21
TORSDOF 5
ENDMDL
MODEL 6
REMARK VINA RESULT:      -7.8      1.588      2.079
REMARK  Name = 
REMARK  5 active torsions:
REMARK  status: ('A' for Active; 'I' for Inactive)
REMARK    1  A    between atoms: C_2  and  C_9
REMARK    2  A    between atoms: N_3  and  N_4
REMARK    3  A    between atoms: C_9  and  C_11
REMARK    4  A    between atoms: N_13  and  C_14
REMARK    5  A    between atoms: C_14  and  C_15
REMARK                            x       y       z     vdW  Elec       q    Type
REMARK                         _______ _______ _______ _____ _____    ______ ____
ROOT
ATOM      1  C   UNL     1       4.559   5.653  18.233  0.00  0.00    +0.000 A 
ATOM      2  C   UNL     1       4.008   6.538  19.144  0.00  0.00    +0.000 A 
ATOM      3  N   UNL     1       2.804   6.050  19.580  0.00  0.00    +0.000 N 
ATOM      4  C   UNL     1       2.540   4.843  18.971  0.00  0.00    +0.000 A 
ATOM      5  C   UNL     1       1.415   4.006  19.051  0.00  0.00    +0.000 A 
ATOM      6  C   UNL     1       1.404   2.839  18.287  0.00  0.00    +0.000 A 
ATOM      7  C   UNL     1       2.495   2.498  17.499  0.00  0.00    +0.000 A 
ATOM      8  C   UNL     1       3.617   3.335  17.428  0.00  0.00    +0.000 A 
ATOM      9  C   UNL     1       3.639   4.548  18.154  0.00  0.00    +0.000 A 
ENDROOT
BRANCH   1  10
ATOM     10  C   UNL     1       5.805   5.853  17.486  0.00  0.00    +0.000 C 
ATOM     11  O   UNL     1       6.895   6.040  18.037  0.00  0.00    +0.000 OA
BRANCH  10  13
ATOM     12  O   UNL     1       5.242   6.567  15.236  0.00  0.00    +0.000 OA
ATOM     13  C   UNL     1       5.848   5.774  15.940  0.00  0.00    +0.000 C 
ATOM     14  N   UNL     1       6.586   4.716  15.451  0.00  0.00    +0.000 N 
ATOM     15  H   UNL     1       7.064   4.075  16.074  0.00  0.00    +0.000 HD
BRANCH  14  16
ATOM     16  N   UNL     1       6.652   4.496  14.121  0.00  0.00    +0.000 N 
ATOM     17  C   UNL     1       7.577   5.017  13.276  0.00  0.00    +0.000 A 
ATOM     18  N   UNL     1       7.397   4.506  12.078  0.00  0.00    +0.000 NA
ATOM     19  N   UNL     1       6.328   3.630  12.150  0.00  0.00    +0.000 NA
ATOM     20  C   UNL     1       5.893   3.634  13.392  0.00  0.00    +0.000 A 
ENDBRANCH  14  16
ENDBRANCH  10  13
ENDBRANCH   1  10
BRANCH   3  21
ATOM     21  C   UNL     1       1.916   6.762  20.498  0.00  0.00    +0.000 C 
BRANCH  21  22
ATOM     22  C   UNL     1       1.543   8.114  19.934  0.00  0.00    +0.000 A 
ATOM     23  C   UNL     1       1.806   8.424  18.592  0.00  0.00    +0.000 A 
ATOM     24  C   UNL     1       1.580   9.714  18.108  0.00  0.00    +0.000 A 
ATOM     25  C   UNL     1       1.078  10.697  18.960  0.00  0.00    +0.000 A 
ATOM     26 CL   UNL     1       0.865  12.303  18.383  0.00  0.00    +0.000 Cl
ATOM     27  C   UNL     1       0.763  10.391  20.280  0.00  0.00    +0.000 A 
ATOM     28  C   UNL     1       0.985   9.100  20.763  0.00  0.00    +0.000 A 
ENDBRANCH  21  22
ENDBRANCH   3  21
TORSDOF 5
ENDMDL
MODEL 7
REMARK VINA RESULT:      -7.8      3.653      7.598
REMARK  Name = 
REMARK  5 active torsions:
REMARK  status: ('A' for Active; 'I' for Inactive)
REMARK    1  A    between atoms: C_2  and  C_9
REMARK    2  A    between atoms: N_3  and  N_4
REMARK    3  A    between atoms: C_9  and  C_11
REMARK    4  A    between atoms: N_13  and  C_14
REMARK    5  A    between atoms: C_14  and  C_15
REMARK                            x       y       z     vdW  Elec       q    Type
REMARK                         _______ _______ _______ _____ _____    ______ ____
ROOT
ATOM      1  C   UNL     1       2.958   6.244  18.118  0.00  0.00    +0.000 A 
ATOM      2  C   UNL     1       4.298   6.340  17.786  0.00  0.00    +0.000 A 
ATOM      3  N   UNL     1       4.805   5.085  17.571  0.00  0.00    +0.000 N 
ATOM      4  C   UNL     1       3.817   4.143  17.755  0.00  0.00    +0.000 A 
ATOM      5  C   UNL     1       3.871   2.740  17.707  0.00  0.00    +0.000 A 
ATOM      6  C   UNL     1       2.703   2.025  17.970  0.00  0.00    +0.000 A 
ATOM      7  C   UNL     1       1.510   2.687  18.232  0.00  0.00    +0.000 A 
ATOM      8  C   UNL     1       1.463   4.087  18.272  0.00  0.00    +0.000 A 
ATOM      9  C   UNL     1       2.640   4.840  18.057  0.00  0.00    +0.000 A 
ENDROOT
BRANCH   1  10
ATOM     10  C   UNL     1       2.082   7.358  18.494  0.00  0.00    +0.000 C 
ATOM     11  O   UNL     1       1.606   8.145  17.669  0.00  0.00    +0.000 OA
BRANCH  10  13
ATOM     12  O   UNL     1       1.666   6.689  20.790  0.00  0.00    +0.000 OA
ATOM     13  C   UNL     1       1.637   7.584  19.960  0.00  0.00    +0.000 C 
ATOM     14  N   UNL     1       1.176   8.859  20.217  0.00  0.00    +0.000 N 
ATOM     15  H   UNL     1       1.160   9.568  19.493  0.00  0.00    +0.000 HD
BRANCH  14  16
ATOM     16  N   UNL     1       0.698   9.170  21.440  0.00  0.00    +0.000 N 
ATOM     17  C   UNL     1      -0.598   9.081  21.830  0.00  0.00    +0.000 A 
ATOM     18  N   UNL     1      -0.680   9.365  23.112  0.00  0.00    +0.000 NA
ATOM     19  N   UNL     1       0.599   9.643  23.563  0.00  0.00    +0.000 NA
ATOM     20  C   UNL     1       1.417   9.517  22.541  0.00  0.00    +0.000 A 
ENDBRANCH  14  16
ENDBRANCH  10  13
ENDBRANCH   1  10
BRANCH   3  21
ATOM     21  C   UNL     1       6.209   4.810  17.268  0.00  0.00    +0.000 C 
BRANCH  21  22
ATOM     22  C   UNL     1       7.077   5.980  17.668  0.00  0.00    +0.000 A 
ATOM     23  C   UNL     1       7.812   5.947  18.863  0.00  0.00    +0.000 A 
ATOM     24  C   UNL     1       8.510   7.078  19.293  0.00  0.00    +0.000 A 
ATOM     25  C   UNL     1       8.488   8.241  18.525  0.00  0.00    +0.000 A 
ATOM     26 CL   UNL     1       9.291   9.654  19.089  0.00  0.00    +0.000 Cl
ATOM     27  C   UNL     1       7.808   8.272  17.312  0.00  0.00    +0.000 A 
ATOM     28  C   UNL     1       7.114   7.141  16.879  0.00  0.00    +0.000 A 
ENDBRANCH  21  22
ENDBRANCH   3  21
TORSDOF 5
ENDMDL
MODEL 8
REMARK VINA RESULT:      -7.8      4.306      7.735
REMARK  Name = 
REMARK  5 active torsions:
REMARK  status: ('A' for Active; 'I' for Inactive)
REMARK    1  A    between atoms: C_2  and  C_9
REMARK    2  A    between atoms: N_3  and  N_4
REMARK    3  A    between atoms: C_9  and  C_11
REMARK    4  A    between atoms: N_13  and  C_14
REMARK    5  A    between atoms: C_14  and  C_15
REMARK                            x       y       z     vdW  Elec       q    Type
REMARK                         _______ _______ _______ _____ _____    ______ ____
ROOT
ATOM      1  C   UNL     1       2.624   6.211  19.732  0.00  0.00    +0.000 A 
ATOM      2  C   UNL     1       3.962   6.194  19.375  0.00  0.00    +0.000 A 
ATOM      3  N   UNL     1       4.337   4.910  19.077  0.00  0.00    +0.000 N 
ATOM      4  C   UNL     1       3.262   4.061  19.229  0.00  0.00    +0.000 A 
ATOM      5  C   UNL     1       3.175   2.665  19.100  0.00  0.00    +0.000 A 
ATOM      6  C   UNL     1       1.947   2.054  19.348  0.00  0.00    +0.000 A 
ATOM      7  C   UNL     1       0.830   2.814  19.675  0.00  0.00    +0.000 A 
ATOM      8  C   UNL     1       0.924   4.207  19.797  0.00  0.00    +0.000 A 
ATOM      9  C   UNL     1       2.166   4.851  19.598  0.00  0.00    +0.000 A 
ENDROOT
BRANCH   1  10
ATOM     10  C   UNL     1       1.871   7.381  20.192  0.00  0.00    +0.000 C 
ATOM     11  O   UNL     1       1.450   7.497  21.348  0.00  0.00    +0.000 OA
BRANCH  10  13
ATOM     12  O   UNL     1       1.978   8.612  18.103  0.00  0.00    +0.000 OA
ATOM     13  C   UNL     1       1.606   8.594  19.266  0.00  0.00    +0.000 C 
ATOM     14  N   UNL     1       0.960   9.643  19.885  0.00  0.00    +0.000 N 
ATOM     15  H   UNL     1       0.678   9.588  20.857  0.00  0.00    +0.000 HD
BRANCH  14  16
ATOM     16  N   UNL     1       0.725  10.787  19.207  0.00  0.00    +0.000 N 
ATOM     17  C   UNL     1      -0.465  11.164  18.677  0.00  0.00    +0.000 A 
ATOM     18  N   UNL     1      -0.348  12.377  18.182  0.00  0.00    +0.000 NA
ATOM     19  N   UNL     1       0.953  12.796  18.399  0.00  0.00    +0.000 NA
ATOM     20  C   UNL     1       1.585  11.824  19.022  0.00  0.00    +0.000 A 
ENDBRANCH  14  16
ENDBRANCH  10  13
ENDBRANCH   1  10
BRANCH   3  21
ATOM     21  C   UNL     1       5.700   4.516  18.727  0.00  0.00    +0.000 C 
BRANCH  21  22
ATOM     22  C   UNL     1       5.896   4.553  17.229  0.00  0.00    +0.000 A 
ATOM     23  C   UNL     1       4.882   4.111  16.366  0.00  0.00    +0.000 A 
ATOM     24  C   UNL     1       5.113   4.025  14.992  0.00  0.00    +0.000 A 
ATOM     25  C   UNL     1       6.353   4.393  14.471  0.00  0.00    +0.000 A 
ATOM     26 CL   UNL     1       6.660   4.222  12.788  0.00  0.00    +0.000 Cl
ATOM     27  C   UNL     1       7.350   4.883  15.308  0.00  0.00    +0.000 A 
ATOM     28  C   UNL     1       7.119   4.974  16.681  0.00  0.00    +0.000 A 
ENDBRANCH  21  22
ENDBRANCH   3  21
TORSDOF 5
ENDMDL
MODEL 9
REMARK VINA RESULT:      -7.7      4.161      8.265
REMARK  Name = 
REMARK  5 active torsions:
REMARK  status: ('A' for Active; 'I' for Inactive)
REMARK    1  A    between atoms: C_2  and  C_9
REMARK    2  A    between atoms: N_3  and  N_4
REMARK    3  A    between atoms: C_9  and  C_11
REMARK    4  A    between atoms: N_13  and  C_14
REMARK    5  A    between atoms: C_14  and  C_15
REMARK                            x       y       z     vdW  Elec       q    Type
REMARK                         _______ _______ _______ _____ _____    ______ ____
ROOT
ATOM      1  C   UNL     1       2.923   6.935  18.392  0.00  0.00    +0.000 A 
ATOM      2  C   UNL     1       4.163   6.597  17.879  0.00  0.00    +0.000 A 
ATOM      3  N   UNL     1       4.510   5.345  18.317  0.00  0.00    +0.000 N 
ATOM      4  C   UNL     1       3.513   4.837  19.120  0.00  0.00    +0.000 A 
ATOM      5  C   UNL     1       3.443   3.632  19.839  0.00  0.00    +0.000 A 
ATOM      6  C   UNL     1       2.306   3.387  20.608  0.00  0.00    +0.000 A 
ATOM      7  C   UNL     1       1.255   4.295  20.629  0.00  0.00    +0.000 A 
ATOM      8  C   UNL     1       1.329   5.492  19.904  0.00  0.00    +0.000 A 
ATOM      9  C   UNL     1       2.488   5.792  19.152  0.00  0.00    +0.000 A 
ENDROOT
BRANCH   1  10
ATOM     10  C   UNL     1       2.240   8.221  18.216  0.00  0.00    +0.000 C 
ATOM     11  O   UNL     1       2.289   8.868  17.163  0.00  0.00    +0.000 OA
BRANCH  10  13
ATOM     12  O   UNL     1       0.536   9.709  19.093  0.00  0.00    +0.000 OA
ATOM     13  C   UNL     1       1.349   8.828  19.326  0.00  0.00    +0.000 C 
ATOM     14  N   UNL     1       1.591   8.316  20.584  0.00  0.00    +0.000 N 
ATOM     15  H   UNL     1       2.285   7.593  20.733  0.00  0.00    +0.000 HD
BRANCH  14  16
ATOM     16  N   UNL     1       0.926   8.806  21.652  0.00  0.00    +0.000 N 
ATOM     17  C   UNL     1      -0.396   8.642  21.905  0.00  0.00    +0.000 A 
ATOM     18  N   UNL     1      -0.675   9.164  23.080  0.00  0.00    +0.000 NA
ATOM     19  N   UNL     1       0.500   9.678  23.601  0.00  0.00    +0.000 NA
ATOM     20  C   UNL     1       1.456   9.449  22.727  0.00  0.00    +0.000 A 
ENDBRANCH  14  16
ENDBRANCH  10  13
ENDBRANCH   1  10
BRANCH   3  21
ATOM     21  C   UNL     1       5.789   4.700  18.022  0.00  0.00    +0.000 C 
BRANCH  21  22
ATOM     22  C   UNL     1       6.009   4.615  16.530  0.00  0.00    +0.000 A 
ATOM     23  C   UNL     1       5.111   3.911  15.715  0.00  0.00    +0.000 A 
ATOM     24  C   UNL     1       5.386   3.724  14.359  0.00  0.00    +0.000 A 
ATOM     25  C   UNL     1       6.552   4.251  13.808  0.00  0.00    +0.000 A 
ATOM     26 CL   UNL     1       6.924   3.963  12.154  0.00  0.00    +0.000 Cl
ATOM     27  C   UNL     1       7.427   4.997  14.591  0.00  0.00    +0.000 A 
ATOM     28  C   UNL     1       7.151   5.188  15.946  0.00  0.00    +0.000 A 
ENDBRANCH  21  22
ENDBRANCH   3  21
TORSDOF 5
ENDMDL
