MODEL 1
REMARK VINA RESULT:      -8.1      0.000      0.000
REMARK  Name = 
REMARK  5 active torsions:
REMARK  status: ('A' for Active; 'I' for Inactive)
REMARK    1  A    between atoms: C_1  and  C_2
REMARK    2  A    between atoms: C_2  and  C_3
REMARK    3  A    between atoms: C_6  and  N_7
REMARK    4  A    between atoms: N_10  and  C_11
REMARK    5  A    between atoms: C_23  and  C_24
REMARK                            x       y       z     vdW  Elec       q    Type
REMARK                         _______ _______ _______ _____ _____    ______ ____
ROOT
ATOM      1  N   UNL     1       2.723   7.992  17.444  0.00  0.00    +0.000 N 
ATOM      2  C   UNL     1       1.895   8.599  18.367  0.00  0.00    +0.000 C 
ATOM      3  O   UNL     1       1.914   8.434  19.576  0.00  0.00    +0.000 OA
ATOM      4  N   UNL     1       1.057   9.543  17.795  0.00  0.00    +0.000 N 
ATOM      5  H   UNL     1       2.880   8.508  16.594  0.00  0.00    +0.000 HD
ATOM      6  H   UNL     1       0.833   9.480  16.811  0.00  0.00    +0.000 HD
ENDROOT
BRANCH   1  10
ATOM      7  C   UNL     1       2.269   4.051  19.321  0.00  0.00    +0.000 A 
ATOM      8  O   UNL     1       2.119   5.258  18.709  0.00  0.00    +0.000 OA
ATOM      9  C   UNL     1       3.354   5.734  18.390  0.00  0.00    +0.000 A 
ATOM     10  C   UNL     1       3.653   6.962  17.773  0.00  0.00    +0.000 A 
ATOM     11  C   UNL     1       5.009   7.162  17.448  0.00  0.00    +0.000 A 
ATOM     12  C   UNL     1       5.982   6.212  17.782  0.00  0.00    +0.000 A 
ATOM     13 CL   UNL     1       7.632   6.516  17.385  0.00  0.00    +0.000 Cl
ATOM     14  C   UNL     1       5.656   5.023  18.434  0.00  0.00    +0.000 A 
ATOM     15  C   UNL     1       4.309   4.774  18.738  0.00  0.00    +0.000 A 
ATOM     16  C   UNL     1       3.601   3.696  19.362  0.00  0.00    +0.000 A 
ATOM     17  C   UNL     1       4.165   2.448  19.931  0.00  0.00    +0.000 C 
BRANCH   7  19
ATOM     18  C   UNL     1       0.608   2.244  18.865  0.00  0.00    +0.000 C 
ATOM     19  C   UNL     1       1.012   3.396  19.772  0.00  0.00    +0.000 C 
ENDBRANCH   7  19
ENDBRANCH   1  10
BRANCH   4  20
ATOM     20  C   UNL     1       0.100  10.221  18.679  0.00  0.00    +0.000 C 
ATOM     21  C   UNL     1       0.770  11.380  19.428  0.00  0.00    +0.000 C 
ATOM     22  C   UNL     1       0.772  12.648  18.585  0.00  0.00    +0.000 C 
ATOM     23  C   UNL     1      -0.666  13.042  18.303  0.00  0.00    +0.000 C 
ATOM     24  N   UNL     1      -1.409  11.960  17.701  0.00  0.00    +0.000 N 
ATOM     25  C   UNL     1      -1.184  10.631  17.932  0.00  0.00    +0.000 C 
ATOM     26  O   UNL     1      -1.953   9.803  17.442  0.00  0.00    +0.000 OA
ATOM     27  H   UNL     1      -2.307  12.156  17.273  0.00  0.00    +0.000 HD
ENDBRANCH   4  20
TORSDOF 3
ENDMDL
MODEL 2
REMARK VINA RESULT:      -7.9      2.004      3.753
REMARK  Name = 
REMARK  5 active torsions:
REMARK  status: ('A' for Active; 'I' for Inactive)
REMARK    1  A    between atoms: C_1  and  C_2
REMARK    2  A    between atoms: C_2  and  C_3
REMARK    3  A    between atoms: C_6  and  N_7
REMARK    4  A    between atoms: N_10  and  C_11
REMARK    5  A    between atoms: C_23  and  C_24
REMARK                            x       y       z     vdW  Elec       q    Type
REMARK                         _______ _______ _______ _____ _____    ______ ____
ROOT
ATOM      1  N   UNL     1       2.483   8.203  17.513  0.00  0.00    +0.000 N 
ATOM      2  C   UNL     1       1.729   8.884  18.447  0.00  0.00    +0.000 C 
ATOM      3  O   UNL     1       1.601   8.595  19.627  0.00  0.00    +0.000 OA
ATOM      4  N   UNL     1       1.174  10.050  17.941  0.00  0.00    +0.000 N 
ATOM      5  H   UNL     1       2.826   8.754  16.744  0.00  0.00    +0.000 HD
ATOM      6  H   UNL     1       1.032  10.141  16.944  0.00  0.00    +0.000 HD
ENDROOT
BRANCH   1  10
ATOM      7  C   UNL     1       6.684   6.938  17.396  0.00  0.00    +0.000 A 
ATOM      8  O   UNL     1       5.495   7.599  17.425  0.00  0.00    +0.000 OA
ATOM      9  C   UNL     1       4.508   6.699  17.687  0.00  0.00    +0.000 A 
ATOM     10  C   UNL     1       3.129   6.959  17.775  0.00  0.00    +0.000 A 
ATOM     11  C   UNL     1       2.332   5.868  18.175  0.00  0.00    +0.000 A 
ATOM     12  C   UNL     1       2.892   4.606  18.405  0.00  0.00    +0.000 A 
ATOM     13 CL   UNL     1       1.870   3.297  18.868  0.00  0.00    +0.000 Cl
ATOM     14  C   UNL     1       4.261   4.373  18.267  0.00  0.00    +0.000 A 
ATOM     15  C   UNL     1       5.090   5.447  17.908  0.00  0.00    +0.000 A 
ATOM     16  C   UNL     1       6.498   5.604  17.694  0.00  0.00    +0.000 A 
ATOM     17  C   UNL     1       7.550   4.562  17.780  0.00  0.00    +0.000 C 
BRANCH   7  19
ATOM     18  C   UNL     1       8.197   8.754  18.200  0.00  0.00    +0.000 C 
ATOM     19  C   UNL     1       7.878   7.769  17.087  0.00  0.00    +0.000 C 
ENDBRANCH   7  19
ENDBRANCH   1  10
BRANCH   4  20
ATOM     20  C   UNL     1       0.314  10.833  18.838  0.00  0.00    +0.000 C 
ATOM     21  C   UNL     1       1.084  12.013  19.444  0.00  0.00    +0.000 C 
ATOM     22  C   UNL     1       1.071  13.214  18.508  0.00  0.00    +0.000 C 
ATOM     23  C   UNL     1      -0.367  13.650  18.301  0.00  0.00    +0.000 C 
ATOM     24  N   UNL     1      -1.195  12.561  17.840  0.00  0.00    +0.000 N 
ATOM     25  C   UNL     1      -1.006  11.244  18.155  0.00  0.00    +0.000 C 
ATOM     26  O   UNL     1      -1.841  10.417  17.788  0.00  0.00    +0.000 OA
ATOM     27  H   UNL     1      -2.114  12.764  17.464  0.00  0.00    +0.000 HD
ENDBRANCH   4  20
TORSDOF 3
ENDMDL
MODEL 3
REMARK VINA RESULT:      -7.8      1.841      2.162
REMARK  Name = 
REMARK  5 active torsions:
REMARK  status: ('A' for Active; 'I' for Inactive)
REMARK    1  A    between atoms: C_1  and  C_2
REMARK    2  A    between atoms: C_2  and  C_3
REMARK    3  A    between atoms: C_6  and  N_7
REMARK    4  A    between atoms: N_10  and  C_11
REMARK    5  A    between atoms: C_23  and  C_24
REMARK                            x       y       z     vdW  Elec       q    Type
REMARK                         _______ _______ _______ _____ _____    ______ ____
ROOT
ATOM      1  N   UNL     1       2.289   7.848  19.143  0.00  0.00    +0.000 N 
ATOM      2  C   UNL     1       1.695   8.914  18.497  0.00  0.00    +0.000 C 
ATOM      3  O   UNL     1       1.537   9.035  17.292  0.00  0.00    +0.000 OA
ATOM      4  N   UNL     1       1.170   9.848  19.375  0.00  0.00    +0.000 N 
ATOM      5  H   UNL     1       1.984   7.687  20.088  0.00  0.00    +0.000 HD
ATOM      6  H   UNL     1       1.535   9.907  20.317  0.00  0.00    +0.000 HD
ENDROOT
BRANCH   1  10
ATOM      7  C   UNL     1       1.914   3.484  19.431  0.00  0.00    +0.000 A 
ATOM      8  O   UNL     1       1.780   4.837  19.491  0.00  0.00    +0.000 OA
ATOM      9  C   UNL     1       2.710   5.399  18.672  0.00  0.00    +0.000 A 
ATOM     10  C   UNL     1       2.933   6.772  18.464  0.00  0.00    +0.000 A 
ATOM     11  C   UNL     1       3.884   7.087  17.472  0.00  0.00    +0.000 A 
ATOM     12  C   UNL     1       4.587   6.083  16.797  0.00  0.00    +0.000 A 
ATOM     13 CL   UNL     1       5.758   6.521  15.610  0.00  0.00    +0.000 Cl
ATOM     14  C   UNL     1       4.371   4.729  17.060  0.00  0.00    +0.000 A 
ATOM     15  C   UNL     1       3.403   4.379  18.014  0.00  0.00    +0.000 A 
ATOM     16  C   UNL     1       2.899   3.140  18.528  0.00  0.00    +0.000 A 
ATOM     17  C   UNL     1       3.328   1.768  18.168  0.00  0.00    +0.000 C 
BRANCH   7  19
ATOM     18  C   UNL     1       1.515   2.565  21.717  0.00  0.00    +0.000 C 
ATOM     19  C   UNL     1       0.991   2.703  20.297  0.00  0.00    +0.000 C 
ENDBRANCH   7  19
ENDBRANCH   1  10
BRANCH   4  20
ATOM     20  C   UNL     1       0.552  11.048  18.796  0.00  0.00    +0.000 C 
ATOM     21  C   UNL     1      -0.828  11.307  19.413  0.00  0.00    +0.000 C 
ATOM     22  C   UNL     1      -0.709  12.090  20.713  0.00  0.00    +0.000 C 
ATOM     23  C   UNL     1      -0.071  13.433  20.411  0.00  0.00    +0.000 C 
ATOM     24  N   UNL     1       1.187  13.285  19.720  0.00  0.00    +0.000 N 
ATOM     25  C   UNL     1       1.494  12.267  18.859  0.00  0.00    +0.000 C 
ATOM     26  O   UNL     1       2.561  12.305  18.247  0.00  0.00    +0.000 OA
ATOM     27  H   UNL     1       1.809  14.082  19.650  0.00  0.00    +0.000 HD
ENDBRANCH   4  20
TORSDOF 3
ENDMDL
MODEL 4
REMARK VINA RESULT:      -7.7      3.831      7.520
REMARK  Name = 
REMARK  5 active torsions:
REMARK  status: ('A' for Active; 'I' for Inactive)
REMARK    1  A    between atoms: C_1  and  C_2
REMARK    2  A    between atoms: C_2  and  C_3
REMARK    3  A    between atoms: C_6  and  N_7
REMARK    4  A    between atoms: N_10  and  C_11
REMARK    5  A    between atoms: C_23  and  C_24
REMARK                            x       y       z     vdW  Elec       q    Type
REMARK                         _______ _______ _______ _____ _____    ______ ____
ROOT
ATOM      1  N   UNL     1       3.471   4.797  16.955  0.00  0.00    +0.000 N 
ATOM      2  C   UNL     1       4.761   4.402  16.662  0.00  0.00    +0.000 C 
ATOM      3  O   UNL     1       5.619   4.074  17.466  0.00  0.00    +0.000 OA
ATOM      4  N   UNL     1       4.994   4.303  15.299  0.00  0.00    +0.000 N 
ATOM      5  H   UNL     1       2.790   4.630  16.234  0.00  0.00    +0.000 HD
ATOM      6  H   UNL     1       4.418   4.830  14.656  0.00  0.00    +0.000 HD
ENDROOT
BRANCH   1  10
ATOM      7  C   UNL     1       1.886   8.323  19.034  0.00  0.00    +0.000 A 
ATOM      8  O   UNL     1       2.333   7.389  18.149  0.00  0.00    +0.000 OA
ATOM      9  C   UNL     1       2.513   6.217  18.815  0.00  0.00    +0.000 A 
ATOM     10  C   UNL     1       2.991   5.007  18.282  0.00  0.00    +0.000 A 
ATOM     11  C   UNL     1       2.972   3.907  19.163  0.00  0.00    +0.000 A 
ATOM     12  C   UNL     1       2.556   4.050  20.492  0.00  0.00    +0.000 A 
ATOM     13 CL   UNL     1       2.575   2.679  21.538  0.00  0.00    +0.000 Cl
ATOM     14  C   UNL     1       2.128   5.277  21.001  0.00  0.00    +0.000 A 
ATOM     15  C   UNL     1       2.097   6.385  20.140  0.00  0.00    +0.000 A 
ATOM     16  C   UNL     1       1.714   7.758  20.280  0.00  0.00    +0.000 A 
ATOM     17  C   UNL     1       1.226   8.443  21.501  0.00  0.00    +0.000 C 
BRANCH   7  19
ATOM     18  C   UNL     1       0.189   9.999  18.296  0.00  0.00    +0.000 C 
ATOM     19  C   UNL     1       1.665   9.685  18.479  0.00  0.00    +0.000 C 
ENDBRANCH   7  19
ENDBRANCH   1  10
BRANCH   4  20
ATOM     20  C   UNL     1       6.349   3.933  14.871  0.00  0.00    +0.000 C 
ATOM     21  C   UNL     1       6.306   3.057  13.612  0.00  0.00    +0.000 C 
ATOM     22  C   UNL     1       6.225   3.910  12.354  0.00  0.00    +0.000 C 
ATOM     23  C   UNL     1       7.467   4.778  12.278  0.00  0.00    +0.000 C 
ATOM     24  N   UNL     1       7.650   5.556  13.481  0.00  0.00    +0.000 N 
ATOM     25  C   UNL     1       7.266   5.164  14.734  0.00  0.00    +0.000 C 
ATOM     26  O   UNL     1       7.573   5.866  15.698  0.00  0.00    +0.000 OA
ATOM     27  H   UNL     1       8.311   6.324  13.476  0.00  0.00    +0.000 HD
ENDBRANCH   4  20
TORSDOF 3
ENDMDL
MODEL 5
REMARK VINA RESULT:      -7.6      2.486      4.137
REMARK  Name = 
REMARK  5 active torsions:
REMARK  status: ('A' for Active; 'I' for Inactive)
REMARK    1  A    between atoms: C_1  and  C_2
REMARK    2  A    between atoms: C_2  and  C_3
REMARK    3  A    between atoms: C_6  and  N_7
REMARK    4  A    between atoms: N_10  and  C_11
REMARK    5  A    between atoms: C_23  and  C_24
REMARK                            x       y       z     vdW  Elec       q    Type
REMARK                         _______ _______ _______ _____ _____    ______ ____
ROOT
ATOM      1  N   UNL     1       2.568   7.141  19.311  0.00  0.00    +0.000 N 
ATOM      2  C   UNL     1       1.852   8.153  18.702  0.00  0.00    +0.000 C 
ATOM      3  O   UNL     1       1.524   8.204  17.527  0.00  0.00    +0.000 OA
ATOM      4  N   UNL     1       1.419   9.117  19.598  0.00  0.00    +0.000 N 
ATOM      5  H   UNL     1       2.403   7.023  20.296  0.00  0.00    +0.000 HD
ATOM      6  H   UNL     1       1.909   9.238  20.475  0.00  0.00    +0.000 HD
ENDROOT
BRANCH   1  10
ATOM      7  C   UNL     1       6.375   6.660  17.182  0.00  0.00    +0.000 A 
ATOM      8  O   UNL     1       5.323   7.047  17.953  0.00  0.00    +0.000 OA
ATOM      9  C   UNL     1       4.400   6.047  17.954  0.00  0.00    +0.000 A 
ATOM     10  C   UNL     1       3.152   6.050  18.602  0.00  0.00    +0.000 A 
ATOM     11  C   UNL     1       2.435   4.838  18.540  0.00  0.00    +0.000 A 
ATOM     12  C   UNL     1       2.927   3.740  17.825  0.00  0.00    +0.000 A 
ATOM     13 CL   UNL     1       1.999   2.289  17.759  0.00  0.00    +0.000 Cl
ATOM     14  C   UNL     1       4.151   3.786  17.157  0.00  0.00    +0.000 A 
ATOM     15  C   UNL     1       4.909   4.965  17.230  0.00  0.00    +0.000 A 
ATOM     16  C   UNL     1       6.180   5.377  16.712  0.00  0.00    +0.000 A 
ATOM     17  C   UNL     1       7.107   4.598  15.857  0.00  0.00    +0.000 C 
BRANCH   7  19
ATOM     18  C   UNL     1       8.218   7.876  18.346  0.00  0.00    +0.000 C 
ATOM     19  C   UNL     1       7.473   7.654  17.040  0.00  0.00    +0.000 C 
ENDBRANCH   7  19
ENDBRANCH   1  10
BRANCH   4  20
ATOM     20  C   UNL     1       0.684  10.266  19.053  0.00  0.00    +0.000 C 
ATOM     21  C   UNL     1      -0.550  10.583  19.907  0.00  0.00    +0.000 C 
ATOM     22  C   UNL     1      -0.186  11.475  21.086  0.00  0.00    +0.000 C 
ATOM     23  C   UNL     1       0.362  12.784  20.550  0.00  0.00    +0.000 C 
ATOM     24  N   UNL     1       1.461  12.571  19.638  0.00  0.00    +0.000 N 
ATOM     25  C   UNL     1       1.604  11.481  18.823  0.00  0.00    +0.000 C 
ATOM     26  O   UNL     1       2.528  11.462  18.010  0.00  0.00    +0.000 OA
ATOM     27  H   UNL     1       2.046  13.356  19.378  0.00  0.00    +0.000 HD
ENDBRANCH   4  20
TORSDOF 3
ENDMDL
MODEL 6
REMARK VINA RESULT:      -7.4      2.463      4.062
REMARK  Name = 
REMARK  5 active torsions:
REMARK  status: ('A' for Active; 'I' for Inactive)
REMARK    1  A    between atoms: C_1  and  C_2
REMARK    2  A    between atoms: C_2  and  C_3
REMARK    3  A    between atoms: C_6  and  N_7
REMARK    4  A    between atoms: N_10  and  C_11
REMARK    5  A    between atoms: C_23  and  C_24
REMARK                            x       y       z     vdW  Elec       q    Type
REMARK                         _______ _______ _______ _____ _____    ______ ____
ROOT
ATOM      1  N   UNL     1       2.128   7.072  19.618  0.00  0.00    +0.000 N 
ATOM      2  C   UNL     1       1.771   8.233  18.962  0.00  0.00    +0.000 C 
ATOM      3  O   UNL     1       1.701   8.391  17.753  0.00  0.00    +0.000 OA
ATOM      4  N   UNL     1       1.376   9.239  19.830  0.00  0.00    +0.000 N 
ATOM      5  H   UNL     1       1.749   6.961  20.543  0.00  0.00    +0.000 HD
ATOM      6  H   UNL     1       1.696   9.223  20.789  0.00  0.00    +0.000 HD
ENDROOT
BRANCH   1  10
ATOM      7  C   UNL     1       5.746   6.234  17.279  0.00  0.00    +0.000 A 
ATOM      8  O   UNL     1       4.771   6.731  18.089  0.00  0.00    +0.000 OA
ATOM      9  C   UNL     1       3.802   5.787  18.225  0.00  0.00    +0.000 A 
ATOM     10  C   UNL     1       2.604   5.904  18.953  0.00  0.00    +0.000 A 
ATOM     11  C   UNL     1       1.824   4.732  19.028  0.00  0.00    +0.000 A 
ATOM     12  C   UNL     1       2.208   3.562  18.363  0.00  0.00    +0.000 A 
ATOM     13 CL   UNL     1       1.206   2.163  18.464  0.00  0.00    +0.000 Cl
ATOM     14  C   UNL     1       3.382   3.494  17.612  0.00  0.00    +0.000 A 
ATOM     15  C   UNL     1       4.203   4.631  17.548  0.00  0.00    +0.000 A 
ATOM     16  C   UNL     1       5.453   4.935  16.918  0.00  0.00    +0.000 A 
ATOM     17  C   UNL     1       6.277   4.049  16.062  0.00  0.00    +0.000 C 
BRANCH   7  19
ATOM     18  C   UNL     1       7.870   7.220  18.144  0.00  0.00    +0.000 C 
ATOM     19  C   UNL     1       6.880   7.153  16.993  0.00  0.00    +0.000 C 
ENDBRANCH   7  19
ENDBRANCH   1  10
BRANCH   4  20
ATOM     20  C   UNL     1       1.016  10.536  19.242  0.00  0.00    +0.000 C 
ATOM     21  C   UNL     1      -0.129  10.382  18.233  0.00  0.00    +0.000 C 
ATOM     22  C   UNL     1      -1.481  10.411  18.931  0.00  0.00    +0.000 C 
ATOM     23  C   UNL     1      -1.642  11.753  19.620  0.00  0.00    +0.000 C 
ATOM     24  N   UNL     1      -0.539  12.033  20.507  0.00  0.00    +0.000 N 
ATOM     25  C   UNL     1       0.747  11.602  20.322  0.00  0.00    +0.000 C 
ATOM     26  O   UNL     1       1.624  11.995  21.092  0.00  0.00    +0.000 OA
ATOM     27  H   UNL     1      -0.625  12.787  21.180  0.00  0.00    +0.000 HD
ENDBRANCH   4  20
TORSDOF 3
ENDMDL
MODEL 7
REMARK VINA RESULT:      -7.0      2.489      3.929
REMARK  Name = 
REMARK  5 active torsions:
REMARK  status: ('A' for Active; 'I' for Inactive)
REMARK    1  A    between atoms: C_1  and  C_2
REMARK    2  A    between atoms: C_2  and  C_3
REMARK    3  A    between atoms: C_6  and  N_7
REMARK    4  A    between atoms: N_10  and  C_11
REMARK    5  A    between atoms: C_23  and  C_24
REMARK                            x       y       z     vdW  Elec       q    Type
REMARK                         _______ _______ _______ _____ _____    ______ ____
ROOT
ATOM      1  N   UNL     1       1.883   7.949  20.063  0.00  0.00    +0.000 N 
ATOM      2  C   UNL     1       1.407   8.824  19.107  0.00  0.00    +0.000 C 
ATOM      3  O   UNL     1       1.142   8.555  17.946  0.00  0.00    +0.000 OA
ATOM      4  N   UNL     1       1.140  10.084  19.619  0.00  0.00    +0.000 N 
ATOM      5  H   UNL     1       1.659   8.181  21.016  0.00  0.00    +0.000 HD
ATOM      6  H   UNL     1       1.609  10.389  20.462  0.00  0.00    +0.000 HD
ENDROOT
BRANCH   1  10
ATOM      7  C   UNL     1       4.899   6.197  17.399  0.00  0.00    +0.000 A 
ATOM      8  O   UNL     1       4.110   6.988  18.178  0.00  0.00    +0.000 OA
ATOM      9  C   UNL     1       3.263   6.190  18.883  0.00  0.00    +0.000 A 
ATOM     10  C   UNL     1       2.265   6.604  19.783  0.00  0.00    +0.000 A 
ATOM     11  C   UNL     1       1.603   5.568  20.471  0.00  0.00    +0.000 A 
ATOM     12  C   UNL     1       1.896   4.223  20.213  0.00  0.00    +0.000 A 
ATOM     13 CL   UNL     1       1.039   2.992  21.063  0.00  0.00    +0.000 Cl
ATOM     14  C   UNL     1       2.863   3.847  19.281  0.00  0.00    +0.000 A 
ATOM     15  C   UNL     1       3.570   4.854  18.605  0.00  0.00    +0.000 A 
ATOM     16  C   UNL     1       4.615   4.866  17.625  0.00  0.00    +0.000 A 
ATOM     17  C   UNL     1       5.270   3.701  16.985  0.00  0.00    +0.000 C 
BRANCH   7  19
ATOM     18  C   UNL     1       7.218   7.099  17.206  0.00  0.00    +0.000 C 
ATOM     19  C   UNL     1       5.871   6.911  16.528  0.00  0.00    +0.000 C 
ENDBRANCH   7  19
ENDBRANCH   1  10
BRANCH   4  20
ATOM     20  C   UNL     1       0.670  11.110  18.679  0.00  0.00    +0.000 C 
ATOM     21  C   UNL     1      -0.858  11.238  18.726  0.00  0.00    +0.000 C 
ATOM     22  C   UNL     1      -1.296  12.173  19.845  0.00  0.00    +0.000 C 
ATOM     23  C   UNL     1      -0.718  13.550  19.577  0.00  0.00    +0.000 C 
ATOM     24  N   UNL     1       0.714  13.505  19.402  0.00  0.00    +0.000 N 
ATOM     25  C   UNL     1       1.407  12.450  18.874  0.00  0.00    +0.000 C 
ATOM     26  O   UNL     1       2.616  12.570  18.675  0.00  0.00    +0.000 OA
ATOM     27  H   UNL     1       1.242  14.369  19.428  0.00  0.00    +0.000 HD
ENDBRANCH   4  20
TORSDOF 3
ENDMDL
MODEL 8
REMARK VINA RESULT:      -7.0      1.974      2.301
REMARK  Name = 
REMARK  5 active torsions:
REMARK  status: ('A' for Active; 'I' for Inactive)
REMARK    1  A    between atoms: C_1  and  C_2
REMARK    2  A    between atoms: C_2  and  C_3
REMARK    3  A    between atoms: C_6  and  N_7
REMARK    4  A    between atoms: N_10  and  C_11
REMARK    5  A    between atoms: C_23  and  C_24
REMARK                            x       y       z     vdW  Elec       q    Type
REMARK                         _______ _______ _______ _____ _____    ______ ____
ROOT
ATOM      1  N   UNL     1       3.974   7.647  17.966  0.00  0.00    +0.000 N 
ATOM      2  C   UNL     1       2.727   8.239  17.914  0.00  0.00    +0.000 C 
ATOM      3  O   UNL     1       1.689   7.712  17.546  0.00  0.00    +0.000 OA
ATOM      4  N   UNL     1       2.721   9.522  18.438  0.00  0.00    +0.000 N 
ATOM      5  H   UNL     1       4.608   8.027  18.648  0.00  0.00    +0.000 HD
ATOM      6  H   UNL     1       3.583  10.052  18.469  0.00  0.00    +0.000 HD
ENDROOT
BRANCH   1  10
ATOM      7  C   UNL     1       2.939   3.618  19.363  0.00  0.00    +0.000 A 
ATOM      8  O   UNL     1       3.055   4.952  19.119  0.00  0.00    +0.000 OA
ATOM      9  C   UNL     1       3.851   5.123  18.030  0.00  0.00    +0.000 A 
ATOM     10  C   UNL     1       4.251   6.344  17.458  0.00  0.00    +0.000 A 
ATOM     11  C   UNL     1       4.985   6.240  16.260  0.00  0.00    +0.000 A 
ATOM     12  C   UNL     1       5.331   4.993  15.727  0.00  0.00    +0.000 A 
ATOM     13 CL   UNL     1       6.253   4.919  14.272  0.00  0.00    +0.000 Cl
ATOM     14  C   UNL     1       4.955   3.799  16.345  0.00  0.00    +0.000 A 
ATOM     15  C   UNL     1       4.190   3.866  17.520  0.00  0.00    +0.000 A 
ATOM     16  C   UNL     1       3.614   2.894  18.402  0.00  0.00    +0.000 A 
ATOM     17  C   UNL     1       3.709   1.418  18.311  0.00  0.00    +0.000 C 
BRANCH   7  19
ATOM     18  C   UNL     1       0.631   3.330  20.270  0.00  0.00    +0.000 C 
ATOM     19  C   UNL     1       2.123   3.246  20.549  0.00  0.00    +0.000 C 
ENDBRANCH   7  19
ENDBRANCH   1  10
BRANCH   4  20
ATOM     20  C   UNL     1       1.454  10.265  18.393  0.00  0.00    +0.000 C 
ATOM     21  C   UNL     1       0.429   9.657  19.358  0.00  0.00    +0.000 C 
ATOM     22  C   UNL     1       0.611  10.205  20.767  0.00  0.00    +0.000 C 
ATOM     23  C   UNL     1       0.391  11.706  20.734  0.00  0.00    +0.000 C 
ATOM     24  N   UNL     1       1.240  12.349  19.760  0.00  0.00    +0.000 N 
ATOM     25  C   UNL     1       1.667  11.778  18.592  0.00  0.00    +0.000 C 
ATOM     26  O   UNL     1       2.301  12.464  17.790  0.00  0.00    +0.000 OA
ATOM     27  H   UNL     1       1.346  13.357  19.786  0.00  0.00    +0.000 HD
ENDBRANCH   4  20
TORSDOF 3
ENDMDL
MODEL 9
REMARK VINA RESULT:      -7.0      2.905      7.818
REMARK  Name = 
REMARK  5 active torsions:
REMARK  status: ('A' for Active; 'I' for Inactive)
REMARK    1  A    between atoms: C_1  and  C_2
REMARK    2  A    between atoms: C_2  and  C_3
REMARK    3  A    between atoms: C_6  and  N_7
REMARK    4  A    between atoms: N_10  and  C_11
REMARK    5  A    between atoms: C_23  and  C_24
REMARK                            x       y       z     vdW  Elec       q    Type
REMARK                         _______ _______ _______ _____ _____    ______ ____
ROOT
ATOM      1  N   UNL     1       1.546   9.246  17.893  0.00  0.00    +0.000 N 
ATOM      2  C   UNL     1       2.151   8.200  18.561  0.00  0.00    +0.000 C 
ATOM      3  O   UNL     1       1.865   7.788  19.674  0.00  0.00    +0.000 OA
ATOM      4  N   UNL     1       3.098   7.546  17.788  0.00  0.00    +0.000 N 
ATOM      5  H   UNL     1       1.582   9.200  16.889  0.00  0.00    +0.000 HD
ATOM      6  H   UNL     1       3.533   8.034  17.016  0.00  0.00    +0.000 HD
ENDROOT
BRANCH   1  10
ATOM      7  C   UNL     1      -2.634  10.126  16.883  0.00  0.00    +0.000 A 
ATOM      8  O   UNL     1      -1.374   9.627  17.014  0.00  0.00    +0.000 OA
ATOM      9  C   UNL     1      -0.756  10.283  18.034  0.00  0.00    +0.000 A 
ATOM     10  C   UNL     1       0.564  10.096  18.482  0.00  0.00    +0.000 A 
ATOM     11  C   UNL     1       0.921  10.824  19.635  0.00  0.00    +0.000 A 
ATOM     12  C   UNL     1       0.022  11.711  20.240  0.00  0.00    +0.000 A 
ATOM     13 CL   UNL     1       0.515  12.596  21.634  0.00  0.00    +0.000 Cl
ATOM     14  C   UNL     1      -1.267  11.904  19.743  0.00  0.00    +0.000 A 
ATOM     15  C   UNL     1      -1.669  11.167  18.618  0.00  0.00    +0.000 A 
ATOM     16  C   UNL     1      -2.876  11.077  17.852  0.00  0.00    +0.000 A 
ATOM     17  C   UNL     1      -4.135  11.834  18.052  0.00  0.00    +0.000 C 
BRANCH   7  19
ATOM     18  C   UNL     1      -3.107  10.146  14.432  0.00  0.00    +0.000 C 
ATOM     19  C   UNL     1      -3.448   9.541  15.785  0.00  0.00    +0.000 C 
ENDBRANCH   7  19
ENDBRANCH   1  10
BRANCH   4  20
ATOM     20  C   UNL     1       3.837   6.442  18.414  0.00  0.00    +0.000 C 
ATOM     21  C   UNL     1       2.918   5.241  18.668  0.00  0.00    +0.000 C 
ATOM     22  C   UNL     1       2.810   4.363  17.429  0.00  0.00    +0.000 C 
ATOM     23  C   UNL     1       4.191   3.833  17.091  0.00  0.00    +0.000 C 
ATOM     24  N   UNL     1       5.153   4.900  16.949  0.00  0.00    +0.000 N 
ATOM     25  C   UNL     1       5.114   6.087  17.629  0.00  0.00    +0.000 C 
ATOM     26  O   UNL     1       6.050   6.876  17.503  0.00  0.00    +0.000 OA
ATOM     27  H   UNL     1       6.050   4.702  16.521  0.00  0.00    +0.000 HD
ENDBRANCH   4  20
TORSDOF 3
ENDMDL
