MODEL 1
REMARK VINA RESULT:      -8.7      0.000      0.000
REMARK  Name = 
REMARK  4 active torsions:
REMARK  status: ('A' for Active; 'I' for Inactive)
REMARK    1  A    between atoms: C_2  and  O_3
REMARK    2  A    between atoms: C_2  and  C_4
REMARK    3  A    between atoms: C_10  and  C_11
REMARK    4  A    between atoms: N_12  and  N_13
REMARK                            x       y       z     vdW  Elec       q    Type
REMARK                         _______ _______ _______ _____ _____    ______ ____
ROOT
ATOM      1  C   UNL     1       1.375   9.964  18.749  0.00  0.00    +0.000 C 
ATOM      2  N   UNL     1       1.863   8.765  18.683  0.00  0.00    +0.000 NA
ENDROOT
BRANCH   2   3
ATOM      3  N   UNL     1       2.628   8.497  17.587  0.00  0.00    +0.000 N 
ATOM      4  C   UNL     1       3.260   7.234  17.526  0.00  0.00    +0.000 A 
ATOM      5  N   UNL     1       2.690   6.168  18.129  0.00  0.00    +0.000 NA
ATOM      6  C   UNL     1       3.287   4.954  18.108  0.00  0.00    +0.000 A 
ATOM      7  N   UNL     1       2.680   3.871  18.710  0.00  0.00    +0.000 N 
ATOM      8  C   UNL     1       1.219   3.806  18.798  0.00  0.00    +0.000 C 
ATOM      9  C   UNL     1       0.736   3.818  20.253  0.00  0.00    +0.000 C 
ATOM     10  O   UNL     1       1.419   2.836  21.051  0.00  0.00    +0.000 OA
ATOM     11  C   UNL     1       2.827   3.113  21.062  0.00  0.00    +0.000 C 
ATOM     12  C   UNL     1       3.426   3.032  19.651  0.00  0.00    +0.000 C 
ATOM     13  C   UNL     1       4.497   4.834  17.396  0.00  0.00    +0.000 A 
ATOM     14  C   UNL     1       5.351   3.717  17.092  0.00  0.00    +0.000 A 
ATOM     15  C   UNL     1       6.443   4.068  16.334  0.00  0.00    +0.000 A 
ATOM     16  S   UNL     1       6.437   5.737  15.957  0.00  0.00    +0.000 S 
ATOM     17  C   UNL     1       4.976   5.989  16.806  0.00  0.00    +0.000 A 
ATOM     18  N   UNL     1       4.412   7.205  16.846  0.00  0.00    +0.000 NA
ATOM     19  H   UNL     1       3.301   9.186  17.260  0.00  0.00    +0.000 HD
ENDBRANCH   2   3
BRANCH   1  26
ATOM     20  C   UNL     1      -3.319  12.604  22.045  0.00  0.00    +0.000 A 
ATOM     21  C   UNL     1      -2.784  12.230  23.285  0.00  0.00    +0.000 A 
ATOM     22  C   UNL     1      -1.574  11.531  23.341  0.00  0.00    +0.000 A 
ATOM     23  C   UNL     1      -0.911  11.192  22.160  0.00  0.00    +0.000 A 
ATOM     24  O   UNL     1       0.264  10.496  22.289  0.00  0.00    +0.000 OA
ATOM     25  C   UNL     1       0.923  10.144  21.136  0.00  0.00    +0.000 A 
ATOM     26  C   UNL     1       0.533  10.415  19.882  0.00  0.00    +0.000 A 
ATOM     27  C   UNL     1      -0.724  11.163  19.692  0.00  0.00    +0.000 A 
ATOM     28  O   UNL     1      -1.145  11.457  18.584  0.00  0.00    +0.000 OA
ATOM     29  C   UNL     1      -1.449  11.549  20.925  0.00  0.00    +0.000 A 
ATOM     30  C   UNL     1      -2.656  12.253  20.860  0.00  0.00    +0.000 A 
BRANCH  20  32
ATOM     31  O   UNL     1      -4.703  14.471  21.551  0.00  0.00    +0.000 OA
ATOM     32  C   UNL     1      -4.618  13.317  21.936  0.00  0.00    +0.000 C 
BRANCH  32  33
ATOM     33  O   UNL     1      -5.684  12.587  22.325  0.00  0.00    +0.000 OA
ATOM     34  H   UNL     1      -6.555  12.993  22.172  0.00  0.00    +0.000 HD
ENDBRANCH  32  33
ENDBRANCH  20  32
ENDBRANCH   1  26
TORSDOF 4
ENDMDL
MODEL 2
REMARK VINA RESULT:      -8.3      1.535      1.752
REMARK  Name = 
REMARK  4 active torsions:
REMARK  status: ('A' for Active; 'I' for Inactive)
REMARK    1  A    between atoms: C_2  and  O_3
REMARK    2  A    between atoms: C_2  and  C_4
REMARK    3  A    between atoms: C_10  and  C_11
REMARK    4  A    between atoms: N_12  and  N_13
REMARK                            x       y       z     vdW  Elec       q    Type
REMARK                         _______ _______ _______ _____ _____    ______ ____
ROOT
ATOM      1  C   UNL     1       1.538   9.745  18.570  0.00  0.00    +0.000 C 
ATOM      2  N   UNL     1       2.256   8.667  18.602  0.00  0.00    +0.000 NA
ENDROOT
BRANCH   2   3
ATOM      3  N   UNL     1       2.912   8.358  17.447  0.00  0.00    +0.000 N 
ATOM      4  C   UNL     1       3.437   7.051  17.325  0.00  0.00    +0.000 A 
ATOM      5  N   UNL     1       2.831   6.023  17.959  0.00  0.00    +0.000 NA
ATOM      6  C   UNL     1       3.327   4.767  17.879  0.00  0.00    +0.000 A 
ATOM      7  N   UNL     1       2.683   3.724  18.513  0.00  0.00    +0.000 N 
ATOM      8  C   UNL     1       1.232   3.772  18.712  0.00  0.00    +0.000 C 
ATOM      9  C   UNL     1       0.862   3.797  20.199  0.00  0.00    +0.000 C 
ATOM     10  O   UNL     1       1.523   2.751  20.933  0.00  0.00    +0.000 OA
ATOM     11  C   UNL     1       2.945   2.917  20.839  0.00  0.00    +0.000 C 
ATOM     12  C   UNL     1       3.429   2.814  19.386  0.00  0.00    +0.000 C 
ATOM     13  C   UNL     1       4.466   4.564  17.076  0.00  0.00    +0.000 A 
ATOM     14  C   UNL     1       5.204   3.389  16.696  0.00  0.00    +0.000 A 
ATOM     15  C   UNL     1       6.261   3.667  15.861  0.00  0.00    +0.000 A 
ATOM     16  S   UNL     1       6.359   5.337  15.504  0.00  0.00    +0.000 S 
ATOM     17  C   UNL     1       4.990   5.688  16.463  0.00  0.00    +0.000 A 
ATOM     18  N   UNL     1       4.528   6.944  16.559  0.00  0.00    +0.000 NA
ATOM     19  H   UNL     1       3.612   8.998  17.078  0.00  0.00    +0.000 HD
ENDBRANCH   2   3
BRANCH   1  26
ATOM     20  C   UNL     1      -1.072  13.560  22.871  0.00  0.00    +0.000 A 
ATOM     21  C   UNL     1      -1.666  12.508  23.581  0.00  0.00    +0.000 A 
ATOM     22  C   UNL     1      -1.478  11.188  23.159  0.00  0.00    +0.000 A 
ATOM     23  C   UNL     1      -0.713  10.923  22.022  0.00  0.00    +0.000 A 
ATOM     24  O   UNL     1      -0.580   9.607  21.658  0.00  0.00    +0.000 OA
ATOM     25  C   UNL     1       0.158   9.330  20.534  0.00  0.00    +0.000 A 
ATOM     26  C   UNL     1       0.773  10.223  19.745  0.00  0.00    +0.000 A 
ATOM     27  C   UNL     1       0.660  11.652  20.095  0.00  0.00    +0.000 A 
ATOM     28  O   UNL     1       1.196  12.528  19.434  0.00  0.00    +0.000 OA
ATOM     29  C   UNL     1      -0.135  11.968  21.304  0.00  0.00    +0.000 A 
ATOM     30  C   UNL     1      -0.314  13.291  21.722  0.00  0.00    +0.000 A 
BRANCH  20  32
ATOM     31  O   UNL     1      -2.130  15.684  22.757  0.00  0.00    +0.000 OA
ATOM     32  C   UNL     1      -1.273  14.979  23.261  0.00  0.00    +0.000 C 
BRANCH  32  33
ATOM     33  O   UNL     1      -0.408  15.422  24.198  0.00  0.00    +0.000 OA
ATOM     34  H   UNL     1      -0.744  15.438  25.112  0.00  0.00    +0.000 HD
ENDBRANCH  32  33
ENDBRANCH  20  32
ENDBRANCH   1  26
TORSDOF 4
ENDMDL
MODEL 3
REMARK VINA RESULT:      -8.2      4.472      9.968
REMARK  Name = 
REMARK  4 active torsions:
REMARK  status: ('A' for Active; 'I' for Inactive)
REMARK    1  A    between atoms: C_2  and  O_3
REMARK    2  A    between atoms: C_2  and  C_4
REMARK    3  A    between atoms: C_10  and  C_11
REMARK    4  A    between atoms: N_12  and  N_13
REMARK                            x       y       z     vdW  Elec       q    Type
REMARK                         _______ _______ _______ _____ _____    ______ ____
ROOT
ATOM      1  C   UNL     1       0.553   7.753  21.056  0.00  0.00    +0.000 C 
ATOM      2  N   UNL     1       0.817   8.788  21.790  0.00  0.00    +0.000 NA
ENDROOT
BRANCH   2   3
ATOM      3  N   UNL     1      -0.266   9.456  22.281  0.00  0.00    +0.000 N 
ATOM      4  C   UNL     1      -0.295  10.860  22.117  0.00  0.00    +0.000 A 
ATOM      5  N   UNL     1       0.322  11.425  21.056  0.00  0.00    +0.000 NA
ATOM      6  C   UNL     1       0.331  12.767  20.889  0.00  0.00    +0.000 A 
ATOM      7  N   UNL     1       0.947  13.326  19.788  0.00  0.00    +0.000 N 
ATOM      8  C   UNL     1       1.019  12.577  18.531  0.00  0.00    +0.000 C 
ATOM      9  C   UNL     1       2.468  12.269  18.135  0.00  0.00    +0.000 C 
ATOM     10  O   UNL     1       3.293  13.447  18.168  0.00  0.00    +0.000 OA
ATOM     11  C   UNL     1       3.314  13.987  19.496  0.00  0.00    +0.000 C 
ATOM     12  C   UNL     1       1.913  14.415  19.952  0.00  0.00    +0.000 C 
ATOM     13  C   UNL     1      -0.364  13.547  21.833  0.00  0.00    +0.000 A 
ATOM     14  C   UNL     1      -0.637  14.957  21.934  0.00  0.00    +0.000 A 
ATOM     15  C   UNL     1      -1.389  15.279  23.039  0.00  0.00    +0.000 A 
ATOM     16  S   UNL     1      -1.798  13.889  23.949  0.00  0.00    +0.000 S 
ATOM     17  C   UNL     1      -0.972  12.859  22.867  0.00  0.00    +0.000 A 
ATOM     18  N   UNL     1      -0.962  11.531  23.063  0.00  0.00    +0.000 NA
ATOM     19  H   UNL     1      -0.598   9.257  23.222  0.00  0.00    +0.000 HD
ENDBRANCH   2   3
BRANCH   1  26
ATOM     20  C   UNL     1       5.167   5.753  17.237  0.00  0.00    +0.000 A 
ATOM     21  C   UNL     1       5.352   4.553  17.936  0.00  0.00    +0.000 A 
ATOM     22  C   UNL     1       4.555   4.262  19.048  0.00  0.00    +0.000 A 
ATOM     23  C   UNL     1       3.588   5.176  19.469  0.00  0.00    +0.000 A 
ATOM     24  O   UNL     1       2.850   4.831  20.573  0.00  0.00    +0.000 OA
ATOM     25  C   UNL     1       1.903   5.726  21.008  0.00  0.00    +0.000 A 
ATOM     26  C   UNL     1       1.618   6.914  20.458  0.00  0.00    +0.000 A 
ATOM     27  C   UNL     1       2.384   7.330  19.267  0.00  0.00    +0.000 A 
ATOM     28  O   UNL     1       2.181   8.392  18.701  0.00  0.00    +0.000 OA
ATOM     29  C   UNL     1       3.411   6.378  18.786  0.00  0.00    +0.000 A 
ATOM     30  C   UNL     1       4.201   6.674  17.669  0.00  0.00    +0.000 A 
BRANCH  20  32
ATOM     31  O   UNL     1       5.556   6.280  14.954  0.00  0.00    +0.000 OA
ATOM     32  C   UNL     1       6.012   6.120  16.072  0.00  0.00    +0.000 C 
BRANCH  32  33
ATOM     33  O   UNL     1       7.327   6.230  16.357  0.00  0.00    +0.000 OA
ATOM     34  H   UNL     1       7.757   7.053  16.064  0.00  0.00    +0.000 HD
ENDBRANCH  32  33
ENDBRANCH  20  32
ENDBRANCH   1  26
TORSDOF 4
ENDMDL
MODEL 4
REMARK VINA RESULT:      -8.2      5.340     10.989
REMARK  Name = 
REMARK  4 active torsions:
REMARK  status: ('A' for Active; 'I' for Inactive)
REMARK    1  A    between atoms: C_2  and  O_3
REMARK    2  A    between atoms: C_2  and  C_4
REMARK    3  A    between atoms: C_10  and  C_11
REMARK    4  A    between atoms: N_12  and  N_13
REMARK                            x       y       z     vdW  Elec       q    Type
REMARK                         _______ _______ _______ _____ _____    ______ ____
ROOT
ATOM      1  C   UNL     1      -1.471  11.982  22.076  0.00  0.00    +0.000 C 
ATOM      2  N   UNL     1      -2.558  11.512  22.602  0.00  0.00    +0.000 NA
ENDROOT
BRANCH   2   3
ATOM      3  N   UNL     1      -3.189  12.333  23.489  0.00  0.00    +0.000 N 
ATOM      4  C   UNL     1      -4.354  12.999  23.046  0.00  0.00    +0.000 A 
ATOM      5  N   UNL     1      -5.136  12.429  22.103  0.00  0.00    +0.000 NA
ATOM      6  C   UNL     1      -6.243  13.056  21.643  0.00  0.00    +0.000 A 
ATOM      7  N   UNL     1      -7.042  12.449  20.697  0.00  0.00    +0.000 N 
ATOM      8  C   UNL     1      -7.129  10.988  20.639  0.00  0.00    +0.000 C 
ATOM      9  C   UNL     1      -6.588  10.437  19.314  0.00  0.00    +0.000 C 
ATOM     10  O   UNL     1      -7.168  11.107  18.181  0.00  0.00    +0.000 OA
ATOM     11  C   UNL     1      -6.851  12.505  18.229  0.00  0.00    +0.000 C 
ATOM     12  C   UNL     1      -7.433  13.171  19.483  0.00  0.00    +0.000 C 
ATOM     13  C   UNL     1      -6.573  14.300  22.215  0.00  0.00    +0.000 A 
ATOM     14  C   UNL     1      -7.687  15.195  22.044  0.00  0.00    +0.000 A 
ATOM     15  C   UNL     1      -7.603  16.312  22.842  0.00  0.00    +0.000 A 
ATOM     16  S   UNL     1      -6.202  16.282  23.823  0.00  0.00    +0.000 S 
ATOM     17  C   UNL     1      -5.709  14.778  23.183  0.00  0.00    +0.000 A 
ATOM     18  N   UNL     1      -4.591  14.182  23.625  0.00  0.00    +0.000 NA
ATOM     19  H   UNL     1      -2.647  13.003  24.029  0.00  0.00    +0.000 HD
ENDBRANCH   2   3
BRANCH   1  26
ATOM     20  C   UNL     1       2.193   7.544  19.477  0.00  0.00    +0.000 A 
ATOM     21  C   UNL     1       2.181   8.144  18.211  0.00  0.00    +0.000 A 
ATOM     22  C   UNL     1       1.485   9.340  18.011  0.00  0.00    +0.000 A 
ATOM     23  C   UNL     1       0.790   9.926  19.071  0.00  0.00    +0.000 A 
ATOM     24  O   UNL     1       0.120  11.093  18.801  0.00  0.00    +0.000 OA
ATOM     25  C   UNL     1      -0.580  11.675  19.830  0.00  0.00    +0.000 A 
ATOM     26  C   UNL     1      -0.675  11.218  21.086  0.00  0.00    +0.000 A 
ATOM     27  C   UNL     1       0.029   9.967  21.426  0.00  0.00    +0.000 A 
ATOM     28  O   UNL     1      -0.001   9.487  22.548  0.00  0.00    +0.000 OA
ATOM     29  C   UNL     1       0.786   9.324  20.328  0.00  0.00    +0.000 A 
ATOM     30  C   UNL     1       1.484   8.130  20.537  0.00  0.00    +0.000 A 
BRANCH  20  32
ATOM     31  O   UNL     1       3.792   5.849  19.017  0.00  0.00    +0.000 OA
ATOM     32  C   UNL     1       2.889   6.256  19.727  0.00  0.00    +0.000 C 
BRANCH  32  33
ATOM     33  O   UNL     1       2.415   5.568  20.787  0.00  0.00    +0.000 OA
ATOM     34  H   UNL     1       2.521   4.601  20.747  0.00  0.00    +0.000 HD
ENDBRANCH  32  33
ENDBRANCH  20  32
ENDBRANCH   1  26
TORSDOF 4
ENDMDL
MODEL 5
REMARK VINA RESULT:      -8.0      4.711     10.504
REMARK  Name = 
REMARK  4 active torsions:
REMARK  status: ('A' for Active; 'I' for Inactive)
REMARK    1  A    between atoms: C_2  and  O_3
REMARK    2  A    between atoms: C_2  and  C_4
REMARK    3  A    between atoms: C_10  and  C_11
REMARK    4  A    between atoms: N_12  and  N_13
REMARK                            x       y       z     vdW  Elec       q    Type
REMARK                         _______ _______ _______ _____ _____    ______ ____
ROOT
ATOM      1  C   UNL     1       0.174   9.752  20.232  0.00  0.00    +0.000 C 
ATOM      2  N   UNL     1       0.474  10.381  21.324  0.00  0.00    +0.000 NA
ENDROOT
BRANCH   2   3
ATOM      3  N   UNL     1      -0.558  11.030  21.936  0.00  0.00    +0.000 N 
ATOM      4  C   UNL     1      -0.435  12.427  22.114  0.00  0.00    +0.000 A 
ATOM      5  N   UNL     1       0.288  13.155  21.235  0.00  0.00    +0.000 NA
ATOM      6  C   UNL     1       0.442  14.489  21.396  0.00  0.00    +0.000 A 
ATOM      7  N   UNL     1       1.164  15.221  20.477  0.00  0.00    +0.000 N 
ATOM      8  C   UNL     1       1.222  14.788  19.079  0.00  0.00    +0.000 C 
ATOM      9  C   UNL     1       2.650  14.424  18.654  0.00  0.00    +0.000 C 
ATOM     10  O   UNL     1       3.588  15.462  18.989  0.00  0.00    +0.000 OA
ATOM     11  C   UNL     1       3.598  15.667  20.409  0.00  0.00    +0.000 C 
ATOM     12  C   UNL     1       2.227  16.127  20.921  0.00  0.00    +0.000 C 
ATOM     13  C   UNL     1      -0.217  15.095  22.484  0.00  0.00    +0.000 A 
ATOM     14  C   UNL     1      -0.349  16.462  22.915  0.00  0.00    +0.000 A 
ATOM     15  C   UNL     1      -1.118  16.595  24.047  0.00  0.00    +0.000 A 
ATOM     16  S   UNL     1      -1.711  15.083  24.586  0.00  0.00    +0.000 S 
ATOM     17  C   UNL     1      -0.941  14.253  23.307  0.00  0.00    +0.000 A 
ATOM     18  N   UNL     1      -1.076  12.924  23.178  0.00  0.00    +0.000 NA
ATOM     19  H   UNL     1      -0.954  10.651  22.793  0.00  0.00    +0.000 HD
ENDBRANCH   2   3
BRANCH   1  26
ATOM     20  C   UNL     1       4.330   5.308  18.544  0.00  0.00    +0.000 A 
ATOM     21  C   UNL     1       4.626   5.919  17.318  0.00  0.00    +0.000 A 
ATOM     22  C   UNL     1       4.006   7.122  16.970  0.00  0.00    +0.000 A 
ATOM     23  C   UNL     1       3.079   7.705  17.837  0.00  0.00    +0.000 A 
ATOM     24  O   UNL     1       2.501   8.879  17.427  0.00  0.00    +0.000 OA
ATOM     25  C   UNL     1       1.577   9.458  18.263  0.00  0.00    +0.000 A 
ATOM     26  C   UNL     1       1.180   8.990  19.454  0.00  0.00    +0.000 A 
ATOM     27  C   UNL     1       1.775   7.731  19.941  0.00  0.00    +0.000 A 
ATOM     28  O   UNL     1       1.473   7.242  21.018  0.00  0.00    +0.000 OA
ATOM     29  C   UNL     1       2.770   7.092  19.050  0.00  0.00    +0.000 A 
ATOM     30  C   UNL     1       3.391   5.890  19.408  0.00  0.00    +0.000 A 
BRANCH  20  32
ATOM     31  O   UNL     1       4.318   3.152  19.541  0.00  0.00    +0.000 OA
ATOM     32  C   UNL     1       4.938   4.012  18.941  0.00  0.00    +0.000 C 
BRANCH  32  33
ATOM     33  O   UNL     1       6.239   3.886  18.604  0.00  0.00    +0.000 OA
ATOM     34  H   UNL     1       6.669   3.056  18.875  0.00  0.00    +0.000 HD
ENDBRANCH  32  33
ENDBRANCH  20  32
ENDBRANCH   1  26
TORSDOF 4
ENDMDL
MODEL 6
REMARK VINA RESULT:      -7.9      6.909     10.262
REMARK  Name = 
REMARK  4 active torsions:
REMARK  status: ('A' for Active; 'I' for Inactive)
REMARK    1  A    between atoms: C_2  and  O_3
REMARK    2  A    between atoms: C_2  and  C_4
REMARK    3  A    between atoms: C_10  and  C_11
REMARK    4  A    between atoms: N_12  and  N_13
REMARK                            x       y       z     vdW  Elec       q    Type
REMARK                         _______ _______ _______ _____ _____    ______ ____
ROOT
ATOM      1  C   UNL     1       8.312   8.353  17.654  0.00  0.00    +0.000 C 
ATOM      2  N   UNL     1       8.529   9.403  18.382  0.00  0.00    +0.000 NA
ENDROOT
BRANCH   2   3
ATOM      3  N   UNL     1       9.332  10.353  17.824  0.00  0.00    +0.000 N 
ATOM      4  C   UNL     1       9.284  11.653  18.378  0.00  0.00    +0.000 A 
ATOM      5  N   UNL     1       8.989  11.815  19.687  0.00  0.00    +0.000 NA
ATOM      6  C   UNL     1       8.911  13.049  20.235  0.00  0.00    +0.000 A 
ATOM      7  N   UNL     1       8.632  13.196  21.578  0.00  0.00    +0.000 N 
ATOM      8  C   UNL     1       9.033  12.155  22.528  0.00  0.00    +0.000 C 
ATOM      9  C   UNL     1       7.821  11.506  23.207  0.00  0.00    +0.000 C 
ATOM     10  O   UNL     1       6.925  12.489  23.754  0.00  0.00    +0.000 OA
ATOM     11  C   UNL     1       6.432  13.333  22.705  0.00  0.00    +0.000 C 
ATOM     12  C   UNL     1       7.569  14.102  22.019  0.00  0.00    +0.000 C 
ATOM     13  C   UNL     1       9.194  14.152  19.405  0.00  0.00    +0.000 A 
ATOM     14  C   UNL     1       9.291  15.567  19.650  0.00  0.00    +0.000 A 
ATOM     15  C   UNL     1       9.618  16.284  18.523  0.00  0.00    +0.000 A 
ATOM     16  S   UNL     1       9.839  15.262  17.169  0.00  0.00    +0.000 S 
ATOM     17  C   UNL     1       9.499  13.864  18.088  0.00  0.00    +0.000 A 
ATOM     18  N   UNL     1       9.549  12.648  17.523  0.00  0.00    +0.000 NA
ATOM     19  H   UNL     1       9.362  10.458  16.813  0.00  0.00    +0.000 HD
ENDBRANCH   2   3
BRANCH   1  26
ATOM     20  C   UNL     1       3.513   4.270  18.073  0.00  0.00    +0.000 A 
ATOM     21  C   UNL     1       4.069   3.584  19.161  0.00  0.00    +0.000 A 
ATOM     22  C   UNL     1       5.292   4.000  19.697  0.00  0.00    +0.000 A 
ATOM     23  C   UNL     1       5.965   5.087  19.136  0.00  0.00    +0.000 A 
ATOM     24  O   UNL     1       7.164   5.433  19.704  0.00  0.00    +0.000 OA
ATOM     25  C   UNL     1       7.845   6.493  19.155  0.00  0.00    +0.000 A 
ATOM     26  C   UNL     1       7.453   7.235  18.111  0.00  0.00    +0.000 A 
ATOM     27  C   UNL     1       6.167   6.904  17.466  0.00  0.00    +0.000 A 
ATOM     28  O   UNL     1       5.734   7.535  16.515  0.00  0.00    +0.000 OA
ATOM     29  C   UNL     1       5.422   5.762  18.044  0.00  0.00    +0.000 A 
ATOM     30  C   UNL     1       4.196   5.356  17.505  0.00  0.00    +0.000 A 
BRANCH  20  32
ATOM     31  O   UNL     1       1.285   4.597  17.317  0.00  0.00    +0.000 OA
ATOM     32  C   UNL     1       2.234   3.844  17.450  0.00  0.00    +0.000 C 
BRANCH  32  33
ATOM     33  O   UNL     1       2.209   2.548  17.073  0.00  0.00    +0.000 OA
ATOM     34  H   UNL     1       1.333   2.122  17.080  0.00  0.00    +0.000 HD
ENDBRANCH  32  33
ENDBRANCH  20  32
ENDBRANCH   1  26
TORSDOF 4
ENDMDL
MODEL 7
REMARK VINA RESULT:      -7.8      3.317      4.654
REMARK  Name = 
REMARK  4 active torsions:
REMARK  status: ('A' for Active; 'I' for Inactive)
REMARK    1  A    between atoms: C_2  and  O_3
REMARK    2  A    between atoms: C_2  and  C_4
REMARK    3  A    between atoms: C_10  and  C_11
REMARK    4  A    between atoms: N_12  and  N_13
REMARK                            x       y       z     vdW  Elec       q    Type
REMARK                         _______ _______ _______ _____ _____    ______ ____
ROOT
ATOM      1  C   UNL     1       0.953   8.907  20.498  0.00  0.00    +0.000 C 
ATOM      2  N   UNL     1       1.923   8.058  20.363  0.00  0.00    +0.000 NA
ENDROOT
BRANCH   2   3
ATOM      3  N   UNL     1       1.669   6.794  20.807  0.00  0.00    +0.000 N 
ATOM      4  C   UNL     1       2.191   5.720  20.050  0.00  0.00    +0.000 A 
ATOM      5  N   UNL     1       3.333   5.886  19.349  0.00  0.00    +0.000 NA
ATOM      6  C   UNL     1       3.840   4.883  18.596  0.00  0.00    +0.000 A 
ATOM      7  N   UNL     1       5.020   5.062  17.904  0.00  0.00    +0.000 N 
ATOM      8  C   UNL     1       6.037   5.984  18.416  0.00  0.00    +0.000 C 
ATOM      9  C   UNL     1       6.276   7.157  17.457  0.00  0.00    +0.000 C 
ATOM     10  O   UNL     1       6.512   6.708  16.111  0.00  0.00    +0.000 OA
ATOM     11  C   UNL     1       5.368   5.986  15.634  0.00  0.00    +0.000 C 
ATOM     12  C   UNL     1       5.100   4.733  16.478  0.00  0.00    +0.000 C 
ATOM     13  C   UNL     1       3.161   3.649  18.609  0.00  0.00    +0.000 A 
ATOM     14  C   UNL     1       3.439   2.368  18.017  0.00  0.00    +0.000 A 
ATOM     15  C   UNL     1       2.489   1.421  18.318  0.00  0.00    +0.000 A 
ATOM     16  S   UNL     1       1.270   2.054  19.338  0.00  0.00    +0.000 S 
ATOM     17  C   UNL     1       2.012   3.592  19.377  0.00  0.00    +0.000 A 
ATOM     18  N   UNL     1       1.480   4.588  20.102  0.00  0.00    +0.000 NA
ATOM     19  H   UNL     1       0.724   6.536  21.083  0.00  0.00    +0.000 HD
ENDBRANCH   2   3
BRANCH   1  26
ATOM     20  C   UNL     1       0.764  15.218  20.492  0.00  0.00    +0.000 A 
ATOM     21  C   UNL     1       1.232  15.324  19.175  0.00  0.00    +0.000 A 
ATOM     22  C   UNL     1       1.510  14.169  18.439  0.00  0.00    +0.000 A 
ATOM     23  C   UNL     1       1.337  12.912  19.022  0.00  0.00    +0.000 A 
ATOM     24  O   UNL     1       1.640  11.822  18.246  0.00  0.00    +0.000 OA
ATOM     25  C   UNL     1       1.488  10.579  18.810  0.00  0.00    +0.000 A 
ATOM     26  C   UNL     1       1.066  10.316  20.055  0.00  0.00    +0.000 A 
ATOM     27  C   UNL     1       0.726  11.456  20.929  0.00  0.00    +0.000 A 
ATOM     28  O   UNL     1       0.327  11.303  22.072  0.00  0.00    +0.000 OA
ATOM     29  C   UNL     1       0.887  12.804  20.337  0.00  0.00    +0.000 A 
ATOM     30  C   UNL     1       0.602  13.955  21.079  0.00  0.00    +0.000 A 
BRANCH  20  32
ATOM     31  O   UNL     1       0.841  17.538  20.998  0.00  0.00    +0.000 OA
ATOM     32  C   UNL     1       0.488  16.418  21.324  0.00  0.00    +0.000 C 
BRANCH  32  33
ATOM     33  O   UNL     1      -0.158  16.153  22.478  0.00  0.00    +0.000 OA
ATOM     34  H   UNL     1      -1.031  16.572  22.581  0.00  0.00    +0.000 HD
ENDBRANCH  32  33
ENDBRANCH  20  32
ENDBRANCH   1  26
TORSDOF 4
ENDMDL
MODEL 8
REMARK VINA RESULT:      -7.8      6.754     10.523
REMARK  Name = 
REMARK  4 active torsions:
REMARK  status: ('A' for Active; 'I' for Inactive)
REMARK    1  A    between atoms: C_2  and  O_3
REMARK    2  A    between atoms: C_2  and  C_4
REMARK    3  A    between atoms: C_10  and  C_11
REMARK    4  A    between atoms: N_12  and  N_13
REMARK                            x       y       z     vdW  Elec       q    Type
REMARK                         _______ _______ _______ _____ _____    ______ ____
ROOT
ATOM      1  C   UNL     1       8.206   8.421  17.617  0.00  0.00    +0.000 C 
ATOM      2  N   UNL     1       8.394   9.457  18.372  0.00  0.00    +0.000 NA
ENDROOT
BRANCH   2   3
ATOM      3  N   UNL     1       9.539  10.160  18.138  0.00  0.00    +0.000 N 
ATOM      4  C   UNL     1       9.680  11.410  18.783  0.00  0.00    +0.000 A 
ATOM      5  N   UNL     1       9.087  11.619  19.979  0.00  0.00    +0.000 NA
ATOM      6  C   UNL     1       9.185  12.814  20.605  0.00  0.00    +0.000 A 
ATOM      7  N   UNL     1       8.593  13.003  21.836  0.00  0.00    +0.000 N 
ATOM      8  C   UNL     1       8.430  11.872  22.753  0.00  0.00    +0.000 C 
ATOM      9  C   UNL     1       6.952  11.570  23.026  0.00  0.00    +0.000 C 
ATOM     10  O   UNL     1       6.228  12.750  23.414  0.00  0.00    +0.000 OA
ATOM     11  C   UNL     1       6.282  13.721  22.359  0.00  0.00    +0.000 C 
ATOM     12  C   UNL     1       7.724  14.159  22.071  0.00  0.00    +0.000 C 
ATOM     13  C   UNL     1       9.964  13.813  19.988  0.00  0.00    +0.000 A 
ATOM     14  C   UNL     1      10.354  15.140  20.385  0.00  0.00    +0.000 A 
ATOM     15  C   UNL     1      11.156  15.762  19.457  0.00  0.00    +0.000 A 
ATOM     16  S   UNL     1      11.469  14.749  18.116  0.00  0.00    +0.000 S 
ATOM     17  C   UNL     1      10.536  13.479  18.774  0.00  0.00    +0.000 A 
ATOM     18  N   UNL     1      10.421  12.310  18.127  0.00  0.00    +0.000 NA
ATOM     19  H   UNL     1       9.875  10.274  17.185  0.00  0.00    +0.000 HD
ENDBRANCH   2   3
BRANCH   1  26
ATOM     20  C   UNL     1       4.360   3.711  19.317  0.00  0.00    +0.000 A 
ATOM     21  C   UNL     1       3.276   4.205  18.579  0.00  0.00    +0.000 A 
ATOM     22  C   UNL     1       3.419   5.376  17.827  0.00  0.00    +0.000 A 
ATOM     23  C   UNL     1       4.637   6.058  17.826  0.00  0.00    +0.000 A 
ATOM     24  O   UNL     1       4.703   7.205  17.076  0.00  0.00    +0.000 OA
ATOM     25  C   UNL     1       5.890   7.896  17.076  0.00  0.00    +0.000 A 
ATOM     26  C   UNL     1       7.006   7.560  17.738  0.00  0.00    +0.000 A 
ATOM     27  C   UNL     1       6.986   6.334  18.558  0.00  0.00    +0.000 A 
ATOM     28  O   UNL     1       7.962   5.954  19.185  0.00  0.00    +0.000 OA
ATOM     29  C   UNL     1       5.712   5.578  18.572  0.00  0.00    +0.000 A 
ATOM     30  C   UNL     1       5.579   4.405  19.323  0.00  0.00    +0.000 A 
BRANCH  20  32
ATOM     31  O   UNL     1       3.347   2.335  20.967  0.00  0.00    +0.000 OA
ATOM     32  C   UNL     1       4.244   2.492  20.157  0.00  0.00    +0.000 C 
BRANCH  32  33
ATOM     33  O   UNL     1       5.231   1.592  19.965  0.00  0.00    +0.000 OA
ATOM     34  H   UNL     1       5.950   1.871  19.370  0.00  0.00    +0.000 HD
ENDBRANCH  32  33
ENDBRANCH  20  32
ENDBRANCH   1  26
TORSDOF 4
ENDMDL
MODEL 9
REMARK VINA RESULT:      -7.6      4.575     10.164
REMARK  Name = 
REMARK  4 active torsions:
REMARK  status: ('A' for Active; 'I' for Inactive)
REMARK    1  A    between atoms: C_2  and  O_3
REMARK    2  A    between atoms: C_2  and  C_4
REMARK    3  A    between atoms: C_10  and  C_11
REMARK    4  A    between atoms: N_12  and  N_13
REMARK                            x       y       z     vdW  Elec       q    Type
REMARK                         _______ _______ _______ _____ _____    ______ ____
ROOT
ATOM      1  C   UNL     1       0.487   8.840  20.527  0.00  0.00    +0.000 C 
ATOM      2  N   UNL     1       0.723   9.365  21.689  0.00  0.00    +0.000 NA
ENDROOT
BRANCH   2   3
ATOM      3  N   UNL     1      -0.292  10.104  22.221  0.00  0.00    +0.000 N 
ATOM      4  C   UNL     1      -0.211  11.510  22.093  0.00  0.00    +0.000 A 
ATOM      5  N   UNL     1       0.428  12.052  21.034  0.00  0.00    +0.000 NA
ATOM      6  C   UNL     1       0.542  13.393  20.901  0.00  0.00    +0.000 A 
ATOM      7  N   UNL     1       1.178  13.930  19.801  0.00  0.00    +0.000 N 
ATOM      8  C   UNL     1       1.165  13.213  18.524  0.00  0.00    +0.000 C 
ATOM      9  C   UNL     1       2.576  12.801  18.088  0.00  0.00    +0.000 C 
ATOM     10  O   UNL     1       3.494  13.908  18.133  0.00  0.00    +0.000 OA
ATOM     11  C   UNL     1       3.585  14.408  19.474  0.00  0.00    +0.000 C 
ATOM     12  C   UNL     1       2.233  14.934  19.972  0.00  0.00    +0.000 C 
ATOM     13  C   UNL     1      -0.069  14.200  21.881  0.00  0.00    +0.000 A 
ATOM     14  C   UNL     1      -0.225  15.624  22.023  0.00  0.00    +0.000 A 
ATOM     15  C   UNL     1      -0.926  15.975  23.153  0.00  0.00    +0.000 A 
ATOM     16  S   UNL     1      -1.427  14.598  24.036  0.00  0.00    +0.000 S 
ATOM     17  C   UNL     1      -0.709  13.535  22.910  0.00  0.00    +0.000 A 
ATOM     18  N   UNL     1      -0.802  12.206  23.071  0.00  0.00    +0.000 NA
ATOM     19  H   UNL     1      -0.620   9.906  23.163  0.00  0.00    +0.000 HD
ENDBRANCH   2   3
BRANCH   1  26
ATOM     20  C   UNL     1       4.170   3.959  18.954  0.00  0.00    +0.000 A 
ATOM     21  C   UNL     1       4.745   4.624  17.863  0.00  0.00    +0.000 A 
ATOM     22  C   UNL     1       4.370   5.939  17.570  0.00  0.00    +0.000 A 
ATOM     23  C   UNL     1       3.411   6.580  18.356  0.00  0.00    +0.000 A 
ATOM     24  O   UNL     1       3.082   7.865  18.005  0.00  0.00    +0.000 OA
ATOM     25  C   UNL     1       2.130   8.506  18.761  0.00  0.00    +0.000 A 
ATOM     26  C   UNL     1       1.483   8.001  19.820  0.00  0.00    +0.000 A 
ATOM     27  C   UNL     1       1.803   6.622  20.238  0.00  0.00    +0.000 A 
ATOM     28  O   UNL     1       1.265   6.092  21.197  0.00  0.00    +0.000 OA
ATOM     29  C   UNL     1       2.825   5.916  19.433  0.00  0.00    +0.000 A 
ATOM     30  C   UNL     1       3.199   4.602  19.736  0.00  0.00    +0.000 A 
BRANCH  20  32
ATOM     31  O   UNL     1       5.109   2.240  20.298  0.00  0.00    +0.000 OA
ATOM     32  C   UNL     1       4.513   2.551  19.282  0.00  0.00    +0.000 C 
BRANCH  32  33
ATOM     33  O   UNL     1       4.132   1.657  18.345  0.00  0.00    +0.000 OA
ATOM     34  H   UNL     1       4.798   0.992  18.098  0.00  0.00    +0.000 HD
ENDBRANCH  32  33
ENDBRANCH  20  32
ENDBRANCH   1  26
TORSDOF 4
ENDMDL
