MODEL 1
REMARK VINA RESULT:      -7.7      0.000      0.000
REMARK  Name = 
REMARK  6 active torsions:
REMARK  status: ('A' for Active; 'I' for Inactive)
REMARK    1  A    between atoms: C_1  and  C_2
REMARK    2  A    between atoms: C_4  and  C_5
REMARK    3  A    between atoms: N_7  and  C_8
REMARK    4  A    between atoms: C_8  and  C_9
REMARK    5  A    between atoms: C_8  and  C_15
REMARK    6  A    between atoms: C_20  and  C_21
REMARK                            x       y       z     vdW  Elec       q    Type
REMARK                         _______ _______ _______ _____ _____    ______ ____
ROOT
ATOM      1  C   UNL     1       2.668   6.105  19.308  0.00  0.00    +0.000 C 
ATOM      2  O   UNL     1       2.647   5.529  20.391  0.00  0.00    +0.000 OA
ATOM      3  N   UNL     1       3.213   5.547  18.164  0.00  0.00    +0.000 N 
ATOM      4  H   UNL     1       3.178   6.099  17.315  0.00  0.00    +0.000 HD
ENDROOT
BRANCH   1   8
ATOM      5  C   UNL     1       0.352  10.021  21.391  0.00  0.00    +0.000 C 
ATOM      6  C   UNL     1       1.016   9.407  20.190  0.00  0.00    +0.000 A 
ATOM      7  C   UNL     1       1.487   8.085  20.274  0.00  0.00    +0.000 A 
ATOM      8  C   UNL     1       2.119   7.501  19.175  0.00  0.00    +0.000 A 
ATOM      9  N   UNL     1       2.297   8.145  17.992  0.00  0.00    +0.000 NA
ATOM     10  C   UNL     1       1.824   9.423  17.932  0.00  0.00    +0.000 A 
ATOM     11  C   UNL     1       1.201  10.104  18.981  0.00  0.00    +0.000 A 
BRANCH  11  12
ATOM     12  C   UNL     1       0.727  11.507  18.797  0.00  0.00    +0.000 C 
ATOM     13  N   UNL     1      -0.485  11.698  18.187  0.00  0.00    +0.000 N 
ATOM     14  O   UNL     1       1.387  12.476  19.145  0.00  0.00    +0.000 OA
ATOM     15  H   UNL     1      -0.977  10.985  17.671  0.00  0.00    +0.000 HD
ATOM     16  H   UNL     1      -0.728  12.660  17.988  0.00  0.00    +0.000 HD
ENDBRANCH  11  12
ENDBRANCH   1   8
BRANCH   3  17
ATOM     17  C   UNL     1       3.878   4.256  18.182  0.00  0.00    +0.000 C 
BRANCH  17  18
ATOM     18  C   UNL     1       5.238   4.316  17.504  0.00  0.00    +0.000 A 
ATOM     19  C   UNL     1       6.417   4.578  18.213  0.00  0.00    +0.000 A 
ATOM     20  C   UNL     1       7.605   4.712  17.509  0.00  0.00    +0.000 A 
ATOM     21  N   UNL     1       7.704   4.591  16.169  0.00  0.00    +0.000 NA
ATOM     22  C   UNL     1       6.563   4.321  15.501  0.00  0.00    +0.000 A 
ATOM     23  C   UNL     1       5.327   4.174  16.113  0.00  0.00    +0.000 A 
ENDBRANCH  17  18
BRANCH  17  24
ATOM     24  C   UNL     1       3.026   3.198  17.514  0.00  0.00    +0.000 C 
ATOM     25  C   UNL     1       2.897   1.821  18.140  0.00  0.00    +0.000 C 
ATOM     26  C   UNL     1       1.714   2.744  18.116  0.00  0.00    +0.000 C 
ENDBRANCH  17  24
ENDBRANCH   3  17
TORSDOF 5
ENDMDL
MODEL 2
REMARK VINA RESULT:      -7.7      0.255      1.011
REMARK  Name = 
REMARK  6 active torsions:
REMARK  status: ('A' for Active; 'I' for Inactive)
REMARK    1  A    between atoms: C_1  and  C_2
REMARK    2  A    between atoms: C_4  and  C_5
REMARK    3  A    between atoms: N_7  and  C_8
REMARK    4  A    between atoms: C_8  and  C_9
REMARK    5  A    between atoms: C_8  and  C_15
REMARK    6  A    between atoms: C_20  and  C_21
REMARK                            x       y       z     vdW  Elec       q    Type
REMARK                         _______ _______ _______ _____ _____    ______ ____
ROOT
ATOM      1  C   UNL     1       2.578   6.340  19.235  0.00  0.00    +0.000 C 
ATOM      2  O   UNL     1       2.507   5.726  20.295  0.00  0.00    +0.000 OA
ATOM      3  N   UNL     1       3.162   5.816  18.095  0.00  0.00    +0.000 N 
ATOM      4  H   UNL     1       3.167   6.398  17.266  0.00  0.00    +0.000 HD
ENDROOT
BRANCH   1   8
ATOM      5  C   UNL     1       0.263  10.224  21.377  0.00  0.00    +0.000 C 
ATOM      6  C   UNL     1       0.949   9.637  20.175  0.00  0.00    +0.000 A 
ATOM      7  C   UNL     1       1.399   8.307  20.231  0.00  0.00    +0.000 A 
ATOM      8  C   UNL     1       2.052   7.746  19.131  0.00  0.00    +0.000 A 
ATOM      9  N   UNL     1       2.267   8.423  17.973  0.00  0.00    +0.000 NA
ATOM     10  C   UNL     1       1.813   9.708  17.939  0.00  0.00    +0.000 A 
ATOM     11  C   UNL     1       1.173  10.367  18.993  0.00  0.00    +0.000 A 
BRANCH  11  12
ATOM     12  C   UNL     1       0.723  11.781  18.839  0.00  0.00    +0.000 C 
ATOM     13  N   UNL     1      -0.443  12.011  18.157  0.00  0.00    +0.000 N 
ATOM     14  O   UNL     1       1.363  12.727  19.275  0.00  0.00    +0.000 OA
ATOM     15  H   UNL     1      -0.904  11.326  17.577  0.00  0.00    +0.000 HD
ATOM     16  H   UNL     1      -0.665  12.983  17.985  0.00  0.00    +0.000 HD
ENDBRANCH  11  12
ENDBRANCH   1   8
BRANCH   3  17
ATOM     17  C   UNL     1       3.811   4.516  18.093  0.00  0.00    +0.000 C 
BRANCH  17  18
ATOM     18  C   UNL     1       5.176   4.571  17.425  0.00  0.00    +0.000 A 
ATOM     19  C   UNL     1       5.340   4.410  16.044  0.00  0.00    +0.000 A 
ATOM     20  C   UNL     1       6.625   4.376  15.523  0.00  0.00    +0.000 A 
ATOM     21  N   UNL     1       7.744   4.504  16.267  0.00  0.00    +0.000 NA
ATOM     22  C   UNL     1       7.570   4.676  17.593  0.00  0.00    +0.000 A 
ATOM     23  C   UNL     1       6.328   4.719  18.209  0.00  0.00    +0.000 A 
ENDBRANCH  17  18
BRANCH  17  24
ATOM     24  C   UNL     1       2.950   3.481  17.399  0.00  0.00    +0.000 C 
ATOM     25  C   UNL     1       2.827   2.084  17.981  0.00  0.00    +0.000 C 
ATOM     26  C   UNL     1       1.645   3.007  18.001  0.00  0.00    +0.000 C 
ENDBRANCH  17  24
ENDBRANCH   3  17
TORSDOF 5
ENDMDL
MODEL 3
REMARK VINA RESULT:      -7.5      1.173      1.505
REMARK  Name = 
REMARK  6 active torsions:
REMARK  status: ('A' for Active; 'I' for Inactive)
REMARK    1  A    between atoms: C_1  and  C_2
REMARK    2  A    between atoms: C_4  and  C_5
REMARK    3  A    between atoms: N_7  and  C_8
REMARK    4  A    between atoms: C_8  and  C_9
REMARK    5  A    between atoms: C_8  and  C_15
REMARK    6  A    between atoms: C_20  and  C_21
REMARK                            x       y       z     vdW  Elec       q    Type
REMARK                         _______ _______ _______ _____ _____    ______ ____
ROOT
ATOM      1  C   UNL     1       2.665   6.110  19.531  0.00  0.00    +0.000 C 
ATOM      2  O   UNL     1       2.841   5.361  20.486  0.00  0.00    +0.000 OA
ATOM      3  N   UNL     1       3.096   5.816  18.249  0.00  0.00    +0.000 N 
ATOM      4  H   UNL     1       2.898   6.495  17.524  0.00  0.00    +0.000 HD
ENDROOT
BRANCH   1   8
ATOM      5  C   UNL     1       0.257   9.311  22.529  0.00  0.00    +0.000 C 
ATOM      6  C   UNL     1       0.835   9.000  21.176  0.00  0.00    +0.000 A 
ATOM      7  C   UNL     1       1.427   7.743  20.963  0.00  0.00    +0.000 A 
ATOM      8  C   UNL     1       1.983   7.439  19.718  0.00  0.00    +0.000 A 
ATOM      9  N   UNL     1       1.970   8.302  18.669  0.00  0.00    +0.000 NA
ATOM     10  C   UNL     1       1.381   9.511  18.898  0.00  0.00    +0.000 A 
ATOM     11  C   UNL     1       0.821   9.920  20.112  0.00  0.00    +0.000 A 
BRANCH  11  12
ATOM     12  C   UNL     1       0.207  11.274  20.243  0.00  0.00    +0.000 C 
ATOM     13  N   UNL     1       1.016  12.308  20.636  0.00  0.00    +0.000 N 
ATOM     14  O   UNL     1      -0.980  11.480  20.037  0.00  0.00    +0.000 OA
ATOM     15  H   UNL     1       1.931  12.187  21.041  0.00  0.00    +0.000 HD
ATOM     16  H   UNL     1       0.547  13.187  20.811  0.00  0.00    +0.000 HD
ENDBRANCH  11  12
ENDBRANCH   1   8
BRANCH   3  17
ATOM     17  C   UNL     1       3.869   4.621  17.955  0.00  0.00    +0.000 C 
BRANCH  17  18
ATOM     18  C   UNL     1       5.060   4.929  17.061  0.00  0.00    +0.000 A 
ATOM     19  C   UNL     1       5.285   4.254  15.855  0.00  0.00    +0.000 A 
ATOM     20  C   UNL     1       6.445   4.524  15.144  0.00  0.00    +0.000 A 
ATOM     21  N   UNL     1       7.379   5.416  15.536  0.00  0.00    +0.000 NA
ATOM     22  C   UNL     1       7.141   6.071  16.692  0.00  0.00    +0.000 A 
ATOM     23  C   UNL     1       6.014   5.868  17.475  0.00  0.00    +0.000 A 
ENDBRANCH  17  18
BRANCH  17  24
ATOM     24  C   UNL     1       3.004   3.565  17.298  0.00  0.00    +0.000 C 
ATOM     25  C   UNL     1       2.940   2.166  17.884  0.00  0.00    +0.000 C 
ATOM     26  C   UNL     1       1.737   3.060  17.955  0.00  0.00    +0.000 C 
ENDBRANCH  17  24
ENDBRANCH   3  17
TORSDOF 5
ENDMDL
MODEL 4
REMARK VINA RESULT:      -7.5      1.249      1.962
REMARK  Name = 
REMARK  6 active torsions:
REMARK  status: ('A' for Active; 'I' for Inactive)
REMARK    1  A    between atoms: C_1  and  C_2
REMARK    2  A    between atoms: C_4  and  C_5
REMARK    3  A    between atoms: N_7  and  C_8
REMARK    4  A    between atoms: C_8  and  C_9
REMARK    5  A    between atoms: C_8  and  C_15
REMARK    6  A    between atoms: C_20  and  C_21
REMARK                            x       y       z     vdW  Elec       q    Type
REMARK                         _______ _______ _______ _____ _____    ______ ____
ROOT
ATOM      1  C   UNL     1       2.658   5.659  19.802  0.00  0.00    +0.000 C 
ATOM      2  O   UNL     1       2.654   4.885  20.754  0.00  0.00    +0.000 OA
ATOM      3  N   UNL     1       3.226   5.350  18.578  0.00  0.00    +0.000 N 
ATOM      4  H   UNL     1       3.174   6.053  17.850  0.00  0.00    +0.000 HD
ENDROOT
BRANCH   1   8
ATOM      5  C   UNL     1       1.724  10.141  17.785  0.00  0.00    +0.000 C 
ATOM      6  C   UNL     1       1.587   9.199  18.948  0.00  0.00    +0.000 A 
ATOM      7  C   UNL     1       2.186   7.930  18.869  0.00  0.00    +0.000 A 
ATOM      8  C   UNL     1       2.059   7.034  19.933  0.00  0.00    +0.000 A 
ATOM      9  N   UNL     1       1.387   7.330  21.076  0.00  0.00    +0.000 NA
ATOM     10  C   UNL     1       0.823   8.570  21.132  0.00  0.00    +0.000 A 
ATOM     11  C   UNL     1       0.871   9.527  20.114  0.00  0.00    +0.000 A 
BRANCH  11  12
ATOM     12  C   UNL     1       0.210  10.853  20.291  0.00  0.00    +0.000 C 
ATOM     13  N   UNL     1       0.940  11.861  20.862  0.00  0.00    +0.000 N 
ATOM     14  O   UNL     1      -0.952  11.057  19.969  0.00  0.00    +0.000 OA
ATOM     15  H   UNL     1       1.807  11.722  21.357  0.00  0.00    +0.000 HD
ATOM     16  H   UNL     1       0.431  12.714  21.057  0.00  0.00    +0.000 HD
ENDBRANCH  11  12
ENDBRANCH   1   8
BRANCH   3  17
ATOM     17  C   UNL     1       3.939   4.104  18.355  0.00  0.00    +0.000 C 
BRANCH  17  18
ATOM     18  C   UNL     1       5.236   4.327  17.595  0.00  0.00    +0.000 A 
ATOM     19  C   UNL     1       5.334   4.142  16.210  0.00  0.00    +0.000 A 
ATOM     20  C   UNL     1       6.574   4.271  15.604  0.00  0.00    +0.000 A 
ATOM     21  N   UNL     1       7.708   4.582  16.266  0.00  0.00    +0.000 NA
ATOM     22  C   UNL     1       7.597   4.774  17.597  0.00  0.00    +0.000 A 
ATOM     23  C   UNL     1       6.403   4.663  18.295  0.00  0.00    +0.000 A 
ENDBRANCH  17  18
BRANCH  17  24
ATOM     24  C   UNL     1       3.075   3.114  17.602  0.00  0.00    +0.000 C 
ATOM     25  C   UNL     1       2.921   1.695  18.121  0.00  0.00    +0.000 C 
ATOM     26  C   UNL     1       1.752   2.635  18.159  0.00  0.00    +0.000 C 
ENDBRANCH  17  24
ENDBRANCH   3  17
TORSDOF 5
ENDMDL
MODEL 5
REMARK VINA RESULT:      -7.4      2.420      8.174
REMARK  Name = 
REMARK  6 active torsions:
REMARK  status: ('A' for Active; 'I' for Inactive)
REMARK    1  A    between atoms: C_1  and  C_2
REMARK    2  A    between atoms: C_4  and  C_5
REMARK    3  A    between atoms: N_7  and  C_8
REMARK    4  A    between atoms: C_8  and  C_9
REMARK    5  A    between atoms: C_8  and  C_15
REMARK    6  A    between atoms: C_20  and  C_21
REMARK                            x       y       z     vdW  Elec       q    Type
REMARK                         _______ _______ _______ _____ _____    ______ ____
ROOT
ATOM      1  C   UNL     1       1.727   9.086  18.313  0.00  0.00    +0.000 C 
ATOM      2  O   UNL     1       2.049  10.002  17.563  0.00  0.00    +0.000 OA
ATOM      3  N   UNL     1       0.630   9.148  19.155  0.00  0.00    +0.000 N 
ATOM      4  H   UNL     1       0.441   8.337  19.733  0.00  0.00    +0.000 HD
ENDROOT
BRANCH   1   8
ATOM      5  C   UNL     1       5.289   6.180  16.339  0.00  0.00    +0.000 C 
ATOM      6  C   UNL     1       4.293   6.430  17.437  0.00  0.00    +0.000 A 
ATOM      7  C   UNL     1       3.473   7.570  17.365  0.00  0.00    +0.000 A 
ATOM      8  C   UNL     1       2.552   7.828  18.382  0.00  0.00    +0.000 A 
ATOM      9  N   UNL     1       2.385   7.015  19.456  0.00  0.00    +0.000 NA
ATOM     10  C   UNL     1       3.185   5.911  19.499  0.00  0.00    +0.000 A 
ATOM     11  C   UNL     1       4.153   5.578  18.548  0.00  0.00    +0.000 A 
BRANCH  11  12
ATOM     12  C   UNL     1       4.974   4.341  18.705  0.00  0.00    +0.000 C 
ATOM     13  N   UNL     1       4.477   3.173  18.188  0.00  0.00    +0.000 N 
ATOM     14  O   UNL     1       6.046   4.333  19.292  0.00  0.00    +0.000 OA
ATOM     15  H   UNL     1       3.519   3.044  17.900  0.00  0.00    +0.000 HD
ATOM     16  H   UNL     1       5.010   2.340  18.400  0.00  0.00    +0.000 HD
ENDBRANCH  11  12
ENDBRANCH   1   8
BRANCH   3  17
ATOM     17  C   UNL     1      -0.181  10.347  19.272  0.00  0.00    +0.000 C 
BRANCH  17  18
ATOM     18  C   UNL     1      -0.429  10.719  20.725  0.00  0.00    +0.000 A 
ATOM     19  C   UNL     1      -0.271   9.800  21.770  0.00  0.00    +0.000 A 
ATOM     20  C   UNL     1      -0.609  10.187  23.058  0.00  0.00    +0.000 A 
ATOM     21  N   UNL     1      -1.074  11.413  23.379  0.00  0.00    +0.000 NA
ATOM     22  C   UNL     1      -1.206  12.293  22.365  0.00  0.00    +0.000 A 
ATOM     23  C   UNL     1      -0.899  12.000  21.045  0.00  0.00    +0.000 A 
ENDBRANCH  17  18
BRANCH  17  24
ATOM     24  C   UNL     1      -1.508  10.175  18.561  0.00  0.00    +0.000 C 
ATOM     25  C   UNL     1      -1.974  11.221  17.563  0.00  0.00    +0.000 C 
ATOM     26  C   UNL     1      -1.577   9.856  17.083  0.00  0.00    +0.000 C 
ENDBRANCH  17  24
ENDBRANCH   3  17
TORSDOF 5
ENDMDL
MODEL 6
REMARK VINA RESULT:      -7.3      1.352      1.779
REMARK  Name = 
REMARK  6 active torsions:
REMARK  status: ('A' for Active; 'I' for Inactive)
REMARK    1  A    between atoms: C_1  and  C_2
REMARK    2  A    between atoms: C_4  and  C_5
REMARK    3  A    between atoms: N_7  and  C_8
REMARK    4  A    between atoms: C_8  and  C_9
REMARK    5  A    between atoms: C_8  and  C_15
REMARK    6  A    between atoms: C_20  and  C_21
REMARK                            x       y       z     vdW  Elec       q    Type
REMARK                         _______ _______ _______ _____ _____    ______ ____
ROOT
ATOM      1  C   UNL     1       2.772   5.782  19.647  0.00  0.00    +0.000 C 
ATOM      2  O   UNL     1       2.884   4.991  20.578  0.00  0.00    +0.000 OA
ATOM      3  N   UNL     1       3.272   5.535  18.380  0.00  0.00    +0.000 N 
ATOM      4  H   UNL     1       3.124   6.246  17.675  0.00  0.00    +0.000 HD
ENDROOT
BRANCH   1   8
ATOM      5  C   UNL     1       1.534  10.285  17.852  0.00  0.00    +0.000 C 
ATOM      6  C   UNL     1       1.477   9.286  18.974  0.00  0.00    +0.000 A 
ATOM      7  C   UNL     1       2.148   8.059  18.827  0.00  0.00    +0.000 A 
ATOM      8  C   UNL     1       2.096   7.111  19.851  0.00  0.00    +0.000 A 
ATOM      9  N   UNL     1       1.432   7.316  21.018  0.00  0.00    +0.000 NA
ATOM     10  C   UNL     1       0.797   8.517  21.141  0.00  0.00    +0.000 A 
ATOM     11  C   UNL     1       0.768   9.518  20.167  0.00  0.00    +0.000 A 
BRANCH  11  12
ATOM     12  C   UNL     1       0.034  10.794  20.415  0.00  0.00    +0.000 C 
ATOM     13  N   UNL     1       0.705  11.806  21.050  0.00  0.00    +0.000 N 
ATOM     14  O   UNL     1      -1.136  10.952  20.096  0.00  0.00    +0.000 OA
ATOM     15  H   UNL     1       1.576  11.684  21.544  0.00  0.00    +0.000 HD
ATOM     16  H   UNL     1       0.149  12.616  21.291  0.00  0.00    +0.000 HD
ENDBRANCH  11  12
ENDBRANCH   1   8
BRANCH   3  17
ATOM     17  C   UNL     1       4.046   4.343  18.080  0.00  0.00    +0.000 C 
BRANCH  17  18
ATOM     18  C   UNL     1       5.265   4.664  17.229  0.00  0.00    +0.000 A 
ATOM     19  C   UNL     1       6.164   5.684  17.564  0.00  0.00    +0.000 A 
ATOM     20  C   UNL     1       7.197   5.979  16.688  0.00  0.00    +0.000 A 
ATOM     21  N   UNL     1       7.405   5.331  15.522  0.00  0.00    +0.000 NA
ATOM     22  C   UNL     1       6.541   4.340  15.220  0.00  0.00    +0.000 A 
ATOM     23  C   UNL     1       5.476   3.973  16.028  0.00  0.00    +0.000 A 
ENDBRANCH  17  18
BRANCH  17  24
ATOM     24  C   UNL     1       3.195   3.308  17.374  0.00  0.00    +0.000 C 
ATOM     25  C   UNL     1       3.011   1.931  17.987  0.00  0.00    +0.000 C 
ATOM     26  C   UNL     1       1.851   2.881  17.924  0.00  0.00    +0.000 C 
ENDBRANCH  17  24
ENDBRANCH   3  17
TORSDOF 5
ENDMDL
MODEL 7
REMARK VINA RESULT:      -7.3      2.348      8.057
REMARK  Name = 
REMARK  6 active torsions:
REMARK  status: ('A' for Active; 'I' for Inactive)
REMARK    1  A    between atoms: C_1  and  C_2
REMARK    2  A    between atoms: C_4  and  C_5
REMARK    3  A    between atoms: N_7  and  C_8
REMARK    4  A    between atoms: C_8  and  C_9
REMARK    5  A    between atoms: C_8  and  C_15
REMARK    6  A    between atoms: C_20  and  C_21
REMARK                            x       y       z     vdW  Elec       q    Type
REMARK                         _______ _______ _______ _____ _____    ______ ____
ROOT
ATOM      1  C   UNL     1       1.776   9.076  18.301  0.00  0.00    +0.000 C 
ATOM      2  O   UNL     1       2.183   9.986  17.587  0.00  0.00    +0.000 OA
ATOM      3  N   UNL     1       0.640   9.179  19.085  0.00  0.00    +0.000 N 
ATOM      4  H   UNL     1       0.380   8.370  19.636  0.00  0.00    +0.000 HD
ENDROOT
BRANCH   1   8
ATOM      5  C   UNL     1       2.538   4.703  20.610  0.00  0.00    +0.000 C 
ATOM      6  C   UNL     1       2.889   5.649  19.496  0.00  0.00    +0.000 A 
ATOM      7  C   UNL     1       2.233   6.890  19.426  0.00  0.00    +0.000 A 
ATOM      8  C   UNL     1       2.534   7.778  18.390  0.00  0.00    +0.000 A 
ATOM      9  N   UNL     1       3.459   7.513  17.431  0.00  0.00    +0.000 NA
ATOM     10  C   UNL     1       4.088   6.307  17.526  0.00  0.00    +0.000 A 
ATOM     11  C   UNL     1       3.841   5.341  18.506  0.00  0.00    +0.000 A 
BRANCH  11  12
ATOM     12  C   UNL     1       4.592   4.052  18.504  0.00  0.00    +0.000 C 
ATOM     13  N   UNL     1       5.846   4.041  19.057  0.00  0.00    +0.000 N 
ATOM     14  O   UNL     1       4.141   3.028  18.012  0.00  0.00    +0.000 OA
ATOM     15  H   UNL     1       6.377   4.871  19.272  0.00  0.00    +0.000 HD
ATOM     16  H   UNL     1       6.364   3.179  18.949  0.00  0.00    +0.000 HD
ENDBRANCH  11  12
ENDBRANCH   1   8
BRANCH   3  17
ATOM     17  C   UNL     1      -0.117  10.415  19.180  0.00  0.00    +0.000 C 
BRANCH  17  18
ATOM     18  C   UNL     1      -0.282  10.862  20.624  0.00  0.00    +0.000 A 
ATOM     19  C   UNL     1      -0.359   9.952  21.685  0.00  0.00    +0.000 A 
ATOM     20  C   UNL     1      -0.607  10.433  22.962  0.00  0.00    +0.000 A 
ATOM     21  N   UNL     1      -0.767  11.740  23.257  0.00  0.00    +0.000 NA
ATOM     22  C   UNL     1      -0.674  12.607  22.228  0.00  0.00    +0.000 A 
ATOM     23  C   UNL     1      -0.434  12.224  20.917  0.00  0.00    +0.000 A 
ENDBRANCH  17  18
BRANCH  17  24
ATOM     24  C   UNL     1      -1.480  10.267  18.538  0.00  0.00    +0.000 C 
ATOM     25  C   UNL     1      -1.951  11.285  17.514  0.00  0.00    +0.000 C 
ATOM     26  C   UNL     1      -1.630   9.885  17.081  0.00  0.00    +0.000 C 
ENDBRANCH  17  24
ENDBRANCH   3  17
TORSDOF 5
ENDMDL
MODEL 8
REMARK VINA RESULT:      -7.3      2.346      8.015
REMARK  Name = 
REMARK  6 active torsions:
REMARK  status: ('A' for Active; 'I' for Inactive)
REMARK    1  A    between atoms: C_1  and  C_2
REMARK    2  A    between atoms: C_4  and  C_5
REMARK    3  A    between atoms: N_7  and  C_8
REMARK    4  A    between atoms: C_8  and  C_9
REMARK    5  A    between atoms: C_8  and  C_15
REMARK    6  A    between atoms: C_20  and  C_21
REMARK                            x       y       z     vdW  Elec       q    Type
REMARK                         _______ _______ _______ _____ _____    ______ ____
ROOT
ATOM      1  C   UNL     1       1.729   9.075  18.286  0.00  0.00    +0.000 C 
ATOM      2  O   UNL     1       2.094   9.977  17.538  0.00  0.00    +0.000 OA
ATOM      3  N   UNL     1       0.591   9.157  19.070  0.00  0.00    +0.000 N 
ATOM      4  H   UNL     1       0.368   8.357  19.651  0.00  0.00    +0.000 HD
ENDROOT
BRANCH   1   8
ATOM      5  C   UNL     1       2.574   4.740  20.637  0.00  0.00    +0.000 C 
ATOM      6  C   UNL     1       2.939   5.704  19.542  0.00  0.00    +0.000 A 
ATOM      7  C   UNL     1       2.229   6.913  19.435  0.00  0.00    +0.000 A 
ATOM      8  C   UNL     1       2.542   7.815  18.417  0.00  0.00    +0.000 A 
ATOM      9  N   UNL     1       3.529   7.597  17.510  0.00  0.00    +0.000 NA
ATOM     10  C   UNL     1       4.210   6.422  17.640  0.00  0.00    +0.000 A 
ATOM     11  C   UNL     1       3.956   5.444  18.606  0.00  0.00    +0.000 A 
BRANCH  11  12
ATOM     12  C   UNL     1       4.768   4.193  18.646  0.00  0.00    +0.000 C 
ATOM     13  N   UNL     1       4.348   3.133  17.886  0.00  0.00    +0.000 N 
ATOM     14  O   UNL     1       5.766   4.078  19.343  0.00  0.00    +0.000 OA
ATOM     15  H   UNL     1       3.431   3.062  17.471  0.00  0.00    +0.000 HD
ATOM     16  H   UNL     1       4.863   2.271  18.014  0.00  0.00    +0.000 HD
ENDBRANCH  11  12
ENDBRANCH   1   8
BRANCH   3  17
ATOM     17  C   UNL     1      -0.218  10.362  19.126  0.00  0.00    +0.000 C 
BRANCH  17  18
ATOM     18  C   UNL     1      -0.442  10.823  20.557  0.00  0.00    +0.000 A 
ATOM     19  C   UNL     1      -0.596  12.173  20.893  0.00  0.00    +0.000 A 
ATOM     20  C   UNL     1      -0.700  12.521  22.232  0.00  0.00    +0.000 A 
ATOM     21  N   UNL     1      -0.677  11.631  23.246  0.00  0.00    +0.000 NA
ATOM     22  C   UNL     1      -0.546  10.332  22.906  0.00  0.00    +0.000 A 
ATOM     23  C   UNL     1      -0.430   9.885  21.598  0.00  0.00    +0.000 A 
ENDBRANCH  17  18
BRANCH  17  24
ATOM     24  C   UNL     1      -1.555  10.149  18.447  0.00  0.00    +0.000 C 
ATOM     25  C   UNL     1      -2.119  11.219  17.529  0.00  0.00    +0.000 C 
ATOM     26  C   UNL     1      -1.656   9.912  16.956  0.00  0.00    +0.000 C 
ENDBRANCH  17  24
ENDBRANCH   3  17
TORSDOF 5
ENDMDL
MODEL 9
REMARK VINA RESULT:      -7.0      1.794      2.190
REMARK  Name = 
REMARK  6 active torsions:
REMARK  status: ('A' for Active; 'I' for Inactive)
REMARK    1  A    between atoms: C_1  and  C_2
REMARK    2  A    between atoms: C_4  and  C_5
REMARK    3  A    between atoms: N_7  and  C_8
REMARK    4  A    between atoms: C_8  and  C_9
REMARK    5  A    between atoms: C_8  and  C_15
REMARK    6  A    between atoms: C_20  and  C_21
REMARK                            x       y       z     vdW  Elec       q    Type
REMARK                         _______ _______ _______ _____ _____    ______ ____
ROOT
ATOM      1  C   UNL     1       2.026   6.801  20.111  0.00  0.00    +0.000 C 
ATOM      2  O   UNL     1       1.860   5.888  20.913  0.00  0.00    +0.000 OA
ATOM      3  N   UNL     1       2.838   6.690  18.996  0.00  0.00    +0.000 N 
ATOM      4  H   UNL     1       2.906   7.498  18.388  0.00  0.00    +0.000 HD
ENDROOT
BRANCH   1   8
ATOM      5  C   UNL     1      -0.454   9.922  23.134  0.00  0.00    +0.000 C 
ATOM      6  C   UNL     1       0.180   9.657  21.797  0.00  0.00    +0.000 A 
ATOM      7  C   UNL     1       0.756   8.398  21.555  0.00  0.00    +0.000 A 
ATOM      8  C   UNL     1       1.363   8.135  20.325  0.00  0.00    +0.000 A 
ATOM      9  N   UNL     1       1.416   9.042  19.316  0.00  0.00    +0.000 NA
ATOM     10  C   UNL     1       0.841  10.253  19.570  0.00  0.00    +0.000 A 
ATOM     11  C   UNL     1       0.234  10.622  20.774  0.00  0.00    +0.000 A 
BRANCH  11  12
ATOM     12  C   UNL     1      -0.358  11.982  20.936  0.00  0.00    +0.000 C 
ATOM     13  N   UNL     1       0.465  12.991  21.362  0.00  0.00    +0.000 N 
ATOM     14  O   UNL     1      -1.540  12.214  20.728  0.00  0.00    +0.000 OA
ATOM     15  H   UNL     1       1.375  12.845  21.770  0.00  0.00    +0.000 HD
ATOM     16  H   UNL     1       0.010  13.874  21.557  0.00  0.00    +0.000 HD
ENDBRANCH  11  12
ENDBRANCH   1   8
BRANCH   3  17
ATOM     17  C   UNL     1       3.626   5.498  18.735  0.00  0.00    +0.000 C 
BRANCH  17  18
ATOM     18  C   UNL     1       5.066   5.840  18.390  0.00  0.00    +0.000 A 
ATOM     19  C   UNL     1       5.400   6.664  17.308  0.00  0.00    +0.000 A 
ATOM     20  C   UNL     1       6.740   6.852  16.999  0.00  0.00    +0.000 A 
ATOM     21  N   UNL     1       7.757   6.296  17.690  0.00  0.00    +0.000 NA
ATOM     22  C   UNL     1       7.421   5.518  18.739  0.00  0.00    +0.000 A 
ATOM     23  C   UNL     1       6.112   5.267  19.125  0.00  0.00    +0.000 A 
ENDBRANCH  17  18
BRANCH  17  24
ATOM     24  C   UNL     1       3.017   4.681  17.614  0.00  0.00    +0.000 C 
ATOM     25  C   UNL     1       2.733   3.203  17.820  0.00  0.00    +0.000 C 
ATOM     26  C   UNL     1       1.594   4.172  17.689  0.00  0.00    +0.000 C 
ENDBRANCH  17  24
ENDBRANCH   3  17
TORSDOF 5
ENDMDL
