MODEL 1
REMARK VINA RESULT:      -7.3      0.000      0.000
REMARK  Name = 
REMARK  2 active torsions:
REMARK  status: ('A' for Active; 'I' for Inactive)
REMARK    1  A    between atoms: C_2  and  C_4
REMARK    2  A    between atoms: C_6  and  C_7
REMARK                            x       y       z     vdW  Elec       q    Type
REMARK                         _______ _______ _______ _____ _____    ______ ____
ROOT
ATOM      1  C   UNL     1       6.494   5.468  18.277  0.00  0.00    +0.000 A 
ATOM      2  C   UNL     1       5.374   4.722  18.698  0.00  0.00    +0.000 A 
ATOM      3  C   UNL     1       4.075   5.179  18.450  0.00  0.00    +0.000 A 
ATOM      4  C   UNL     1       3.900   6.390  17.769  0.00  0.00    +0.000 A 
ATOM      5  C   UNL     1       5.004   7.116  17.315  0.00  0.00    +0.000 A 
ATOM      6  C   UNL     1       6.299   6.658  17.558  0.00  0.00    +0.000 A 
ATOM      7 CL   UNL     1       7.585   7.614  16.896  0.00  0.00    +0.000 Cl
ENDROOT
BRANCH   3   8
ATOM      8  C   UNL     1       2.896   4.430  18.917  0.00  0.00    +0.000 C 
ATOM      9  C   UNL     1       2.189   4.881  19.970  0.00  0.00    +0.000 C 
ATOM     10  C   UNL     1       0.966   4.183  20.497  0.00  0.00    +0.000 C 
ATOM     11  C   UNL     1       0.812   2.758  19.966  0.00  0.00    +0.000 C 
ATOM     12  C   UNL     1       1.088   2.701  18.467  0.00  0.00    +0.000 C 
ATOM     13  C   UNL     1       2.504   3.195  18.143  0.00  0.00    +0.000 C 
ENDBRANCH   3   8
BRANCH   1  15
ATOM     14  N   UNL     1       8.351   5.321  19.852  0.00  0.00    +0.000 N 
ATOM     15  C   UNL     1       7.831   4.942  18.649  0.00  0.00    +0.000 C 
ATOM     16  O   UNL     1       8.434   4.156  17.922  0.00  0.00    +0.000 OA
ATOM     17  H   UNL     1       9.291   5.036  20.082  0.00  0.00    +0.000 HD
ATOM     18  H   UNL     1       7.914   6.037  20.423  0.00  0.00    +0.000 HD
ENDBRANCH   1  15
TORSDOF 2
ENDMDL
MODEL 2
REMARK VINA RESULT:      -7.2      1.703      1.999
REMARK  Name = 
REMARK  2 active torsions:
REMARK  status: ('A' for Active; 'I' for Inactive)
REMARK    1  A    between atoms: C_2  and  C_4
REMARK    2  A    between atoms: C_6  and  C_7
REMARK                            x       y       z     vdW  Elec       q    Type
REMARK                         _______ _______ _______ _____ _____    ______ ____
ROOT
ATOM      1  C   UNL     1       6.403   5.161  18.019  0.00  0.00    +0.000 A 
ATOM      2  C   UNL     1       5.404   4.793  18.944  0.00  0.00    +0.000 A 
ATOM      3  C   UNL     1       4.265   4.093  18.527  0.00  0.00    +0.000 A 
ATOM      4  C   UNL     1       4.134   3.755  17.175  0.00  0.00    +0.000 A 
ATOM      5  C   UNL     1       5.138   4.083  16.260  0.00  0.00    +0.000 A 
ATOM      6  C   UNL     1       6.275   4.776  16.675  0.00  0.00    +0.000 A 
ATOM      7 CL   UNL     1       7.476   5.073  15.461  0.00  0.00    +0.000 Cl
ENDROOT
BRANCH   3   8
ATOM      8  C   UNL     1       3.196   3.736  19.474  0.00  0.00    +0.000 C 
ATOM      9  C   UNL     1       3.479   2.988  20.556  0.00  0.00    +0.000 C 
ATOM     10  C   UNL     1       2.447   2.595  21.576  0.00  0.00    +0.000 C 
ATOM     11  C   UNL     1       1.013   2.816  21.096  0.00  0.00    +0.000 C 
ATOM     12  C   UNL     1       0.870   4.168  20.406  0.00  0.00    +0.000 C 
ATOM     13  C   UNL     1       1.815   4.281  19.201  0.00  0.00    +0.000 C 
ENDBRANCH   3   8
BRANCH   1  15
ATOM     14  N   UNL     1       8.193   5.498  19.641  0.00  0.00    +0.000 N 
ATOM     15  C   UNL     1       7.537   5.964  18.539  0.00  0.00    +0.000 C 
ATOM     16  O   UNL     1       7.907   6.990  17.974  0.00  0.00    +0.000 OA
ATOM     17  H   UNL     1       8.914   6.072  20.052  0.00  0.00    +0.000 HD
ATOM     18  H   UNL     1       7.849   4.706  20.174  0.00  0.00    +0.000 HD
ENDBRANCH   1  15
TORSDOF 2
ENDMDL
MODEL 3
REMARK VINA RESULT:      -7.2      4.153      5.847
REMARK  Name = 
REMARK  2 active torsions:
REMARK  status: ('A' for Active; 'I' for Inactive)
REMARK    1  A    between atoms: C_2  and  C_4
REMARK    2  A    between atoms: C_6  and  C_7
REMARK                            x       y       z     vdW  Elec       q    Type
REMARK                         _______ _______ _______ _____ _____    ______ ____
ROOT
ATOM      1  C   UNL     1       4.404   3.994  17.777  0.00  0.00    +0.000 A 
ATOM      2  C   UNL     1       4.995   3.701  16.530  0.00  0.00    +0.000 A 
ATOM      3  C   UNL     1       5.338   4.727  15.642  0.00  0.00    +0.000 A 
ATOM      4  C   UNL     1       5.093   6.055  16.012  0.00  0.00    +0.000 A 
ATOM      5  C   UNL     1       4.544   6.354  17.261  0.00  0.00    +0.000 A 
ATOM      6  C   UNL     1       4.206   5.333  18.149  0.00  0.00    +0.000 A 
ATOM      7 CL   UNL     1       3.587   5.831  19.689  0.00  0.00    +0.000 Cl
ENDROOT
BRANCH   3   8
ATOM      8  C   UNL     1       5.919   4.435  14.321  0.00  0.00    +0.000 C 
ATOM      9  C   UNL     1       5.240   3.674  13.442  0.00  0.00    +0.000 C 
ATOM     10  C   UNL     1       5.759   3.344  12.070  0.00  0.00    +0.000 C 
ATOM     11  C   UNL     1       7.247   3.646  11.901  0.00  0.00    +0.000 C 
ATOM     12  C   UNL     1       7.600   5.003  12.500  0.00  0.00    +0.000 C 
ATOM     13  C   UNL     1       7.255   5.059  13.995  0.00  0.00    +0.000 C 
ENDBRANCH   3   8
BRANCH   1  15
ATOM     14  N   UNL     1       4.857   2.460  19.618  0.00  0.00    +0.000 N 
ATOM     15  C   UNL     1       4.007   2.839  18.621  0.00  0.00    +0.000 C 
ATOM     16  O   UNL     1       2.930   2.270  18.460  0.00  0.00    +0.000 OA
ATOM     17  H   UNL     1       4.638   1.630  20.148  0.00  0.00    +0.000 HD
ATOM     18  H   UNL     1       5.787   2.856  19.709  0.00  0.00    +0.000 HD
ENDBRANCH   1  15
TORSDOF 2
ENDMDL
MODEL 4
REMARK VINA RESULT:      -7.1      0.307      1.287
REMARK  Name = 
REMARK  2 active torsions:
REMARK  status: ('A' for Active; 'I' for Inactive)
REMARK    1  A    between atoms: C_2  and  C_4
REMARK    2  A    between atoms: C_6  and  C_7
REMARK                            x       y       z     vdW  Elec       q    Type
REMARK                         _______ _______ _______ _____ _____    ______ ____
ROOT
ATOM      1  C   UNL     1       6.357   5.533  18.332  0.00  0.00    +0.000 A 
ATOM      2  C   UNL     1       5.271   4.726  18.730  0.00  0.00    +0.000 A 
ATOM      3  C   UNL     1       3.954   5.114  18.460  0.00  0.00    +0.000 A 
ATOM      4  C   UNL     1       3.727   6.316  17.780  0.00  0.00    +0.000 A 
ATOM      5  C   UNL     1       4.798   7.102  17.349  0.00  0.00    +0.000 A 
ATOM      6  C   UNL     1       6.111   6.713  17.612  0.00  0.00    +0.000 A 
ATOM      7 CL   UNL     1       7.356   7.739  16.976  0.00  0.00    +0.000 Cl
ENDROOT
BRANCH   3   8
ATOM      8  C   UNL     1       2.809   4.301  18.904  0.00  0.00    +0.000 C 
ATOM      9  C   UNL     1       2.414   3.243  18.173  0.00  0.00    +0.000 C 
ATOM     10  C   UNL     1       1.265   2.356  18.566  0.00  0.00    +0.000 C 
ATOM     11  C   UNL     1       0.384   2.962  19.658  0.00  0.00    +0.000 C 
ATOM     12  C   UNL     1       1.232   3.581  20.763  0.00  0.00    +0.000 C 
ATOM     13  C   UNL     1       2.154   4.677  20.211  0.00  0.00    +0.000 C 
ENDBRANCH   3   8
BRANCH   1  15
ATOM     14  N   UNL     1       8.206   5.510  19.921  0.00  0.00    +0.000 N 
ATOM     15  C   UNL     1       7.714   5.077  18.725  0.00  0.00    +0.000 C 
ATOM     16  O   UNL     1       8.356   4.300  18.023  0.00  0.00    +0.000 OA
ATOM     17  H   UNL     1       9.156   5.273  20.165  0.00  0.00    +0.000 HD
ATOM     18  H   UNL     1       7.733   6.220  20.470  0.00  0.00    +0.000 HD
ENDBRANCH   1  15
TORSDOF 2
ENDMDL
MODEL 5
REMARK VINA RESULT:      -7.1      4.056      5.824
REMARK  Name = 
REMARK  2 active torsions:
REMARK  status: ('A' for Active; 'I' for Inactive)
REMARK    1  A    between atoms: C_2  and  C_4
REMARK    2  A    between atoms: C_6  and  C_7
REMARK                            x       y       z     vdW  Elec       q    Type
REMARK                         _______ _______ _______ _____ _____    ______ ____
ROOT
ATOM      1  C   UNL     1       4.375   3.971  17.769  0.00  0.00    +0.000 A 
ATOM      2  C   UNL     1       5.059   3.779  16.551  0.00  0.00    +0.000 A 
ATOM      3  C   UNL     1       5.385   4.868  15.734  0.00  0.00    +0.000 A 
ATOM      4  C   UNL     1       5.029   6.157  16.147  0.00  0.00    +0.000 A 
ATOM      5  C   UNL     1       4.386   6.359  17.370  0.00  0.00    +0.000 A 
ATOM      6  C   UNL     1       4.065   5.275  18.188  0.00  0.00    +0.000 A 
ATOM      7 CL   UNL     1       3.321   5.656  19.707  0.00  0.00    +0.000 Cl
ENDROOT
BRANCH   3   8
ATOM      8  C   UNL     1       6.064   4.679  14.441  0.00  0.00    +0.000 C 
ATOM      9  C   UNL     1       7.261   5.254  14.221  0.00  0.00    +0.000 C 
ATOM     10  C   UNL     1       8.023   5.098  12.934  0.00  0.00    +0.000 C 
ATOM     11  C   UNL     1       7.173   4.533  11.797  0.00  0.00    +0.000 C 
ATOM     12  C   UNL     1       6.321   3.365  12.280  0.00  0.00    +0.000 C 
ATOM     13  C   UNL     1       5.390   3.790  13.424  0.00  0.00    +0.000 C 
ENDBRANCH   3   8
BRANCH   1  15
ATOM     14  N   UNL     1       4.823   2.377  19.559  0.00  0.00    +0.000 N 
ATOM     15  C   UNL     1       4.007   2.754  18.533  0.00  0.00    +0.000 C 
ATOM     16  O   UNL     1       2.979   2.129  18.285  0.00  0.00    +0.000 OA
ATOM     17  H   UNL     1       4.629   1.509  20.036  0.00  0.00    +0.000 HD
ATOM     18  H   UNL     1       5.720   2.823  19.722  0.00  0.00    +0.000 HD
ENDBRANCH   1  15
TORSDOF 2
ENDMDL
MODEL 6
REMARK VINA RESULT:      -7.0      3.655      5.828
REMARK  Name = 
REMARK  2 active torsions:
REMARK  status: ('A' for Active; 'I' for Inactive)
REMARK    1  A    between atoms: C_2  and  C_4
REMARK    2  A    between atoms: C_6  and  C_7
REMARK                            x       y       z     vdW  Elec       q    Type
REMARK                         _______ _______ _______ _____ _____    ______ ____
ROOT
ATOM      1  C   UNL     1       2.711   3.349  19.783  0.00  0.00    +0.000 A 
ATOM      2  C   UNL     1       3.881   4.132  19.689  0.00  0.00    +0.000 A 
ATOM      3  C   UNL     1       4.352   4.569  18.445  0.00  0.00    +0.000 A 
ATOM      4  C   UNL     1       3.640   4.224  17.291  0.00  0.00    +0.000 A 
ATOM      5  C   UNL     1       2.459   3.481  17.379  0.00  0.00    +0.000 A 
ATOM      6  C   UNL     1       1.986   3.050  18.618  0.00  0.00    +0.000 A 
ATOM      7 CL   UNL     1       0.483   2.188  18.606  0.00  0.00    +0.000 Cl
ENDROOT
BRANCH   3   8
ATOM      8  C   UNL     1       5.592   5.353  18.328  0.00  0.00    +0.000 C 
ATOM      9  C   UNL     1       6.550   5.239  19.267  0.00  0.00    +0.000 C 
ATOM     10  C   UNL     1       7.849   5.994  19.211  0.00  0.00    +0.000 C 
ATOM     11  C   UNL     1       7.834   7.143  18.203  0.00  0.00    +0.000 C 
ATOM     12  C   UNL     1       7.192   6.708  16.890  0.00  0.00    +0.000 C 
ATOM     13  C   UNL     1       5.750   6.227  17.107  0.00  0.00    +0.000 C 
ENDBRANCH   3   8
BRANCH   1  15
ATOM     14  N   UNL     1       1.026   3.013  21.513  0.00  0.00    +0.000 N 
ATOM     15  C   UNL     1       2.329   2.871  21.135  0.00  0.00    +0.000 C 
ATOM     16  O   UNL     1       3.143   2.323  21.873  0.00  0.00    +0.000 OA
ATOM     17  H   UNL     1       0.769   2.765  22.457  0.00  0.00    +0.000 HD
ATOM     18  H   UNL     1       0.361   3.542  20.958  0.00  0.00    +0.000 HD
ENDBRANCH   1  15
TORSDOF 2
ENDMDL
MODEL 7
REMARK VINA RESULT:      -7.0      3.419      4.470
REMARK  Name = 
REMARK  2 active torsions:
REMARK  status: ('A' for Active; 'I' for Inactive)
REMARK    1  A    between atoms: C_2  and  C_4
REMARK    2  A    between atoms: C_6  and  C_7
REMARK                            x       y       z     vdW  Elec       q    Type
REMARK                         _______ _______ _______ _____ _____    ______ ____
ROOT
ATOM      1  C   UNL     1       3.608   4.385  17.511  0.00  0.00    +0.000 A 
ATOM      2  C   UNL     1       2.794   5.353  18.135  0.00  0.00    +0.000 A 
ATOM      3  C   UNL     1       3.087   6.717  18.019  0.00  0.00    +0.000 A 
ATOM      4  C   UNL     1       4.200   7.110  17.267  0.00  0.00    +0.000 A 
ATOM      5  C   UNL     1       4.989   6.159  16.614  0.00  0.00    +0.000 A 
ATOM      6  C   UNL     1       4.694   4.800  16.724  0.00  0.00    +0.000 A 
ATOM      7 CL   UNL     1       5.708   3.722  15.823  0.00  0.00    +0.000 Cl
ENDROOT
BRANCH   3   8
ATOM      8  C   UNL     1       2.270   7.737  18.697  0.00  0.00    +0.000 C 
ATOM      9  C   UNL     1       2.004   7.619  20.011  0.00  0.00    +0.000 C 
ATOM     10  C   UNL     1       1.191   8.625  20.777  0.00  0.00    +0.000 C 
ATOM     11  C   UNL     1       0.414   9.583  19.875  0.00  0.00    +0.000 C 
ATOM     12  C   UNL     1       1.286  10.080  18.728  0.00  0.00    +0.000 C 
ATOM     13  C   UNL     1       1.803   8.914  17.875  0.00  0.00    +0.000 C 
ENDBRANCH   3   8
BRANCH   1  15
ATOM     14  N   UNL     1       4.081   2.238  18.567  0.00  0.00    +0.000 N 
ATOM     15  C   UNL     1       3.263   2.961  17.749  0.00  0.00    +0.000 C 
ATOM     16  O   UNL     1       2.251   2.459  17.266  0.00  0.00    +0.000 OA
ATOM     17  H   UNL     1       3.904   1.251  18.675  0.00  0.00    +0.000 HD
ATOM     18  H   UNL     1       4.966   2.606  18.901  0.00  0.00    +0.000 HD
ENDBRANCH   1  15
TORSDOF 2
ENDMDL
MODEL 8
REMARK VINA RESULT:      -7.0      1.861      2.034
REMARK  Name = 
REMARK  2 active torsions:
REMARK  status: ('A' for Active; 'I' for Inactive)
REMARK    1  A    between atoms: C_2  and  C_4
REMARK    2  A    between atoms: C_6  and  C_7
REMARK                            x       y       z     vdW  Elec       q    Type
REMARK                         _______ _______ _______ _____ _____    ______ ____
ROOT
ATOM      1  C   UNL     1       6.266   5.485  17.410  0.00  0.00    +0.000 A 
ATOM      2  C   UNL     1       5.279   5.173  18.368  0.00  0.00    +0.000 A 
ATOM      3  C   UNL     1       4.213   4.324  18.047  0.00  0.00    +0.000 A 
ATOM      4  C   UNL     1       4.143   3.780  16.759  0.00  0.00    +0.000 A 
ATOM      5  C   UNL     1       5.138   4.054  15.817  0.00  0.00    +0.000 A 
ATOM      6  C   UNL     1       6.203   4.895  16.138  0.00  0.00    +0.000 A 
ATOM      7 CL   UNL     1       7.405   5.112  14.907  0.00  0.00    +0.000 Cl
ENDROOT
BRANCH   3   8
ATOM      8  C   UNL     1       3.154   4.021  19.024  0.00  0.00    +0.000 C 
ATOM      9  C   UNL     1       2.532   5.023  19.673  0.00  0.00    +0.000 C 
ATOM     10  C   UNL     1       1.432   4.796  20.672  0.00  0.00    +0.000 C 
ATOM     11  C   UNL     1       1.332   3.344  21.136  0.00  0.00    +0.000 C 
ATOM     12  C   UNL     1       1.447   2.384  19.957  0.00  0.00    +0.000 C 
ATOM     13  C   UNL     1       2.778   2.571  19.214  0.00  0.00    +0.000 C 
ENDBRANCH   3   8
BRANCH   1  15
ATOM     14  N   UNL     1       7.422   7.611  17.108  0.00  0.00    +0.000 N 
ATOM     15  C   UNL     1       7.317   6.451  17.818  0.00  0.00    +0.000 C 
ATOM     16  O   UNL     1       8.040   6.238  18.788  0.00  0.00    +0.000 OA
ATOM     17  H   UNL     1       8.181   8.240  17.323  0.00  0.00    +0.000 HD
ATOM     18  H   UNL     1       6.898   7.766  16.252  0.00  0.00    +0.000 HD
ENDBRANCH   1  15
TORSDOF 2
ENDMDL
MODEL 9
REMARK VINA RESULT:      -7.0      1.870      2.363
REMARK  Name = 
REMARK  2 active torsions:
REMARK  status: ('A' for Active; 'I' for Inactive)
REMARK    1  A    between atoms: C_2  and  C_4
REMARK    2  A    between atoms: C_6  and  C_7
REMARK                            x       y       z     vdW  Elec       q    Type
REMARK                         _______ _______ _______ _____ _____    ______ ____
ROOT
ATOM      1  C   UNL     1       6.239   5.707  17.183  0.00  0.00    +0.000 A 
ATOM      2  C   UNL     1       5.203   5.425  18.098  0.00  0.00    +0.000 A 
ATOM      3  C   UNL     1       4.206   4.494  17.786  0.00  0.00    +0.000 A 
ATOM      4  C   UNL     1       4.253   3.838  16.550  0.00  0.00    +0.000 A 
ATOM      5  C   UNL     1       5.296   4.084  15.655  0.00  0.00    +0.000 A 
ATOM      6  C   UNL     1       6.294   5.007  15.967  0.00  0.00    +0.000 A 
ATOM      7 CL   UNL     1       7.566   5.183  14.803  0.00  0.00    +0.000 Cl
ENDROOT
BRANCH   3   8
ATOM      8  C   UNL     1       3.097   4.218  18.715  0.00  0.00    +0.000 C 
ATOM      9  C   UNL     1       2.164   3.303  18.392  0.00  0.00    +0.000 C 
ATOM     10  C   UNL     1       1.011   2.954  19.292  0.00  0.00    +0.000 C 
ATOM     11  C   UNL     1       0.802   3.964  20.420  0.00  0.00    +0.000 C 
ATOM     12  C   UNL     1       2.130   4.348  21.062  0.00  0.00    +0.000 C 
ATOM     13  C   UNL     1       3.092   4.956  20.031  0.00  0.00    +0.000 C 
ENDBRANCH   3   8
BRANCH   1  15
ATOM     14  N   UNL     1       7.983   6.537  18.672  0.00  0.00    +0.000 N 
ATOM     15  C   UNL     1       7.210   6.760  17.570  0.00  0.00    +0.000 C 
ATOM     16  O   UNL     1       7.349   7.779  16.899  0.00  0.00    +0.000 OA
ATOM     17  H   UNL     1       8.590   7.277  18.992  0.00  0.00    +0.000 HD
ATOM     18  H   UNL     1       7.821   5.749  19.290  0.00  0.00    +0.000 HD
ENDBRANCH   1  15
TORSDOF 2
ENDMDL
