MODEL 1
REMARK VINA RESULT:      -8.0      0.000      0.000
REMARK  Name = 
REMARK  6 active torsions:
REMARK  status: ('A' for Active; 'I' for Inactive)
REMARK    1  A    between atoms: C_1  and  C_2
REMARK    2  A    between atoms: N_7  and  C_8
REMARK    3  A    between atoms: C_8  and  C_9
REMARK    4  A    between atoms: C_13  and  C_14
REMARK    5  A    between atoms: C_14  and  O_15
REMARK    6  A    between atoms: O_15  and  C_16
REMARK                            x       y       z     vdW  Elec       q    Type
REMARK                         _______ _______ _______ _____ _____    ______ ____
ROOT
ATOM      1  C   UNL     1       1.767   5.239  20.122  0.00  0.00    +0.000 A 
ATOM      2  C   UNL     1       0.994   4.157  20.559  0.00  0.00    +0.000 A 
ATOM      3  C   UNL     1       0.931   2.984  19.807  0.00  0.00    +0.000 A 
ATOM      4  C   UNL     1       1.635   2.884  18.606  0.00  0.00    +0.000 A 
ATOM      5  C   UNL     1       2.397   3.962  18.137  0.00  0.00    +0.000 A 
ATOM      6  C   UNL     1       2.445   5.141  18.897  0.00  0.00    +0.000 A 
ENDROOT
BRANCH   1   7
ATOM      7  C   UNL     1       1.877   6.487  20.955  0.00  0.00    +0.000 C 
BRANCH   7  14
ATOM      8  C   UNL     1      -1.746  10.444  17.393  0.00  0.00    +0.000 C 
ATOM      9  C   UNL     1      -1.246  10.305  18.824  0.00  0.00    +0.000 C 
ATOM     10  C   UNL     1       0.231   9.864  18.847  0.00  0.00    +0.000 C 
ATOM     11  N   UNL     1       0.753   9.888  20.218  0.00  0.00    +0.000 N 
ATOM     12  C   UNL     1       1.225   8.818  20.945  0.00  0.00    +0.000 C 
ATOM     13  O   UNL     1       1.495   8.897  22.142  0.00  0.00    +0.000 OA
ATOM     14  N   UNL     1       1.353   7.640  20.259  0.00  0.00    +0.000 N 
ATOM     15  C   UNL     1       0.521  11.163  20.901  0.00  0.00    +0.000 C 
ATOM     16  C   UNL     1      -0.962  11.534  20.832  0.00  0.00    +0.000 C 
ATOM     17  O   UNL     1      -1.411  11.584  19.466  0.00  0.00    +0.000 OA
ATOM     18  H   UNL     1       1.636   7.724  19.297  0.00  0.00    +0.000 HD
ENDBRANCH   7  14
ENDBRANCH   1   7
BRANCH   5  19
ATOM     19  C   UNL     1       3.185   3.852  16.856  0.00  0.00    +0.000 C 
BRANCH  19  20
ATOM     20  O   UNL     1       4.555   4.079  17.167  0.00  0.00    +0.000 OA
BRANCH  20  21
ATOM     21  C   UNL     1       5.091   5.321  16.702  0.00  0.00    +0.000 C 
ATOM     22  C   UNL     1       6.262   5.667  17.629  0.00  0.00    +0.000 C 
ATOM     23  C   UNL     1       7.404   4.674  17.430  0.00  0.00    +0.000 C 
ATOM     24  O   UNL     1       7.819   4.642  16.063  0.00  0.00    +0.000 OA
ATOM     25  C   UNL     1       6.762   4.235  15.193  0.00  0.00    +0.000 C 
ATOM     26  C   UNL     1       5.616   5.235  15.266  0.00  0.00    +0.000 C 
ENDBRANCH  20  21
ENDBRANCH  19  20
ENDBRANCH   5  19
TORSDOF 5
ENDMDL
MODEL 2
REMARK VINA RESULT:      -7.9      0.564      1.165
REMARK  Name = 
REMARK  6 active torsions:
REMARK  status: ('A' for Active; 'I' for Inactive)
REMARK    1  A    between atoms: C_1  and  C_2
REMARK    2  A    between atoms: N_7  and  C_8
REMARK    3  A    between atoms: C_8  and  C_9
REMARK    4  A    between atoms: C_13  and  C_14
REMARK    5  A    between atoms: C_14  and  O_15
REMARK    6  A    between atoms: O_15  and  C_16
REMARK                            x       y       z     vdW  Elec       q    Type
REMARK                         _______ _______ _______ _____ _____    ______ ____
ROOT
ATOM      1  C   UNL     1       1.841   5.335  20.077  0.00  0.00    +0.000 A 
ATOM      2  C   UNL     1       1.020   4.287  20.511  0.00  0.00    +0.000 A 
ATOM      3  C   UNL     1       0.908   3.118  19.758  0.00  0.00    +0.000 A 
ATOM      4  C   UNL     1       1.610   2.989  18.558  0.00  0.00    +0.000 A 
ATOM      5  C   UNL     1       2.419   4.033  18.092  0.00  0.00    +0.000 A 
ATOM      6  C   UNL     1       2.517   5.208  18.854  0.00  0.00    +0.000 A 
ENDROOT
BRANCH   1   7
ATOM      7  C   UNL     1       2.004   6.576  20.911  0.00  0.00    +0.000 C 
BRANCH   7  14
ATOM      8  C   UNL     1      -1.740  10.527  17.470  0.00  0.00    +0.000 C 
ATOM      9  C   UNL     1      -1.252  10.348  18.901  0.00  0.00    +0.000 C 
ATOM     10  C   UNL     1       0.243   9.968  18.925  0.00  0.00    +0.000 C 
ATOM     11  N   UNL     1       0.746   9.956  20.304  0.00  0.00    +0.000 N 
ATOM     12  C   UNL     1       1.254   8.876  20.992  0.00  0.00    +0.000 C 
ATOM     13  O   UNL     1       1.506   8.914  22.194  0.00  0.00    +0.000 OA
ATOM     14  N   UNL     1       1.441   7.735  20.258  0.00  0.00    +0.000 N 
ATOM     15  C   UNL     1       0.452  11.189  21.037  0.00  0.00    +0.000 C 
ATOM     16  C   UNL     1      -1.045  11.500  20.963  0.00  0.00    +0.000 C 
ATOM     17  O   UNL     1      -1.478  11.591  19.594  0.00  0.00    +0.000 OA
ATOM     18  H   UNL     1       1.731   7.872  19.304  0.00  0.00    +0.000 HD
ENDBRANCH   7  14
ENDBRANCH   1   7
BRANCH   5  19
ATOM     19  C   UNL     1       3.204   3.890  16.813  0.00  0.00    +0.000 C 
BRANCH  19  20
ATOM     20  O   UNL     1       4.353   4.725  16.911  0.00  0.00    +0.000 OA
BRANCH  20  21
ATOM     21  C   UNL     1       5.603   4.037  17.014  0.00  0.00    +0.000 C 
ATOM     22  C   UNL     1       6.080   3.778  15.582  0.00  0.00    +0.000 C 
ATOM     23  C   UNL     1       6.439   5.095  14.898  0.00  0.00    +0.000 C 
ATOM     24  O   UNL     1       7.424   5.807  15.650  0.00  0.00    +0.000 OA
ATOM     25  C   UNL     1       6.961   6.135  16.961  0.00  0.00    +0.000 C 
ATOM     26  C   UNL     1       6.670   4.860  17.742  0.00  0.00    +0.000 C 
ENDBRANCH  20  21
ENDBRANCH  19  20
ENDBRANCH   5  19
TORSDOF 5
ENDMDL
MODEL 3
REMARK VINA RESULT:      -7.7      2.071      3.007
REMARK  Name = 
REMARK  6 active torsions:
REMARK  status: ('A' for Active; 'I' for Inactive)
REMARK    1  A    between atoms: C_1  and  C_2
REMARK    2  A    between atoms: N_7  and  C_8
REMARK    3  A    between atoms: C_8  and  C_9
REMARK    4  A    between atoms: C_13  and  C_14
REMARK    5  A    between atoms: C_14  and  O_15
REMARK    6  A    between atoms: O_15  and  C_16
REMARK                            x       y       z     vdW  Elec       q    Type
REMARK                         _______ _______ _______ _____ _____    ______ ____
ROOT
ATOM      1  C   UNL     1       2.617   6.300  17.969  0.00  0.00    +0.000 A 
ATOM      2  C   UNL     1       1.633   5.304  17.933  0.00  0.00    +0.000 A 
ATOM      3  C   UNL     1       1.921   4.011  18.367  0.00  0.00    +0.000 A 
ATOM      4  C   UNL     1       3.199   3.697  18.833  0.00  0.00    +0.000 A 
ATOM      5  C   UNL     1       4.206   4.670  18.857  0.00  0.00    +0.000 A 
ATOM      6  C   UNL     1       3.908   5.967  18.410  0.00  0.00    +0.000 A 
ENDROOT
BRANCH   1   7
ATOM      7  C   UNL     1       2.296   7.709  17.550  0.00  0.00    +0.000 C 
BRANCH   7  14
ATOM      8  C   UNL     1      -0.311   9.711  23.088  0.00  0.00    +0.000 C 
ATOM      9  C   UNL     1       0.469  10.270  21.907  0.00  0.00    +0.000 C 
ATOM     10  C   UNL     1      -0.049   9.679  20.580  0.00  0.00    +0.000 C 
ATOM     11  N   UNL     1       0.595  10.339  19.438  0.00  0.00    +0.000 N 
ATOM     12  C   UNL     1       1.404   9.753  18.490  0.00  0.00    +0.000 C 
ATOM     13  O   UNL     1       2.032  10.407  17.659  0.00  0.00    +0.000 OA
ATOM     14  N   UNL     1       1.492   8.388  18.540  0.00  0.00    +0.000 N 
ATOM     15  C   UNL     1       0.509  11.800  19.492  0.00  0.00    +0.000 C 
ATOM     16  C   UNL     1       1.035  12.308  20.836  0.00  0.00    +0.000 C 
ATOM     17  O   UNL     1       0.318  11.702  21.926  0.00  0.00    +0.000 OA
ATOM     18  H   UNL     1       0.651   7.907  18.813  0.00  0.00    +0.000 HD
ENDBRANCH   7  14
ENDBRANCH   1   7
BRANCH   5  19
ATOM     19  C   UNL     1       5.580   4.348  19.388  0.00  0.00    +0.000 C 
BRANCH  19  20
ATOM     20  O   UNL     1       6.308   5.567  19.479  0.00  0.00    +0.000 OA
BRANCH  20  21
ATOM     21  C   UNL     1       7.672   5.499  19.053  0.00  0.00    +0.000 C 
ATOM     22  C   UNL     1       7.691   4.649  17.778  0.00  0.00    +0.000 C 
ATOM     23  C   UNL     1       6.984   5.385  16.642  0.00  0.00    +0.000 C 
ATOM     24  O   UNL     1       7.578   6.666  16.418  0.00  0.00    +0.000 OA
ATOM     25  C   UNL     1       7.491   7.504  17.571  0.00  0.00    +0.000 C 
ATOM     26  C   UNL     1       8.257   6.876  18.728  0.00  0.00    +0.000 C 
ENDBRANCH  20  21
ENDBRANCH  19  20
ENDBRANCH   5  19
TORSDOF 5
ENDMDL
MODEL 4
REMARK VINA RESULT:      -7.6      2.713      4.421
REMARK  Name = 
REMARK  6 active torsions:
REMARK  status: ('A' for Active; 'I' for Inactive)
REMARK    1  A    between atoms: C_1  and  C_2
REMARK    2  A    between atoms: N_7  and  C_8
REMARK    3  A    between atoms: C_8  and  C_9
REMARK    4  A    between atoms: C_13  and  C_14
REMARK    5  A    between atoms: C_14  and  O_15
REMARK    6  A    between atoms: O_15  and  C_16
REMARK                            x       y       z     vdW  Elec       q    Type
REMARK                         _______ _______ _______ _____ _____    ______ ____
ROOT
ATOM      1  C   UNL     1       1.569   8.868  19.348  0.00  0.00    +0.000 A 
ATOM      2  C   UNL     1       2.175   8.850  18.086  0.00  0.00    +0.000 A 
ATOM      3  C   UNL     1       2.863   7.719  17.649  0.00  0.00    +0.000 A 
ATOM      4  C   UNL     1       2.960   6.597  18.473  0.00  0.00    +0.000 A 
ATOM      5  C   UNL     1       2.381   6.600  19.749  0.00  0.00    +0.000 A 
ATOM      6  C   UNL     1       1.699   7.747  20.182  0.00  0.00    +0.000 A 
ENDROOT
BRANCH   1   7
ATOM      7  C   UNL     1       0.783  10.068  19.802  0.00  0.00    +0.000 C 
BRANCH   7  14
ATOM      8  C   UNL     1      -3.298  10.168  14.821  0.00  0.00    +0.000 C 
ATOM      9  C   UNL     1      -3.315  10.323  16.335  0.00  0.00    +0.000 C 
ATOM     10  C   UNL     1      -2.116  11.168  16.812  0.00  0.00    +0.000 C 
ATOM     11  N   UNL     1      -2.226  11.450  18.248  0.00  0.00    +0.000 N 
ATOM     12  C   UNL     1      -1.353  11.057  19.239  0.00  0.00    +0.000 C 
ATOM     13  O   UNL     1      -1.601  11.197  20.435  0.00  0.00    +0.000 OA
ATOM     14  N   UNL     1      -0.192  10.471  18.814  0.00  0.00    +0.000 N 
ATOM     15  C   UNL     1      -3.520  12.019  18.628  0.00  0.00    +0.000 C 
ATOM     16  C   UNL     1      -4.656  11.129  18.117  0.00  0.00    +0.000 C 
ATOM     17  O   UNL     1      -4.561  10.951  16.693  0.00  0.00    +0.000 OA
ATOM     18  H   UNL     1       0.192  10.833  17.957  0.00  0.00    +0.000 HD
ENDBRANCH   7  14
ENDBRANCH   1   7
BRANCH   5  19
ATOM     19  C   UNL     1       2.455   5.381  20.633  0.00  0.00    +0.000 C 
BRANCH  19  20
ATOM     20  O   UNL     1       3.302   4.431  19.996  0.00  0.00    +0.000 OA
BRANCH  20  21
ATOM     21  C   UNL     1       2.919   3.062  20.161  0.00  0.00    +0.000 C 
ATOM     22  C   UNL     1       1.455   2.960  19.720  0.00  0.00    +0.000 C 
ATOM     23  C   UNL     1       1.339   3.197  18.216  0.00  0.00    +0.000 C 
ATOM     24  O   UNL     1       2.163   2.281  17.491  0.00  0.00    +0.000 OA
ATOM     25  C   UNL     1       3.544   2.424  17.826  0.00  0.00    +0.000 C 
ATOM     26  C   UNL     1       3.755   2.110  19.302  0.00  0.00    +0.000 C 
ENDBRANCH  20  21
ENDBRANCH  19  20
ENDBRANCH   5  19
TORSDOF 5
ENDMDL
MODEL 5
REMARK VINA RESULT:      -7.6      1.130      1.387
REMARK  Name = 
REMARK  6 active torsions:
REMARK  status: ('A' for Active; 'I' for Inactive)
REMARK    1  A    between atoms: C_1  and  C_2
REMARK    2  A    between atoms: N_7  and  C_8
REMARK    3  A    between atoms: C_8  and  C_9
REMARK    4  A    between atoms: C_13  and  C_14
REMARK    5  A    between atoms: C_14  and  O_15
REMARK    6  A    between atoms: O_15  and  C_16
REMARK                            x       y       z     vdW  Elec       q    Type
REMARK                         _______ _______ _______ _____ _____    ______ ____
ROOT
ATOM      1  C   UNL     1       1.884   6.707  20.051  0.00  0.00    +0.000 A 
ATOM      2  C   UNL     1       1.298   5.771  20.911  0.00  0.00    +0.000 A 
ATOM      3  C   UNL     1       1.334   4.411  20.606  0.00  0.00    +0.000 A 
ATOM      4  C   UNL     1       1.950   3.974  19.432  0.00  0.00    +0.000 A 
ATOM      5  C   UNL     1       2.523   4.894  18.545  0.00  0.00    +0.000 A 
ATOM      6  C   UNL     1       2.473   6.261  18.858  0.00  0.00    +0.000 A 
ENDROOT
BRANCH   1   7
ATOM      7  C   UNL     1       1.891   8.170  20.402  0.00  0.00    +0.000 C 
BRANCH   7  14
ATOM      8  C   UNL     1      -3.019  10.007  16.662  0.00  0.00    +0.000 C 
ATOM      9  C   UNL     1      -2.360  10.391  17.979  0.00  0.00    +0.000 C 
ATOM     10  C   UNL     1      -0.823  10.340  17.856  0.00  0.00    +0.000 C 
ATOM     11  N   UNL     1      -0.194  10.866  19.073  0.00  0.00    +0.000 N 
ATOM     12  C   UNL     1       0.625  10.182  19.945  0.00  0.00    +0.000 C 
ATOM     13  O   UNL     1       0.981  10.649  21.025  0.00  0.00    +0.000 OA
ATOM     14  N   UNL     1       1.003   8.927  19.549  0.00  0.00    +0.000 N 
ATOM     15  C   UNL     1      -0.698  12.185  19.461  0.00  0.00    +0.000 C 
ATOM     16  C   UNL     1      -2.225  12.156  19.557  0.00  0.00    +0.000 C 
ATOM     17  O   UNL     1      -2.805  11.720  18.315  0.00  0.00    +0.000 OA
ATOM     18  H   UNL     1       1.153   8.808  18.561  0.00  0.00    +0.000 HD
ENDBRANCH   7  14
ENDBRANCH   1   7
BRANCH   5  19
ATOM     19  C   UNL     1       3.217   4.427  17.290  0.00  0.00    +0.000 C 
BRANCH  19  20
ATOM     20  O   UNL     1       4.619   4.442  17.537  0.00  0.00    +0.000 OA
BRANCH  20  21
ATOM     21  C   UNL     1       5.320   5.578  17.022  0.00  0.00    +0.000 C 
ATOM     22  C   UNL     1       6.597   5.721  17.857  0.00  0.00    +0.000 C 
ATOM     23  C   UNL     1       7.539   4.551  17.585  0.00  0.00    +0.000 C 
ATOM     24  O   UNL     1       7.841   4.454  16.192  0.00  0.00    +0.000 OA
ATOM     25  C   UNL     1       6.670   4.232  15.406  0.00  0.00    +0.000 C 
ATOM     26  C   UNL     1       5.715   5.410  15.553  0.00  0.00    +0.000 C 
ENDBRANCH  20  21
ENDBRANCH  19  20
ENDBRANCH   5  19
TORSDOF 5
ENDMDL
MODEL 6
REMARK VINA RESULT:      -7.5      1.843      2.827
REMARK  Name = 
REMARK  6 active torsions:
REMARK  status: ('A' for Active; 'I' for Inactive)
REMARK    1  A    between atoms: C_1  and  C_2
REMARK    2  A    between atoms: N_7  and  C_8
REMARK    3  A    between atoms: C_8  and  C_9
REMARK    4  A    between atoms: C_13  and  C_14
REMARK    5  A    between atoms: C_14  and  O_15
REMARK    6  A    between atoms: O_15  and  C_16
REMARK                            x       y       z     vdW  Elec       q    Type
REMARK                         _______ _______ _______ _____ _____    ______ ____
ROOT
ATOM      1  C   UNL     1       2.149   8.321  18.637  0.00  0.00    +0.000 A 
ATOM      2  C   UNL     1       1.710   8.173  19.959  0.00  0.00    +0.000 A 
ATOM      3  C   UNL     1       1.697   6.916  20.562  0.00  0.00    +0.000 A 
ATOM      4  C   UNL     1       2.116   5.792  19.847  0.00  0.00    +0.000 A 
ATOM      5  C   UNL     1       2.538   5.913  18.517  0.00  0.00    +0.000 A 
ATOM      6  C   UNL     1       2.538   7.182  17.917  0.00  0.00    +0.000 A 
ENDROOT
BRANCH   1   7
ATOM      7  C   UNL     1       2.212   9.682  18.000  0.00  0.00    +0.000 C 
BRANCH   7  14
ATOM      8  C   UNL     1      -4.151  10.588  17.598  0.00  0.00    +0.000 C 
ATOM      9  C   UNL     1      -2.980  10.979  18.488  0.00  0.00    +0.000 C 
ATOM     10  C   UNL     1      -1.746  11.344  17.638  0.00  0.00    +0.000 C 
ATOM     11  N   UNL     1      -0.675  11.874  18.490  0.00  0.00    +0.000 N 
ATOM     12  C   UNL     1       0.578  11.333  18.681  0.00  0.00    +0.000 C 
ATOM     13  O   UNL     1       1.358  11.751  19.534  0.00  0.00    +0.000 OA
ATOM     14  N   UNL     1       0.899  10.274  17.876  0.00  0.00    +0.000 N 
ATOM     15  C   UNL     1      -1.117  12.963  19.364  0.00  0.00    +0.000 C 
ATOM     16  C   UNL     1      -2.344  12.526  20.168  0.00  0.00    +0.000 C 
ATOM     17  O   UNL     1      -3.401  12.098  19.292  0.00  0.00    +0.000 OA
ATOM     18  H   UNL     1       0.534  10.311  16.939  0.00  0.00    +0.000 HD
ENDBRANCH   7  14
ENDBRANCH   1   7
BRANCH   5  19
ATOM     19  C   UNL     1       3.020   4.709  17.748  0.00  0.00    +0.000 C 
BRANCH  19  20
ATOM     20  O   UNL     1       4.170   5.100  17.004  0.00  0.00    +0.000 OA
BRANCH  20  21
ATOM     21  C   UNL     1       5.331   4.288  17.201  0.00  0.00    +0.000 C 
ATOM     22  C   UNL     1       5.819   3.876  15.808  0.00  0.00    +0.000 C 
ATOM     23  C   UNL     1       6.343   5.093  15.051  0.00  0.00    +0.000 C 
ATOM     24  O   UNL     1       7.379   5.745  15.789  0.00  0.00    +0.000 OA
ATOM     25  C   UNL     1       6.917   6.215  17.056  0.00  0.00    +0.000 C 
ATOM     26  C   UNL     1       6.461   5.039  17.911  0.00  0.00    +0.000 C 
ENDBRANCH  20  21
ENDBRANCH  19  20
ENDBRANCH   5  19
TORSDOF 5
ENDMDL
MODEL 7
REMARK VINA RESULT:      -7.5      2.329      8.534
REMARK  Name = 
REMARK  6 active torsions:
REMARK  status: ('A' for Active; 'I' for Inactive)
REMARK    1  A    between atoms: C_1  and  C_2
REMARK    2  A    between atoms: N_7  and  C_8
REMARK    3  A    between atoms: C_8  and  C_9
REMARK    4  A    between atoms: C_13  and  C_14
REMARK    5  A    between atoms: C_14  and  O_15
REMARK    6  A    between atoms: O_15  and  C_16
REMARK                            x       y       z     vdW  Elec       q    Type
REMARK                         _______ _______ _______ _____ _____    ______ ____
ROOT
ATOM      1  C   UNL     1       1.273   9.319  19.109  0.00  0.00    +0.000 A 
ATOM      2  C   UNL     1       1.218   8.907  20.446  0.00  0.00    +0.000 A 
ATOM      3  C   UNL     1       0.346   9.527  21.341  0.00  0.00    +0.000 A 
ATOM      4  C   UNL     1      -0.475  10.570  20.909  0.00  0.00    +0.000 A 
ATOM      5  C   UNL     1      -0.421  11.014  19.582  0.00  0.00    +0.000 A 
ATOM      6  C   UNL     1       0.467  10.389  18.692  0.00  0.00    +0.000 A 
ENDROOT
BRANCH   1   7
ATOM      7  C   UNL     1       2.175   8.619  18.130  0.00  0.00    +0.000 C 
BRANCH   7  14
ATOM      8  C   UNL     1       1.151   2.288  18.710  0.00  0.00    +0.000 C 
ATOM      9  C   UNL     1       2.135   3.246  18.055  0.00  0.00    +0.000 C 
ATOM     10  C   UNL     1       2.477   4.412  19.005  0.00  0.00    +0.000 C 
ATOM     11  N   UNL     1       3.545   5.242  18.435  0.00  0.00    +0.000 N 
ATOM     12  C   UNL     1       3.464   6.571  18.081  0.00  0.00    +0.000 C 
ATOM     13  O   UNL     1       4.355   7.148  17.463  0.00  0.00    +0.000 OA
ATOM     14  N   UNL     1       2.309   7.214  18.439  0.00  0.00    +0.000 N 
ATOM     15  C   UNL     1       4.719   4.469  18.023  0.00  0.00    +0.000 C 
ATOM     16  C   UNL     1       4.299   3.332  17.089  0.00  0.00    +0.000 C 
ATOM     17  O   UNL     1       3.316   2.492  17.720  0.00  0.00    +0.000 OA
ATOM     18  H   UNL     1       1.903   6.927  19.314  0.00  0.00    +0.000 HD
ENDBRANCH   7  14
ENDBRANCH   1   7
BRANCH   5  19
ATOM     19  C   UNL     1      -1.326  12.120  19.100  0.00  0.00    +0.000 C 
BRANCH  19  20
ATOM     20  O   UNL     1      -1.844  11.736  17.831  0.00  0.00    +0.000 OA
BRANCH  20  21
ATOM     21  C   UNL     1      -2.596  10.520  17.819  0.00  0.00    +0.000 C 
ATOM     22  C   UNL     1      -4.072  10.915  17.940  0.00  0.00    +0.000 C 
ATOM     23  C   UNL     1      -4.528  11.645  16.679  0.00  0.00    +0.000 C 
ATOM     24  O   UNL     1      -4.302  10.844  15.517  0.00  0.00    +0.000 OA
ATOM     25  C   UNL     1      -2.918  10.540  15.340  0.00  0.00    +0.000 C 
ATOM     26  C   UNL     1      -2.410   9.725  16.523  0.00  0.00    +0.000 C 
ENDBRANCH  20  21
ENDBRANCH  19  20
ENDBRANCH   5  19
TORSDOF 5
ENDMDL
MODEL 8
REMARK VINA RESULT:      -7.5      1.280      1.954
REMARK  Name = 
REMARK  6 active torsions:
REMARK  status: ('A' for Active; 'I' for Inactive)
REMARK    1  A    between atoms: C_1  and  C_2
REMARK    2  A    between atoms: N_7  and  C_8
REMARK    3  A    between atoms: C_8  and  C_9
REMARK    4  A    between atoms: C_13  and  C_14
REMARK    5  A    between atoms: C_14  and  O_15
REMARK    6  A    between atoms: O_15  and  C_16
REMARK                            x       y       z     vdW  Elec       q    Type
REMARK                         _______ _______ _______ _____ _____    ______ ____
ROOT
ATOM      1  C   UNL     1       2.106   5.036  20.080  0.00  0.00    +0.000 A 
ATOM      2  C   UNL     1       1.032   4.218  20.450  0.00  0.00    +0.000 A 
ATOM      3  C   UNL     1       0.644   3.151  19.639  0.00  0.00    +0.000 A 
ATOM      4  C   UNL     1       1.322   2.898  18.445  0.00  0.00    +0.000 A 
ATOM      5  C   UNL     1       2.385   3.716  18.044  0.00  0.00    +0.000 A 
ATOM      6  C   UNL     1       2.761   4.792  18.863  0.00  0.00    +0.000 A 
ENDROOT
BRANCH   1   7
ATOM      7  C   UNL     1       2.559   6.155  20.977  0.00  0.00    +0.000 C 
BRANCH   7  14
ATOM      8  C   UNL     1      -1.194  10.981  23.000  0.00  0.00    +0.000 C 
ATOM      9  C   UNL     1      -0.132  10.705  21.946  0.00  0.00    +0.000 C 
ATOM     10  C   UNL     1      -0.346   9.319  21.304  0.00  0.00    +0.000 C 
ATOM     11  N   UNL     1       0.578   9.125  20.181  0.00  0.00    +0.000 N 
ATOM     12  C   UNL     1       1.562   8.167  20.073  0.00  0.00    +0.000 C 
ATOM     13  O   UNL     1       2.398   8.174  19.171  0.00  0.00    +0.000 OA
ATOM     14  N   UNL     1       1.574   7.211  21.052  0.00  0.00    +0.000 N 
ATOM     15  C   UNL     1       0.547  10.222  19.211  0.00  0.00    +0.000 C 
ATOM     16  C   UNL     1       0.762  11.560  19.923  0.00  0.00    +0.000 C 
ATOM     17  O   UNL     1      -0.219  11.749  20.958  0.00  0.00    +0.000 OA
ATOM     18  H   UNL     1       0.672   6.931  21.399  0.00  0.00    +0.000 HD
ENDBRANCH   7  14
ENDBRANCH   1   7
BRANCH   5  19
ATOM     19  C   UNL     1       3.142   3.430  16.772  0.00  0.00    +0.000 C 
BRANCH  19  20
ATOM     20  O   UNL     1       4.503   3.792  16.984  0.00  0.00    +0.000 OA
BRANCH  20  21
ATOM     21  C   UNL     1       5.120   4.511  15.912  0.00  0.00    +0.000 C 
ATOM     22  C   UNL     1       4.990   6.000  16.252  0.00  0.00    +0.000 C 
ATOM     23  C   UNL     1       5.848   6.340  17.468  0.00  0.00    +0.000 C 
ATOM     24  O   UNL     1       7.213   5.977  17.246  0.00  0.00    +0.000 OA
ATOM     25  C   UNL     1       7.362   4.576  17.015  0.00  0.00    +0.000 C 
ATOM     26  C   UNL     1       6.605   4.175  15.756  0.00  0.00    +0.000 C 
ENDBRANCH  20  21
ENDBRANCH  19  20
ENDBRANCH   5  19
TORSDOF 5
ENDMDL
MODEL 9
REMARK VINA RESULT:      -7.5      1.921      2.879
REMARK  Name = 
REMARK  6 active torsions:
REMARK  status: ('A' for Active; 'I' for Inactive)
REMARK    1  A    between atoms: C_1  and  C_2
REMARK    2  A    between atoms: N_7  and  C_8
REMARK    3  A    between atoms: C_8  and  C_9
REMARK    4  A    between atoms: C_13  and  C_14
REMARK    5  A    between atoms: C_14  and  O_15
REMARK    6  A    between atoms: O_15  and  C_16
REMARK                            x       y       z     vdW  Elec       q    Type
REMARK                         _______ _______ _______ _____ _____    ______ ____
ROOT
ATOM      1  C   UNL     1       2.222   7.557  18.683  0.00  0.00    +0.000 A 
ATOM      2  C   UNL     1       1.952   7.279  20.028  0.00  0.00    +0.000 A 
ATOM      3  C   UNL     1       2.116   5.988  20.529  0.00  0.00    +0.000 A 
ATOM      4  C   UNL     1       2.544   4.960  19.688  0.00  0.00    +0.000 A 
ATOM      5  C   UNL     1       2.798   5.209  18.333  0.00  0.00    +0.000 A 
ATOM      6  C   UNL     1       2.621   6.510  17.837  0.00  0.00    +0.000 A 
ENDROOT
BRANCH   1   7
ATOM      7  C   UNL     1       2.095   8.959  18.151  0.00  0.00    +0.000 C 
BRANCH   7  14
ATOM      8  C   UNL     1      -1.447  11.326  22.980  0.00  0.00    +0.000 C 
ATOM      9  C   UNL     1      -0.338  11.764  22.035  0.00  0.00    +0.000 C 
ATOM     10  C   UNL     1      -0.603  11.252  20.605  0.00  0.00    +0.000 C 
ATOM     11  N   UNL     1       0.381  11.810  19.669  0.00  0.00    +0.000 N 
ATOM     12  C   UNL     1       1.302  11.112  18.920  0.00  0.00    +0.000 C 
ATOM     13  O   UNL     1       2.195  11.667  18.282  0.00  0.00    +0.000 OA
ATOM     14  N   UNL     1       1.182   9.749  18.945  0.00  0.00    +0.000 N 
ATOM     15  C   UNL     1       0.490  13.269  19.749  0.00  0.00    +0.000 C 
ATOM     16  C   UNL     1       0.748  13.698  21.195  0.00  0.00    +0.000 C 
ATOM     17  O   UNL     1      -0.286  13.204  22.065  0.00  0.00    +0.000 OA
ATOM     18  H   UNL     1       0.241   9.394  18.996  0.00  0.00    +0.000 HD
ENDBRANCH   7  14
ENDBRANCH   1   7
BRANCH   5  19
ATOM     19  C   UNL     1       3.290   4.111  17.425  0.00  0.00    +0.000 C 
BRANCH  19  20
ATOM     20  O   UNL     1       4.365   4.634  16.652  0.00  0.00    +0.000 OA
BRANCH  20  21
ATOM     21  C   UNL     1       5.611   3.945  16.791  0.00  0.00    +0.000 C 
ATOM     22  C   UNL     1       6.158   3.738  15.375  0.00  0.00    +0.000 C 
ATOM     23  C   UNL     1       6.545   5.080  14.758  0.00  0.00    +0.000 C 
ATOM     24  O   UNL     1       7.490   5.766  15.582  0.00  0.00    +0.000 OA
ATOM     25  C   UNL     1       6.963   6.045  16.879  0.00  0.00    +0.000 C 
ATOM     26  C   UNL     1       6.638   4.743  17.599  0.00  0.00    +0.000 C 
ENDBRANCH  20  21
ENDBRANCH  19  20
ENDBRANCH   5  19
TORSDOF 5
ENDMDL
