MODEL 1
REMARK VINA RESULT:      -6.7      0.000      0.000
REMARK  Name = 
REMARK  8 active torsions:
REMARK  status: ('A' for Active; 'I' for Inactive)
REMARK    1  A    between atoms: C_2  and  C_3
REMARK    2  A    between atoms: C_6  and  C_7
REMARK    3  A    between atoms: C_7  and  N_8
REMARK    4  A    between atoms: N_8  and  C_9
REMARK    5  A    between atoms: C_12  and  C_13
REMARK    6  A    between atoms: C_13  and  C_14
REMARK    7  A    between atoms: C_14  and  C_15
REMARK    8  A    between atoms: C_15  and  O_17
REMARK                            x       y       z     vdW  Elec       q    Type
REMARK                         _______ _______ _______ _____ _____    ______ ____
ROOT
ATOM      1  C   UNL     1       4.271   3.952  16.893  0.00  0.00    +0.000 A 
ATOM      2  C   UNL     1       3.351   4.916  17.315  0.00  0.00    +0.000 A 
ATOM      3  C   UNL     1       2.257   4.565  18.106  0.00  0.00    +0.000 A 
ATOM      4  C   UNL     1       2.025   3.232  18.455  0.00  0.00    +0.000 A 
ATOM      5  C   UNL     1       2.923   2.256  18.008  0.00  0.00    +0.000 A 
ATOM      6  C   UNL     1       4.022   2.615  17.219  0.00  0.00    +0.000 A 
ENDROOT
BRANCH   1   7
ATOM      7  N   UNL     1       5.379   4.251  16.081  0.00  0.00    +0.000 N 
ATOM      8  H   UNL     1       5.249   5.170  15.660  0.00  0.00    +0.000 HD
BRANCH   7   9
ATOM      9  C   UNL     1       6.685   4.160  16.731  0.00  0.00    +0.000 C 
BRANCH   9  13
ATOM     10  C   UNL     1       8.161   7.902  18.306  0.00  0.00    +0.000 A 
ATOM     11  C   UNL     1       8.263   6.728  19.056  0.00  0.00    +0.000 A 
ATOM     12  C   UNL     1       7.752   5.530  18.550  0.00  0.00    +0.000 A 
ATOM     13  C   UNL     1       7.127   5.492  17.293  0.00  0.00    +0.000 A 
ATOM     14  C   UNL     1       7.045   6.675  16.544  0.00  0.00    +0.000 A 
ATOM     15  C   UNL     1       7.550   7.874  17.050  0.00  0.00    +0.000 A 
BRANCH  10  17
ATOM     16  N   UNL     1       9.120  10.123  19.238  0.00  0.00    +0.000 NA
ATOM     17  C   UNL     1       8.693   9.129  18.819  0.00  0.00    +0.000 C 
ENDBRANCH  10  17
ENDBRANCH   9  13
ENDBRANCH   7   9
ENDBRANCH   1   7
BRANCH   4  18
ATOM     18  C   UNL     1       0.828   2.868  19.300  0.00  0.00    +0.000 C 
BRANCH  18  19
ATOM     19  C   UNL     1       0.711   3.766  20.532  0.00  0.00    +0.000 C 
BRANCH  19  20
ATOM     20  C   UNL     1       1.891   3.607  21.452  0.00  0.00    +0.000 C 
ATOM     21  O   UNL     1       2.229   2.568  21.997  0.00  0.00    +0.000 OA
BRANCH  20  22
ATOM     22  O   UNL     1       2.573   4.766  21.617  0.00  0.00    +0.000 OA
ATOM     23  H   UNL     1       2.139   5.396  22.223  0.00  0.00    +0.000 HD
ENDBRANCH  20  22
ENDBRANCH  19  20
ENDBRANCH  18  19
ENDBRANCH   4  18
TORSDOF 8
ENDMDL
MODEL 2
REMARK VINA RESULT:      -6.6      3.816      6.636
REMARK  Name = 
REMARK  8 active torsions:
REMARK  status: ('A' for Active; 'I' for Inactive)
REMARK    1  A    between atoms: C_2  and  C_3
REMARK    2  A    between atoms: C_6  and  C_7
REMARK    3  A    between atoms: C_7  and  N_8
REMARK    4  A    between atoms: N_8  and  C_9
REMARK    5  A    between atoms: C_12  and  C_13
REMARK    6  A    between atoms: C_13  and  C_14
REMARK    7  A    between atoms: C_14  and  C_15
REMARK    8  A    between atoms: C_15  and  O_17
REMARK                            x       y       z     vdW  Elec       q    Type
REMARK                         _______ _______ _______ _____ _____    ______ ____
ROOT
ATOM      1  C   UNL     1       4.987   4.401  17.718  0.00  0.00    +0.000 A 
ATOM      2  C   UNL     1       5.466   5.214  16.688  0.00  0.00    +0.000 A 
ATOM      3  C   UNL     1       6.509   6.113  16.910  0.00  0.00    +0.000 A 
ATOM      4  C   UNL     1       7.068   6.261  18.183  0.00  0.00    +0.000 A 
ATOM      5  C   UNL     1       6.570   5.474  19.228  0.00  0.00    +0.000 A 
ATOM      6  C   UNL     1       5.527   4.570  18.997  0.00  0.00    +0.000 A 
ENDROOT
BRANCH   1   7
ATOM      7  N   UNL     1       3.928   3.492  17.550  0.00  0.00    +0.000 N 
ATOM      8  H   UNL     1       3.959   2.799  18.297  0.00  0.00    +0.000 HD
BRANCH   7   9
ATOM      9  C   UNL     1       2.595   4.083  17.449  0.00  0.00    +0.000 C 
BRANCH   9  13
ATOM     10  C   UNL     1       1.772   7.194  20.331  0.00  0.00    +0.000 A 
ATOM     11  C   UNL     1       2.197   7.518  19.040  0.00  0.00    +0.000 A 
ATOM     12  C   UNL     1       2.491   6.502  18.127  0.00  0.00    +0.000 A 
ATOM     13  C   UNL     1       2.373   5.152  18.495  0.00  0.00    +0.000 A 
ATOM     14  C   UNL     1       1.931   4.841  19.789  0.00  0.00    +0.000 A 
ATOM     15  C   UNL     1       1.641   5.854  20.705  0.00  0.00    +0.000 A 
BRANCH  10  17
ATOM     16  N   UNL     1       1.203   9.077  22.019  0.00  0.00    +0.000 NA
ATOM     17  C   UNL     1       1.460   8.234  21.266  0.00  0.00    +0.000 C 
ENDBRANCH  10  17
ENDBRANCH   9  13
ENDBRANCH   7   9
ENDBRANCH   1   7
BRANCH   4  18
ATOM     18  C   UNL     1       8.187   7.249  18.409  0.00  0.00    +0.000 C 
BRANCH  18  19
ATOM     19  C   UNL     1       7.946   8.558  17.656  0.00  0.00    +0.000 C 
BRANCH  19  20
ATOM     20  C   UNL     1       8.621   9.722  18.332  0.00  0.00    +0.000 C 
ATOM     21  O   UNL     1       8.619  10.874  17.927  0.00  0.00    +0.000 OA
BRANCH  20  22
ATOM     22  O   UNL     1       9.244   9.358  19.478  0.00  0.00    +0.000 OA
ATOM     23  H   UNL     1      10.217   9.322  19.403  0.00  0.00    +0.000 HD
ENDBRANCH  20  22
ENDBRANCH  19  20
ENDBRANCH  18  19
ENDBRANCH   4  18
TORSDOF 8
ENDMDL
MODEL 3
REMARK VINA RESULT:      -6.5      5.091      6.979
REMARK  Name = 
REMARK  8 active torsions:
REMARK  status: ('A' for Active; 'I' for Inactive)
REMARK    1  A    between atoms: C_2  and  C_3
REMARK    2  A    between atoms: C_6  and  C_7
REMARK    3  A    between atoms: C_7  and  N_8
REMARK    4  A    between atoms: N_8  and  C_9
REMARK    5  A    between atoms: C_12  and  C_13
REMARK    6  A    between atoms: C_13  and  C_14
REMARK    7  A    between atoms: C_14  and  C_15
REMARK    8  A    between atoms: C_15  and  O_17
REMARK                            x       y       z     vdW  Elec       q    Type
REMARK                         _______ _______ _______ _____ _____    ______ ____
ROOT
ATOM      1  C   UNL     1       4.853   5.373  18.398  0.00  0.00    +0.000 A 
ATOM      2  C   UNL     1       4.208   4.462  17.558  0.00  0.00    +0.000 A 
ATOM      3  C   UNL     1       4.795   4.048  16.362  0.00  0.00    +0.000 A 
ATOM      4  C   UNL     1       6.023   4.575  15.948  0.00  0.00    +0.000 A 
ATOM      5  C   UNL     1       6.659   5.514  16.767  0.00  0.00    +0.000 A 
ATOM      6  C   UNL     1       6.067   5.920  17.969  0.00  0.00    +0.000 A 
ENDROOT
BRANCH   1   7
ATOM      7  N   UNL     1       4.297   5.835  19.603  0.00  0.00    +0.000 N 
ATOM      8  H   UNL     1       4.674   6.758  19.815  0.00  0.00    +0.000 HD
BRANCH   7   9
ATOM      9  C   UNL     1       2.837   5.846  19.664  0.00  0.00    +0.000 C 
BRANCH   9  13
ATOM     10  C   UNL     1       1.073   9.744  19.065  0.00  0.00    +0.000 A 
ATOM     11  C   UNL     1       1.728   9.093  18.017  0.00  0.00    +0.000 A 
ATOM     12  C   UNL     1       2.323   7.848  18.232  0.00  0.00    +0.000 A 
ATOM     13  C   UNL     1       2.278   7.241  19.497  0.00  0.00    +0.000 A 
ATOM     14  C   UNL     1       1.604   7.898  20.537  0.00  0.00    +0.000 A 
ATOM     15  C   UNL     1       1.012   9.145  20.326  0.00  0.00    +0.000 A 
BRANCH  10  17
ATOM     16  N   UNL     1      -0.053  12.045  18.669  0.00  0.00    +0.000 NA
ATOM     17  C   UNL     1       0.453  11.016  18.845  0.00  0.00    +0.000 C 
ENDBRANCH  10  17
ENDBRANCH   9  13
ENDBRANCH   7   9
ENDBRANCH   1   7
BRANCH   4  18
ATOM     18  C   UNL     1       6.638   4.126  14.644  0.00  0.00    +0.000 C 
BRANCH  18  19
ATOM     19  C   UNL     1       5.590   4.001  13.538  0.00  0.00    +0.000 C 
BRANCH  19  20
ATOM     20  C   UNL     1       6.164   3.376  12.295  0.00  0.00    +0.000 C 
ATOM     21  O   UNL     1       5.728   2.382  11.736  0.00  0.00    +0.000 OA
BRANCH  20  22
ATOM     22  O   UNL     1       7.244   4.051  11.833  0.00  0.00    +0.000 OA
ATOM     23  H   UNL     1       7.850   4.353  12.537  0.00  0.00    +0.000 HD
ENDBRANCH  20  22
ENDBRANCH  19  20
ENDBRANCH  18  19
ENDBRANCH   4  18
TORSDOF 8
ENDMDL
MODEL 4
REMARK VINA RESULT:      -6.5      5.459      7.327
REMARK  Name = 
REMARK  8 active torsions:
REMARK  status: ('A' for Active; 'I' for Inactive)
REMARK    1  A    between atoms: C_2  and  C_3
REMARK    2  A    between atoms: C_6  and  C_7
REMARK    3  A    between atoms: C_7  and  N_8
REMARK    4  A    between atoms: N_8  and  C_9
REMARK    5  A    between atoms: C_12  and  C_13
REMARK    6  A    between atoms: C_13  and  C_14
REMARK    7  A    between atoms: C_14  and  C_15
REMARK    8  A    between atoms: C_15  and  O_17
REMARK                            x       y       z     vdW  Elec       q    Type
REMARK                         _______ _______ _______ _____ _____    ______ ____
ROOT
ATOM      1  C   UNL     1       4.110   6.119  17.546  0.00  0.00    +0.000 A 
ATOM      2  C   UNL     1       5.063   6.647  16.671  0.00  0.00    +0.000 A 
ATOM      3  C   UNL     1       5.706   5.836  15.737  0.00  0.00    +0.000 A 
ATOM      4  C   UNL     1       5.451   4.463  15.685  0.00  0.00    +0.000 A 
ATOM      5  C   UNL     1       4.523   3.920  16.581  0.00  0.00    +0.000 A 
ATOM      6  C   UNL     1       3.877   4.740  17.513  0.00  0.00    +0.000 A 
ENDROOT
BRANCH   1   7
ATOM      7  N   UNL     1       3.447   6.890  18.517  0.00  0.00    +0.000 N 
ATOM      8  H   UNL     1       4.137   7.331  19.123  0.00  0.00    +0.000 HD
BRANCH   7   9
ATOM      9  C   UNL     1       2.501   7.879  18.004  0.00  0.00    +0.000 C 
BRANCH   9  13
ATOM     10  C   UNL     1       0.346   9.713  21.269  0.00  0.00    +0.000 A 
ATOM     11  C   UNL     1       1.030   8.510  21.458  0.00  0.00    +0.000 A 
ATOM     12  C   UNL     1       1.696   7.909  20.386  0.00  0.00    +0.000 A 
ATOM     13  C   UNL     1       1.680   8.499  19.112  0.00  0.00    +0.000 A 
ATOM     14  C   UNL     1       1.003   9.715  18.940  0.00  0.00    +0.000 A 
ATOM     15  C   UNL     1       0.333  10.314  20.008  0.00  0.00    +0.000 A 
BRANCH  10  17
ATOM     16  N   UNL     1      -0.873  10.844  23.257  0.00  0.00    +0.000 NA
ATOM     17  C   UNL     1      -0.328  10.335  22.368  0.00  0.00    +0.000 C 
ENDBRANCH  10  17
ENDBRANCH   9  13
ENDBRANCH   7   9
ENDBRANCH   1   7
BRANCH   4  18
ATOM     18  C   UNL     1       6.167   3.597  14.677  0.00  0.00    +0.000 C 
BRANCH  18  19
ATOM     19  C   UNL     1       6.175   4.235  13.287  0.00  0.00    +0.000 C 
BRANCH  19  20
ATOM     20  C   UNL     1       5.709   3.273  12.228  0.00  0.00    +0.000 C 
ATOM     21  O   UNL     1       4.599   3.263  11.720  0.00  0.00    +0.000 OA
BRANCH  20  22
ATOM     22  O   UNL     1       6.675   2.392  11.874  0.00  0.00    +0.000 OA
ATOM     23  H   UNL     1       6.413   1.789  11.152  0.00  0.00    +0.000 HD
ENDBRANCH  20  22
ENDBRANCH  19  20
ENDBRANCH  18  19
ENDBRANCH   4  18
TORSDOF 8
ENDMDL
MODEL 5
REMARK VINA RESULT:      -6.4      5.937      7.869
REMARK  Name = 
REMARK  8 active torsions:
REMARK  status: ('A' for Active; 'I' for Inactive)
REMARK    1  A    between atoms: C_2  and  C_3
REMARK    2  A    between atoms: C_6  and  C_7
REMARK    3  A    between atoms: C_7  and  N_8
REMARK    4  A    between atoms: N_8  and  C_9
REMARK    5  A    between atoms: C_12  and  C_13
REMARK    6  A    between atoms: C_13  and  C_14
REMARK    7  A    between atoms: C_14  and  C_15
REMARK    8  A    between atoms: C_15  and  O_17
REMARK                            x       y       z     vdW  Elec       q    Type
REMARK                         _______ _______ _______ _____ _____    ______ ____
ROOT
ATOM      1  C   UNL     1       2.544   7.228  18.783  0.00  0.00    +0.000 A 
ATOM      2  C   UNL     1       2.374   5.872  19.074  0.00  0.00    +0.000 A 
ATOM      3  C   UNL     1       3.112   4.896  18.405  0.00  0.00    +0.000 A 
ATOM      4  C   UNL     1       4.005   5.247  17.388  0.00  0.00    +0.000 A 
ATOM      5  C   UNL     1       4.156   6.600  17.066  0.00  0.00    +0.000 A 
ATOM      6  C   UNL     1       3.417   7.575  17.746  0.00  0.00    +0.000 A 
ENDROOT
BRANCH   1   7
ATOM      7  N   UNL     1       1.813   8.248  19.416  0.00  0.00    +0.000 N 
ATOM      8  H   UNL     1       1.017   8.502  18.831  0.00  0.00    +0.000 HD
BRANCH   7   9
ATOM      9  C   UNL     1       1.382   7.965  20.782  0.00  0.00    +0.000 C 
BRANCH   9  13
ATOM     10  C   UNL     1      -0.632  11.396  22.467  0.00  0.00    +0.000 A 
ATOM     11  C   UNL     1       0.103  11.514  21.284  0.00  0.00    +0.000 A 
ATOM     12  C   UNL     1       0.776  10.405  20.767  0.00  0.00    +0.000 A 
ATOM     13  C   UNL     1       0.732   9.168  21.428  0.00  0.00    +0.000 A 
ATOM     14  C   UNL     1      -0.022   9.059  22.606  0.00  0.00    +0.000 A 
ATOM     15  C   UNL     1      -0.692  10.167  23.128  0.00  0.00    +0.000 A 
BRANCH  10  17
ATOM     16  N   UNL     1      -1.896  13.450  23.416  0.00  0.00    +0.000 NA
ATOM     17  C   UNL     1      -1.332  12.530  22.993  0.00  0.00    +0.000 C 
ENDBRANCH  10  17
ENDBRANCH   9  13
ENDBRANCH   7   9
ENDBRANCH   1   7
BRANCH   4  18
ATOM     18  C   UNL     1       4.787   4.177  16.664  0.00  0.00    +0.000 C 
BRANCH  18  19
ATOM     19  C   UNL     1       6.282   4.495  16.627  0.00  0.00    +0.000 C 
BRANCH  19  20
ATOM     20  C   UNL     1       6.807   4.539  15.217  0.00  0.00    +0.000 C 
ATOM     21  O   UNL     1       7.591   5.367  14.779  0.00  0.00    +0.000 OA
BRANCH  20  22
ATOM     22  O   UNL     1       6.318   3.531  14.456  0.00  0.00    +0.000 OA
ATOM     23  H   UNL     1       6.845   3.352  13.653  0.00  0.00    +0.000 HD
ENDBRANCH  20  22
ENDBRANCH  19  20
ENDBRANCH  18  19
ENDBRANCH   4  18
TORSDOF 8
ENDMDL
MODEL 6
REMARK VINA RESULT:      -6.4      5.457      7.349
REMARK  Name = 
REMARK  8 active torsions:
REMARK  status: ('A' for Active; 'I' for Inactive)
REMARK    1  A    between atoms: C_2  and  C_3
REMARK    2  A    between atoms: C_6  and  C_7
REMARK    3  A    between atoms: C_7  and  N_8
REMARK    4  A    between atoms: N_8  and  C_9
REMARK    5  A    between atoms: C_12  and  C_13
REMARK    6  A    between atoms: C_13  and  C_14
REMARK    7  A    between atoms: C_14  and  C_15
REMARK    8  A    between atoms: C_15  and  O_17
REMARK                            x       y       z     vdW  Elec       q    Type
REMARK                         _______ _______ _______ _____ _____    ______ ____
ROOT
ATOM      1  C   UNL     1       4.068   5.986  17.546  0.00  0.00    +0.000 A 
ATOM      2  C   UNL     1       5.040   6.583  16.739  0.00  0.00    +0.000 A 
ATOM      3  C   UNL     1       5.725   5.844  15.775  0.00  0.00    +0.000 A 
ATOM      4  C   UNL     1       5.494   4.473  15.627  0.00  0.00    +0.000 A 
ATOM      5  C   UNL     1       4.547   3.860  16.455  0.00  0.00    +0.000 A 
ATOM      6  C   UNL     1       3.858   4.609  17.416  0.00  0.00    +0.000 A 
ENDROOT
BRANCH   1   7
ATOM      7  N   UNL     1       3.362   6.682  18.543  0.00  0.00    +0.000 N 
ATOM      8  H   UNL     1       4.027   7.136  19.169  0.00  0.00    +0.000 HD
BRANCH   7   9
ATOM      9  C   UNL     1       2.366   7.637  18.064  0.00  0.00    +0.000 C 
BRANCH   9  13
ATOM     10  C   UNL     1       0.465   9.898  21.217  0.00  0.00    +0.000 A 
ATOM     11  C   UNL     1       0.512  10.399  19.915  0.00  0.00    +0.000 A 
ATOM     12  C   UNL     1       1.158   9.674  18.910  0.00  0.00    +0.000 A 
ATOM     13  C   UNL     1       1.772   8.444  19.196  0.00  0.00    +0.000 A 
ATOM     14  C   UNL     1       1.704   7.945  20.505  0.00  0.00    +0.000 A 
ATOM     15  C   UNL     1       1.063   8.670  21.512  0.00  0.00    +0.000 A 
BRANCH  10  17
ATOM     16  N   UNL     1      -0.750  11.226  23.082  0.00  0.00    +0.000 NA
ATOM     17  C   UNL     1      -0.206  10.634  22.246  0.00  0.00    +0.000 C 
ENDBRANCH  10  17
ENDBRANCH   9  13
ENDBRANCH   7   9
ENDBRANCH   1   7
BRANCH   4  18
ATOM     18  C   UNL     1       6.255   3.685  14.588  0.00  0.00    +0.000 C 
BRANCH  18  19
ATOM     19  C   UNL     1       6.090   4.283  13.190  0.00  0.00    +0.000 C 
BRANCH  19  20
ATOM     20  C   UNL     1       5.535   3.278  12.216  0.00  0.00    +0.000 C 
ATOM     21  O   UNL     1       4.451   3.356  11.660  0.00  0.00    +0.000 OA
BRANCH  20  22
ATOM     22  O   UNL     1       6.387   2.249  12.000  0.00  0.00    +0.000 OA
ATOM     23  H   UNL     1       7.123   2.465  11.396  0.00  0.00    +0.000 HD
ENDBRANCH  20  22
ENDBRANCH  19  20
ENDBRANCH  18  19
ENDBRANCH   4  18
TORSDOF 8
ENDMDL
MODEL 7
REMARK VINA RESULT:      -6.4      5.007      6.825
REMARK  Name = 
REMARK  8 active torsions:
REMARK  status: ('A' for Active; 'I' for Inactive)
REMARK    1  A    between atoms: C_2  and  C_3
REMARK    2  A    between atoms: C_6  and  C_7
REMARK    3  A    between atoms: C_7  and  N_8
REMARK    4  A    between atoms: N_8  and  C_9
REMARK    5  A    between atoms: C_12  and  C_13
REMARK    6  A    between atoms: C_13  and  C_14
REMARK    7  A    between atoms: C_14  and  C_15
REMARK    8  A    between atoms: C_15  and  O_17
REMARK                            x       y       z     vdW  Elec       q    Type
REMARK                         _______ _______ _______ _____ _____    ______ ____
ROOT
ATOM      1  C   UNL     1       4.870   5.283  18.286  0.00  0.00    +0.000 A 
ATOM      2  C   UNL     1       4.368   4.156  17.631  0.00  0.00    +0.000 A 
ATOM      3  C   UNL     1       4.870   3.763  16.391  0.00  0.00    +0.000 A 
ATOM      4  C   UNL     1       5.855   4.517  15.746  0.00  0.00    +0.000 A 
ATOM      5  C   UNL     1       6.339   5.667  16.380  0.00  0.00    +0.000 A 
ATOM      6  C   UNL     1       5.835   6.053  17.627  0.00  0.00    +0.000 A 
ENDROOT
BRANCH   1   7
ATOM      7  N   UNL     1       4.387   5.731  19.527  0.00  0.00    +0.000 N 
ATOM      8  H   UNL     1       4.722   6.679  19.696  0.00  0.00    +0.000 HD
BRANCH   7   9
ATOM      9  C   UNL     1       2.939   5.653  19.709  0.00  0.00    +0.000 C 
BRANCH   9  13
ATOM     10  C   UNL     1       1.186   9.549  19.065  0.00  0.00    +0.000 A 
ATOM     11  C   UNL     1       1.146   8.954  20.328  0.00  0.00    +0.000 A 
ATOM     12  C   UNL     1       1.687   7.680  20.517  0.00  0.00    +0.000 A 
ATOM     13  C   UNL     1       2.267   6.982  19.445  0.00  0.00    +0.000 A 
ATOM     14  C   UNL     1       2.315   7.598  18.186  0.00  0.00    +0.000 A 
ATOM     15  C   UNL     1       1.771   8.869  17.993  0.00  0.00    +0.000 A 
BRANCH  10  17
ATOM     16  N   UNL     1       0.196  11.919  18.718  0.00  0.00    +0.000 NA
ATOM     17  C   UNL     1       0.641  10.860  18.872  0.00  0.00    +0.000 C 
ENDBRANCH  10  17
ENDBRANCH   9  13
ENDBRANCH   7   9
ENDBRANCH   1   7
BRANCH   4  18
ATOM     18  C   UNL     1       6.378   4.085  14.397  0.00  0.00    +0.000 C 
BRANCH  18  19
ATOM     19  C   UNL     1       5.273   4.071  13.340  0.00  0.00    +0.000 C 
BRANCH  19  20
ATOM     20  C   UNL     1       5.605   3.147  12.199  0.00  0.00    +0.000 C 
ATOM     21  O   UNL     1       4.805   2.704  11.391  0.00  0.00    +0.000 OA
BRANCH  20  22
ATOM     22  O   UNL     1       6.925   2.850  12.147  0.00  0.00    +0.000 OA
ATOM     23  H   UNL     1       7.329   2.695  13.023  0.00  0.00    +0.000 HD
ENDBRANCH  20  22
ENDBRANCH  19  20
ENDBRANCH  18  19
ENDBRANCH   4  18
TORSDOF 8
ENDMDL
MODEL 8
REMARK VINA RESULT:      -6.4      5.984      7.986
REMARK  Name = 
REMARK  8 active torsions:
REMARK  status: ('A' for Active; 'I' for Inactive)
REMARK    1  A    between atoms: C_2  and  C_3
REMARK    2  A    between atoms: C_6  and  C_7
REMARK    3  A    between atoms: C_7  and  N_8
REMARK    4  A    between atoms: N_8  and  C_9
REMARK    5  A    between atoms: C_12  and  C_13
REMARK    6  A    between atoms: C_13  and  C_14
REMARK    7  A    between atoms: C_14  and  C_15
REMARK    8  A    between atoms: C_15  and  O_17
REMARK                            x       y       z     vdW  Elec       q    Type
REMARK                         _______ _______ _______ _____ _____    ______ ____
ROOT
ATOM      1  C   UNL     1       2.701   6.764  19.520  0.00  0.00    +0.000 A 
ATOM      2  C   UNL     1       2.929   5.415  19.805  0.00  0.00    +0.000 A 
ATOM      3  C   UNL     1       3.674   4.615  18.940  0.00  0.00    +0.000 A 
ATOM      4  C   UNL     1       4.169   5.128  17.738  0.00  0.00    +0.000 A 
ATOM      5  C   UNL     1       3.916   6.469  17.428  0.00  0.00    +0.000 A 
ATOM      6  C   UNL     1       3.173   7.269  18.303  0.00  0.00    +0.000 A 
ENDROOT
BRANCH   1   7
ATOM      7  N   UNL     1       1.944   7.609  20.349  0.00  0.00    +0.000 N 
ATOM      8  H   UNL     1       2.484   7.831  21.184  0.00  0.00    +0.000 HD
BRANCH   7   9
ATOM      9  C   UNL     1       1.436   8.826  19.721  0.00  0.00    +0.000 C 
BRANCH   9  13
ATOM     10  C   UNL     1      -1.200  11.055  22.318  0.00  0.00    +0.000 A 
ATOM     11  C   UNL     1      -0.975  11.477  21.006  0.00  0.00    +0.000 A 
ATOM     12  C   UNL     1      -0.095  10.766  20.186  0.00  0.00    +0.000 A 
ATOM     13  C   UNL     1       0.577   9.632  20.669  0.00  0.00    +0.000 A 
ATOM     14  C   UNL     1       0.330   9.210  21.984  0.00  0.00    +0.000 A 
ATOM     15  C   UNL     1      -0.546   9.921  22.807  0.00  0.00    +0.000 A 
BRANCH  10  17
ATOM     16  N   UNL     1      -2.843  12.359  23.841  0.00  0.00    +0.000 NA
ATOM     17  C   UNL     1      -2.110  11.776  23.157  0.00  0.00    +0.000 C 
ENDBRANCH  10  17
ENDBRANCH   9  13
ENDBRANCH   7   9
ENDBRANCH   1   7
BRANCH   4  18
ATOM     18  C   UNL     1       4.961   4.243  16.806  0.00  0.00    +0.000 C 
BRANCH  18  19
ATOM     19  C   UNL     1       5.586   5.043  15.661  0.00  0.00    +0.000 C 
BRANCH  19  20
ATOM     20  C   UNL     1       7.086   4.914  15.646  0.00  0.00    +0.000 C 
ATOM     21  O   UNL     1       7.766   4.461  16.553  0.00  0.00    +0.000 OA
BRANCH  20  22
ATOM     22  O   UNL     1       7.627   5.357  14.486  0.00  0.00    +0.000 OA
ATOM     23  H   UNL     1       8.075   4.661  13.969  0.00  0.00    +0.000 HD
ENDBRANCH  20  22
ENDBRANCH  19  20
ENDBRANCH  18  19
ENDBRANCH   4  18
TORSDOF 8
ENDMDL
MODEL 9
REMARK VINA RESULT:      -6.4      3.999      7.715
REMARK  Name = 
REMARK  8 active torsions:
REMARK  status: ('A' for Active; 'I' for Inactive)
REMARK    1  A    between atoms: C_2  and  C_3
REMARK    2  A    between atoms: C_6  and  C_7
REMARK    3  A    between atoms: C_7  and  N_8
REMARK    4  A    between atoms: N_8  and  C_9
REMARK    5  A    between atoms: C_12  and  C_13
REMARK    6  A    between atoms: C_13  and  C_14
REMARK    7  A    between atoms: C_14  and  C_15
REMARK    8  A    between atoms: C_15  and  O_17
REMARK                            x       y       z     vdW  Elec       q    Type
REMARK                         _______ _______ _______ _____ _____    ______ ____
ROOT
ATOM      1  C   UNL     1       6.774   5.622  17.250  0.00  0.00    +0.000 A 
ATOM      2  C   UNL     1       6.619   6.902  16.711  0.00  0.00    +0.000 A 
ATOM      3  C   UNL     1       7.300   7.994  17.248  0.00  0.00    +0.000 A 
ATOM      4  C   UNL     1       8.117   7.845  18.373  0.00  0.00    +0.000 A 
ATOM      5  C   UNL     1       8.250   6.572  18.940  0.00  0.00    +0.000 A 
ATOM      6  C   UNL     1       7.568   5.479  18.392  0.00  0.00    +0.000 A 
ENDROOT
BRANCH   1   7
ATOM      7  N   UNL     1       6.097   4.493  16.757  0.00  0.00    +0.000 N 
ATOM      8  H   UNL     1       6.378   3.673  17.294  0.00  0.00    +0.000 HD
BRANCH   7   9
ATOM      9  C   UNL     1       4.641   4.601  16.700  0.00  0.00    +0.000 C 
BRANCH   9  13
ATOM     10  C   UNL     1       2.587   3.254  20.254  0.00  0.00    +0.000 A 
ATOM     11  C   UNL     1       2.817   4.615  20.041  0.00  0.00    +0.000 A 
ATOM     12  C   UNL     1       3.511   5.036  18.904  0.00  0.00    +0.000 A 
ATOM     13  C   UNL     1       3.991   4.103  17.971  0.00  0.00    +0.000 A 
ATOM     14  C   UNL     1       3.740   2.740  18.189  0.00  0.00    +0.000 A 
ATOM     15  C   UNL     1       3.050   2.316  19.327  0.00  0.00    +0.000 A 
BRANCH  10  17
ATOM     16  N   UNL     1       1.280   2.474  22.352  0.00  0.00    +0.000 NA
ATOM     17  C   UNL     1       1.866   2.820  21.414  0.00  0.00    +0.000 C 
ENDBRANCH  10  17
ENDBRANCH   9  13
ENDBRANCH   7   9
ENDBRANCH   1   7
BRANCH   4  18
ATOM     18  C   UNL     1       8.836   9.040  18.950  0.00  0.00    +0.000 C 
BRANCH  18  19
ATOM     19  C   UNL     1       8.680  10.277  18.065  0.00  0.00    +0.000 C 
BRANCH  19  20
ATOM     20  C   UNL     1       9.782  11.274  18.301  0.00  0.00    +0.000 C 
ATOM     21  O   UNL     1      10.745  11.104  19.032  0.00  0.00    +0.000 OA
BRANCH  20  22
ATOM     22  O   UNL     1       9.602  12.415  17.594  0.00  0.00    +0.000 OA
ATOM     23  H   UNL     1       9.516  13.213  18.148  0.00  0.00    +0.000 HD
ENDBRANCH  20  22
ENDBRANCH  19  20
ENDBRANCH  18  19
ENDBRANCH   4  18
TORSDOF 8
ENDMDL
