MODEL 1
REMARK VINA RESULT:      -7.6      0.000      0.000
REMARK  Name = 
REMARK  6 active torsions:
REMARK  status: ('A' for Active; 'I' for Inactive)
REMARK    1  A    between atoms: O5*_1  and  C5*_2
REMARK    2  A    between atoms: C5*_2  and  C4*_3
REMARK    3  A    between atoms: C1*_5  and  N_6
REMARK    4  A    between atoms: N_11  and  C_12
REMARK    5  A    between atoms: C2*_24  and  O2*_25
REMARK    6  A    between atoms: C3*_26  and  O3*_27
REMARK                            x       y       z     vdW  Elec       q    Type
REMARK                         _______ _______ _______ _____ _____    ______ ____
ROOT
ATOM      1  N   UNL     1       1.150  10.858  18.905  0.00  0.00    +0.000 N 
ATOM      2  C   UNL     1       1.817  10.489  17.769  0.00  0.00    +0.000 A 
ATOM      3  N   UNL     1       2.228   9.233  17.821  0.00  0.00    +0.000 NA
ATOM      4  C   UNL     1       1.819   8.772  19.060  0.00  0.00    +0.000 A 
ATOM      5  C   UNL     1       1.935   7.516  19.711  0.00  0.00    +0.000 A 
ATOM      6  N   UNL     1       2.580   6.411  19.145  0.00  0.00    +0.000 N 
ATOM      7  N   UNL     1       1.404   7.424  20.962  0.00  0.00    +0.000 NA
ATOM      8  C   UNL     1       0.794   8.500  21.506  0.00  0.00    +0.000 A 
ATOM      9  N   UNL     1       0.599   9.706  20.968  0.00  0.00    +0.000 NA
ATOM     10  C   UNL     1       1.147   9.780  19.745  0.00  0.00    +0.000 A 
ATOM     11  H   UNL     1       2.758   6.556  18.154  0.00  0.00    +0.000 HD
ENDROOT
BRANCH   6  12
ATOM     12  C   UNL     1       2.082   5.072  19.529  0.00  0.00    +0.000 C 
ATOM     13  C   UNL     1       1.512   4.362  18.294  0.00  0.00    +0.000 C 
ATOM     14  C   UNL     1       0.905   2.980  18.533  0.00  0.00    +0.000 C 
ATOM     15  C   UNL     1       1.849   1.831  18.878  0.00  0.00    +0.000 C 
ATOM     16  C   UNL     1       3.214   1.873  18.197  0.00  0.00    +0.000 C 
ATOM     17  C   UNL     1       4.343   2.311  19.126  0.00  0.00    +0.000 C 
ATOM     18  C   UNL     1       4.384   3.778  19.569  0.00  0.00    +0.000 C 
ATOM     19  C   UNL     1       3.171   4.325  20.327  0.00  0.00    +0.000 C 
ENDBRANCH   6  12
BRANCH   1  22
ATOM     20  C4* UNL     1      -0.674  12.984  21.045  0.00  0.00    +0.000 C 
ATOM     21  O4* UNL     1       0.594  12.427  20.614  0.00  0.00    +0.000 OA
ATOM     22  C1* UNL     1       0.517  12.136  19.194  0.00  0.00    +0.000 C 
ATOM     23  C2* UNL     1      -0.955  12.230  18.787  0.00  0.00    +0.000 C 
ATOM     24  C3* UNL     1      -1.481  13.254  19.780  0.00  0.00    +0.000 C 
BRANCH  23  25
ATOM     25  O2* UNL     1      -1.155  12.685  17.447  0.00  0.00    +0.000 OA
ATOM     26  H2* UNL     1      -0.530  12.181  16.888  0.00  0.00    +0.000 HD
ENDBRANCH  23  25
BRANCH  24  27
ATOM     27  O3* UNL     1      -1.196  14.574  19.266  0.00  0.00    +0.000 OA
ATOM     28  H3* UNL     1      -1.069  14.520  18.300  0.00  0.00    +0.000 HD
ENDBRANCH  24  27
BRANCH  20  29
ATOM     29  C5* UNL     1      -1.357  12.025  22.025  0.00  0.00    +0.000 C 
BRANCH  29  30
ATOM     30  O5* UNL     1      -0.447  11.567  23.017  0.00  0.00    +0.000 OA
ATOM     31  H5* UNL     1      -0.765  10.693  23.311  0.00  0.00    +0.000 HD
ENDBRANCH  29  30
ENDBRANCH  20  29
ENDBRANCH   1  22
TORSDOF 6
ENDMDL
MODEL 2
REMARK VINA RESULT:      -7.5      4.140      8.830
REMARK  Name = 
REMARK  6 active torsions:
REMARK  status: ('A' for Active; 'I' for Inactive)
REMARK    1  A    between atoms: O5*_1  and  C5*_2
REMARK    2  A    between atoms: C5*_2  and  C4*_3
REMARK    3  A    between atoms: C1*_5  and  N_6
REMARK    4  A    between atoms: N_11  and  C_12
REMARK    5  A    between atoms: C2*_24  and  O2*_25
REMARK    6  A    between atoms: C3*_26  and  O3*_27
REMARK                            x       y       z     vdW  Elec       q    Type
REMARK                         _______ _______ _______ _____ _____    ______ ____
ROOT
ATOM      1  N   UNL     1       2.747   6.779  18.574  0.00  0.00    +0.000 N 
ATOM      2  C   UNL     1       2.979   7.536  17.458  0.00  0.00    +0.000 A 
ATOM      3  N   UNL     1       2.479   8.755  17.573  0.00  0.00    +0.000 NA
ATOM      4  C   UNL     1       1.882   8.782  18.821  0.00  0.00    +0.000 A 
ATOM      5  C   UNL     1       1.193   9.793  19.542  0.00  0.00    +0.000 A 
ATOM      6  N   UNL     1       0.961  11.077  19.037  0.00  0.00    +0.000 N 
ATOM      7  N   UNL     1       0.725   9.454  20.775  0.00  0.00    +0.000 NA
ATOM      8  C   UNL     1       0.944   8.208  21.249  0.00  0.00    +0.000 A 
ATOM      9  N   UNL     1       1.607   7.203  20.673  0.00  0.00    +0.000 NA
ATOM     10  C   UNL     1       2.041   7.552  19.452  0.00  0.00    +0.000 A 
ATOM     11  H   UNL     1       1.517  11.252  18.204  0.00  0.00    +0.000 HD
ENDROOT
BRANCH   6  12
ATOM     12  C   UNL     1       0.887  12.182  20.017  0.00  0.00    +0.000 C 
ATOM     13  C   UNL     1       2.212  12.958  20.016  0.00  0.00    +0.000 C 
ATOM     14  C   UNL     1       2.319  14.106  21.019  0.00  0.00    +0.000 C 
ATOM     15  C   UNL     1       1.475  15.355  20.774  0.00  0.00    +0.000 C 
ATOM     16  C   UNL     1       1.275  15.738  19.310  0.00  0.00    +0.000 C 
ATOM     17  C   UNL     1      -0.116  15.401  18.779  0.00  0.00    +0.000 C 
ATOM     18  C   UNL     1      -0.468  13.923  18.567  0.00  0.00    +0.000 C 
ATOM     19  C   UNL     1      -0.402  12.996  19.784  0.00  0.00    +0.000 C 
ENDBRANCH   6  12
BRANCH   1  22
ATOM     20  C4* UNL     1       5.264   4.315  18.704  0.00  0.00    +0.000 C 
ATOM     21  O4* UNL     1       4.545   5.405  19.333  0.00  0.00    +0.000 OA
ATOM     22  C1* UNL     1       3.181   5.415  18.833  0.00  0.00    +0.000 C 
ATOM     23  C2* UNL     1       3.133   4.485  17.619  0.00  0.00    +0.000 C 
ATOM     24  C3* UNL     1       4.226   3.483  17.958  0.00  0.00    +0.000 C 
BRANCH  23  25
ATOM     25  O2* UNL     1       1.880   3.819  17.452  0.00  0.00    +0.000 OA
ATOM     26  H2* UNL     1       1.729   3.304  18.268  0.00  0.00    +0.000 HD
ENDBRANCH  23  25
BRANCH  24  27
ATOM     27  O3* UNL     1       3.664   2.473  18.825  0.00  0.00    +0.000 OA
ATOM     28  H3* UNL     1       3.352   2.897  19.648  0.00  0.00    +0.000 HD
ENDBRANCH  24  27
BRANCH  20  29
ATOM     29  C5* UNL     1       6.374   4.872  17.808  0.00  0.00    +0.000 C 
BRANCH  29  30
ATOM     30  O5* UNL     1       7.613   4.220  18.057  0.00  0.00    +0.000 OA
ATOM     31  H5* UNL     1       7.830   4.372  18.996  0.00  0.00    +0.000 HD
ENDBRANCH  29  30
ENDBRANCH  20  29
ENDBRANCH   1  22
TORSDOF 6
ENDMDL
MODEL 3
REMARK VINA RESULT:      -7.5      3.890      8.530
REMARK  Name = 
REMARK  6 active torsions:
REMARK  status: ('A' for Active; 'I' for Inactive)
REMARK    1  A    between atoms: O5*_1  and  C5*_2
REMARK    2  A    between atoms: C5*_2  and  C4*_3
REMARK    3  A    between atoms: C1*_5  and  N_6
REMARK    4  A    between atoms: N_11  and  C_12
REMARK    5  A    between atoms: C2*_24  and  O2*_25
REMARK    6  A    between atoms: C3*_26  and  O3*_27
REMARK                            x       y       z     vdW  Elec       q    Type
REMARK                         _______ _______ _______ _____ _____    ______ ____
ROOT
ATOM      1  N   UNL     1       2.250   6.613  19.192  0.00  0.00    +0.000 N 
ATOM      2  C   UNL     1       1.801   6.442  20.473  0.00  0.00    +0.000 A 
ATOM      3  N   UNL     1       1.339   7.569  20.989  0.00  0.00    +0.000 NA
ATOM      4  C   UNL     1       1.512   8.517  19.997  0.00  0.00    +0.000 A 
ATOM      5  C   UNL     1       1.207   9.902  19.918  0.00  0.00    +0.000 A 
ATOM      6  N   UNL     1       0.628  10.624  20.966  0.00  0.00    +0.000 N 
ATOM      7  N   UNL     1       1.531  10.534  18.755  0.00  0.00    +0.000 NA
ATOM      8  C   UNL     1       2.100   9.831  17.752  0.00  0.00    +0.000 A 
ATOM      9  N   UNL     1       2.392   8.528  17.711  0.00  0.00    +0.000 NA
ATOM     10  C   UNL     1       2.084   7.930  18.872  0.00  0.00    +0.000 A 
ATOM     11  H   UNL     1       0.270  10.004  21.688  0.00  0.00    +0.000 HD
ENDROOT
BRANCH   6  12
ATOM     12  C   UNL     1      -0.238  11.767  20.599  0.00  0.00    +0.000 C 
ATOM     13  C   UNL     1      -1.563  11.244  20.027  0.00  0.00    +0.000 C 
ATOM     14  C   UNL     1      -2.553  12.305  19.548  0.00  0.00    +0.000 C 
ATOM     15  C   UNL     1      -3.237  13.175  20.598  0.00  0.00    +0.000 C 
ATOM     16  C   UNL     1      -3.560  12.482  21.920  0.00  0.00    +0.000 C 
ATOM     17  C   UNL     1      -2.615  12.870  23.055  0.00  0.00    +0.000 C 
ATOM     18  C   UNL     1      -1.171  12.357  22.998  0.00  0.00    +0.000 C 
ATOM     19  C   UNL     1      -0.325  12.751  21.784  0.00  0.00    +0.000 C 
ENDBRANCH   6  12
BRANCH   1  22
ATOM     20  C4* UNL     1       3.435   3.351  18.572  0.00  0.00    +0.000 C 
ATOM     21  O4* UNL     1       2.329   4.281  18.691  0.00  0.00    +0.000 OA
ATOM     22  C1* UNL     1       2.784   5.601  18.292  0.00  0.00    +0.000 C 
ATOM     23  C2* UNL     1       4.311   5.554  18.212  0.00  0.00    +0.000 C 
ATOM     24  C3* UNL     1       4.553   4.097  17.850  0.00  0.00    +0.000 C 
BRANCH  23  25
ATOM     25  O2* UNL     1       4.864   6.415  17.215  0.00  0.00    +0.000 OA
ATOM     26  H2* UNL     1       4.595   7.324  17.456  0.00  0.00    +0.000 HD
ENDBRANCH  23  25
BRANCH  24  27
ATOM     27  O3* UNL     1       4.417   3.956  16.418  0.00  0.00    +0.000 OA
ATOM     28  H3* UNL     1       3.934   3.131  16.223  0.00  0.00    +0.000 HD
ENDBRANCH  24  27
BRANCH  20  29
ATOM     29  C5* UNL     1       3.829   2.831  19.957  0.00  0.00    +0.000 C 
BRANCH  29  30
ATOM     30  O5* UNL     1       5.116   2.225  19.933  0.00  0.00    +0.000 OA
ATOM     31  H5* UNL     1       5.396   2.192  18.999  0.00  0.00    +0.000 HD
ENDBRANCH  29  30
ENDBRANCH  20  29
ENDBRANCH   1  22
TORSDOF 6
ENDMDL
MODEL 4
REMARK VINA RESULT:      -7.5      1.300      1.436
REMARK  Name = 
REMARK  6 active torsions:
REMARK  status: ('A' for Active; 'I' for Inactive)
REMARK    1  A    between atoms: O5*_1  and  C5*_2
REMARK    2  A    between atoms: C5*_2  and  C4*_3
REMARK    3  A    between atoms: C1*_5  and  N_6
REMARK    4  A    between atoms: N_11  and  C_12
REMARK    5  A    between atoms: C2*_24  and  O2*_25
REMARK    6  A    between atoms: C3*_26  and  O3*_27
REMARK                            x       y       z     vdW  Elec       q    Type
REMARK                         _______ _______ _______ _____ _____    ______ ____
ROOT
ATOM      1  N   UNL     1       0.185  11.448  19.457  0.00  0.00    +0.000 N 
ATOM      2  C   UNL     1       1.077  11.487  18.421  0.00  0.00    +0.000 A 
ATOM      3  N   UNL     1       1.781  10.370  18.331  0.00  0.00    +0.000 NA
ATOM      4  C   UNL     1       1.330   9.576  19.370  0.00  0.00    +0.000 A 
ATOM      5  C   UNL     1       1.668   8.267  19.804  0.00  0.00    +0.000 A 
ATOM      6  N   UNL     1       2.643   7.478  19.186  0.00  0.00    +0.000 N 
ATOM      7  N   UNL     1       1.005   7.795  20.896  0.00  0.00    +0.000 NA
ATOM      8  C   UNL     1       0.073   8.568  21.494  0.00  0.00    +0.000 A 
ATOM      9  N   UNL     1      -0.343   9.789  21.147  0.00  0.00    +0.000 NA
ATOM     10  C   UNL     1       0.336  10.242  20.082  0.00  0.00    +0.000 A 
ATOM     11  H   UNL     1       2.917   7.868  18.287  0.00  0.00    +0.000 HD
ENDROOT
BRANCH   6  12
ATOM     12  C   UNL     1       2.451   6.012  19.230  0.00  0.00    +0.000 C 
ATOM     13  C   UNL     1       1.963   5.516  17.862  0.00  0.00    +0.000 C 
ATOM     14  C   UNL     1       1.663   4.021  17.757  0.00  0.00    +0.000 C 
ATOM     15  C   UNL     1       2.839   3.049  17.798  0.00  0.00    +0.000 C 
ATOM     16  C   UNL     1       4.124   3.541  17.136  0.00  0.00    +0.000 C 
ATOM     17  C   UNL     1       5.196   3.971  18.135  0.00  0.00    +0.000 C 
ATOM     18  C   UNL     1       4.965   5.263  18.928  0.00  0.00    +0.000 C 
ATOM     19  C   UNL     1       3.715   5.342  19.808  0.00  0.00    +0.000 C 
ENDBRANCH   6  12
BRANCH   1  22
ATOM     20  C4* UNL     1      -1.837  13.029  21.874  0.00  0.00    +0.000 C 
ATOM     21  O4* UNL     1      -0.556  12.889  21.209  0.00  0.00    +0.000 OA
ATOM     22  C1* UNL     1      -0.784  12.464  19.839  0.00  0.00    +0.000 C 
ATOM     23  C2* UNL     1      -2.247  12.027  19.734  0.00  0.00    +0.000 C 
ATOM     24  C3* UNL     1      -2.903  12.902  20.791  0.00  0.00    +0.000 C 
BRANCH  23  25
ATOM     25  O2* UNL     1      -2.830  12.268  18.453  0.00  0.00    +0.000 OA
ATOM     26  H2* UNL     1      -3.619  11.694  18.395  0.00  0.00    +0.000 HD
ENDBRANCH  23  25
BRANCH  24  27
ATOM     27  O3* UNL     1      -3.187  14.191  20.201  0.00  0.00    +0.000 OA
ATOM     28  H3* UNL     1      -4.091  14.182  19.836  0.00  0.00    +0.000 HD
ENDBRANCH  24  27
BRANCH  20  29
ATOM     29  C5* UNL     1      -1.960  11.989  22.991  0.00  0.00    +0.000 C 
BRANCH  29  30
ATOM     30  O5* UNL     1      -0.686  11.476  23.361  0.00  0.00    +0.000 OA
ATOM     31  H5* UNL     1      -0.761  10.503  23.361  0.00  0.00    +0.000 HD
ENDBRANCH  29  30
ENDBRANCH  20  29
ENDBRANCH   1  22
TORSDOF 6
ENDMDL
MODEL 5
REMARK VINA RESULT:      -7.4      3.688      8.512
REMARK  Name = 
REMARK  6 active torsions:
REMARK  status: ('A' for Active; 'I' for Inactive)
REMARK    1  A    between atoms: O5*_1  and  C5*_2
REMARK    2  A    between atoms: C5*_2  and  C4*_3
REMARK    3  A    between atoms: C1*_5  and  N_6
REMARK    4  A    between atoms: N_11  and  C_12
REMARK    5  A    between atoms: C2*_24  and  O2*_25
REMARK    6  A    between atoms: C3*_26  and  O3*_27
REMARK                            x       y       z     vdW  Elec       q    Type
REMARK                         _______ _______ _______ _____ _____    ______ ____
ROOT
ATOM      1  N   UNL     1       2.249   6.526  19.493  0.00  0.00    +0.000 N 
ATOM      2  C   UNL     1       1.794   6.452  20.781  0.00  0.00    +0.000 A 
ATOM      3  N   UNL     1       1.319   7.612  21.205  0.00  0.00    +0.000 NA
ATOM      4  C   UNL     1       1.489   8.481  20.142  0.00  0.00    +0.000 A 
ATOM      5  C   UNL     1       1.172   9.852  19.954  0.00  0.00    +0.000 A 
ATOM      6  N   UNL     1       0.581  10.649  20.940  0.00  0.00    +0.000 N 
ATOM      7  N   UNL     1       1.497  10.395  18.747  0.00  0.00    +0.000 NA
ATOM      8  C   UNL     1       2.078   9.621  17.805  0.00  0.00    +0.000 A 
ATOM      9  N   UNL     1       2.383   8.322  17.867  0.00  0.00    +0.000 NA
ATOM     10  C   UNL     1       2.073   7.813  19.070  0.00  0.00    +0.000 A 
ATOM     11  H   UNL     1       0.224  10.083  21.706  0.00  0.00    +0.000 HD
ENDROOT
BRANCH   6  12
ATOM     12  C   UNL     1      -0.293  11.751  20.481  0.00  0.00    +0.000 C 
ATOM     13  C   UNL     1      -1.638  11.178  20.011  0.00  0.00    +0.000 C 
ATOM     14  C   UNL     1      -2.640  12.188  19.452  0.00  0.00    +0.000 C 
ATOM     15  C   UNL     1      -3.287  13.170  20.424  0.00  0.00    +0.000 C 
ATOM     16  C   UNL     1      -3.568  12.625  21.823  0.00  0.00    +0.000 C 
ATOM     17  C   UNL     1      -2.586  13.126  22.878  0.00  0.00    +0.000 C 
ATOM     18  C   UNL     1      -1.146  12.601  22.830  0.00  0.00    +0.000 C 
ATOM     19  C   UNL     1      -0.339  12.857  21.555  0.00  0.00    +0.000 C 
ENDBRANCH   6  12
BRANCH   1  22
ATOM     20  C4* UNL     1       2.215   3.189  18.358  0.00  0.00    +0.000 C 
ATOM     21  O4* UNL     1       1.739   4.554  18.250  0.00  0.00    +0.000 OA
ATOM     22  C1* UNL     1       2.797   5.453  18.677  0.00  0.00    +0.000 C 
ATOM     23  C2* UNL     1       3.867   4.604  19.367  0.00  0.00    +0.000 C 
ATOM     24  C3* UNL     1       3.710   3.273  18.649  0.00  0.00    +0.000 C 
BRANCH  23  25
ATOM     25  O2* UNL     1       5.195   5.106  19.204  0.00  0.00    +0.000 OA
ATOM     26  H2* UNL     1       5.107   6.057  18.997  0.00  0.00    +0.000 HD
ENDBRANCH  23  25
BRANCH  24  27
ATOM     27  O3* UNL     1       4.466   3.327  17.419  0.00  0.00    +0.000 OA
ATOM     28  H3* UNL     1       4.567   4.259  17.148  0.00  0.00    +0.000 HD
ENDBRANCH  24  27
BRANCH  20  29
ATOM     29  C5* UNL     1       1.414   2.442  19.430  0.00  0.00    +0.000 C 
BRANCH  29  30
ATOM     30  O5* UNL     1       0.456   3.294  20.044  0.00  0.00    +0.000 OA
ATOM     31  H5* UNL     1      -0.310   2.737  20.279  0.00  0.00    +0.000 HD
ENDBRANCH  29  30
ENDBRANCH  20  29
ENDBRANCH   1  22
TORSDOF 6
ENDMDL
MODEL 6
REMARK VINA RESULT:      -7.3      1.507      2.544
REMARK  Name = 
REMARK  6 active torsions:
REMARK  status: ('A' for Active; 'I' for Inactive)
REMARK    1  A    between atoms: O5*_1  and  C5*_2
REMARK    2  A    between atoms: C5*_2  and  C4*_3
REMARK    3  A    between atoms: C1*_5  and  N_6
REMARK    4  A    between atoms: N_11  and  C_12
REMARK    5  A    between atoms: C2*_24  and  O2*_25
REMARK    6  A    between atoms: C3*_26  and  O3*_27
REMARK                            x       y       z     vdW  Elec       q    Type
REMARK                         _______ _______ _______ _____ _____    ______ ____
ROOT
ATOM      1  N   UNL     1      -0.274  11.090  20.049  0.00  0.00    +0.000 N 
ATOM      2  C   UNL     1       0.205  11.207  18.772  0.00  0.00    +0.000 A 
ATOM      3  N   UNL     1       0.998  10.200  18.447  0.00  0.00    +0.000 NA
ATOM      4  C   UNL     1       1.045   9.400  19.574  0.00  0.00    +0.000 A 
ATOM      5  C   UNL     1       1.701   8.174  19.864  0.00  0.00    +0.000 A 
ATOM      6  N   UNL     1       2.522   7.505  18.951  0.00  0.00    +0.000 N 
ATOM      7  N   UNL     1       1.521   7.665  21.115  0.00  0.00    +0.000 NA
ATOM      8  C   UNL     1       0.736   8.324  21.994  0.00  0.00    +0.000 A 
ATOM      9  N   UNL     1       0.049   9.455  21.811  0.00  0.00    +0.000 NA
ATOM     10  C   UNL     1       0.257   9.949  20.581  0.00  0.00    +0.000 A 
ATOM     11  H   UNL     1       2.419   7.886  18.014  0.00  0.00    +0.000 HD
ENDROOT
BRANCH   6  12
ATOM     12  C   UNL     1       2.580   6.030  19.053  0.00  0.00    +0.000 C 
ATOM     13  C   UNL     1       1.954   5.404  17.798  0.00  0.00    +0.000 C 
ATOM     14  C   UNL     1       1.886   3.878  17.772  0.00  0.00    +0.000 C 
ATOM     15  C   UNL     1       3.193   3.104  17.624  0.00  0.00    +0.000 C 
ATOM     16  C   UNL     1       4.252   3.760  16.741  0.00  0.00    +0.000 C 
ATOM     17  C   UNL     1       5.393   4.396  17.531  0.00  0.00    +0.000 C 
ATOM     18  C   UNL     1       5.094   5.670  18.331  0.00  0.00    +0.000 C 
ATOM     19  C   UNL     1       4.014   5.592  19.414  0.00  0.00    +0.000 C 
ENDBRANCH   6  12
BRANCH   1  22
ATOM     20  C4* UNL     1      -1.786  14.245  20.481  0.00  0.00    +0.000 C 
ATOM     21  O4* UNL     1      -1.741  12.957  19.816  0.00  0.00    +0.000 OA
ATOM     22  C1* UNL     1      -1.202  11.974  20.738  0.00  0.00    +0.000 C 
ATOM     23  C2* UNL     1      -0.602  12.737  21.921  0.00  0.00    +0.000 C 
ATOM     24  C3* UNL     1      -1.470  13.985  21.950  0.00  0.00    +0.000 C 
BRANCH  23  25
ATOM     25  O2* UNL     1      -0.691  12.037  23.164  0.00  0.00    +0.000 OA
ATOM     26  H2* UNL     1       0.153  11.555  23.270  0.00  0.00    +0.000 HD
ENDBRANCH  23  25
BRANCH  24  27
ATOM     27  O3* UNL     1      -2.677  13.682  22.684  0.00  0.00    +0.000 OA
ATOM     28  H3* UNL     1      -2.492  12.966  23.321  0.00  0.00    +0.000 HD
ENDBRANCH  24  27
BRANCH  20  29
ATOM     29  C5* UNL     1      -0.817  15.216  19.799  0.00  0.00    +0.000 C 
BRANCH  29  30
ATOM     30  O5* UNL     1      -0.492  14.783  18.484  0.00  0.00    +0.000 OA
ATOM     31  H5* UNL     1       0.262  14.170  18.566  0.00  0.00    +0.000 HD
ENDBRANCH  29  30
ENDBRANCH  20  29
ENDBRANCH   1  22
TORSDOF 6
ENDMDL
MODEL 7
REMARK VINA RESULT:      -7.2      4.017      8.374
REMARK  Name = 
REMARK  6 active torsions:
REMARK  status: ('A' for Active; 'I' for Inactive)
REMARK    1  A    between atoms: O5*_1  and  C5*_2
REMARK    2  A    between atoms: C5*_2  and  C4*_3
REMARK    3  A    between atoms: C1*_5  and  N_6
REMARK    4  A    between atoms: N_11  and  C_12
REMARK    5  A    between atoms: C2*_24  and  O2*_25
REMARK    6  A    between atoms: C3*_26  and  O3*_27
REMARK                            x       y       z     vdW  Elec       q    Type
REMARK                         _______ _______ _______ _____ _____    ______ ____
ROOT
ATOM      1  N   UNL     1       2.704   6.221  19.964  0.00  0.00    +0.000 N 
ATOM      2  C   UNL     1       1.853   6.439  21.013  0.00  0.00    +0.000 A 
ATOM      3  N   UNL     1       1.140   7.541  20.852  0.00  0.00    +0.000 NA
ATOM      4  C   UNL     1       1.563   8.070  19.645  0.00  0.00    +0.000 A 
ATOM      5  C   UNL     1       1.182   9.221  18.907  0.00  0.00    +0.000 A 
ATOM      6  N   UNL     1       0.211  10.129  19.342  0.00  0.00    +0.000 N 
ATOM      7  N   UNL     1       1.833   9.437  17.730  0.00  0.00    +0.000 NA
ATOM      8  C   UNL     1       2.778   8.561  17.323  0.00  0.00    +0.000 A 
ATOM      9  N   UNL     1       3.182   7.436  17.920  0.00  0.00    +0.000 NA
ATOM     10  C   UNL     1       2.543   7.255  19.085  0.00  0.00    +0.000 A 
ATOM     11  H   UNL     1      -0.319   9.755  20.125  0.00  0.00    +0.000 HD
ENDROOT
BRANCH   6  12
ATOM     12  C   UNL     1      -0.571  10.830  18.300  0.00  0.00    +0.000 C 
ATOM     13  C   UNL     1      -1.585   9.859  17.679  0.00  0.00    +0.000 C 
ATOM     14  C   UNL     1      -2.440  10.417  16.542  0.00  0.00    +0.000 C 
ATOM     15  C   UNL     1      -3.501  11.460  16.885  0.00  0.00    +0.000 C 
ATOM     16  C   UNL     1      -4.188  11.280  18.237  0.00  0.00    +0.000 C 
ATOM     17  C   UNL     1      -3.707  12.266  19.298  0.00  0.00    +0.000 C 
ATOM     18  C   UNL     1      -2.291  12.089  19.858  0.00  0.00    +0.000 C 
ATOM     19  C   UNL     1      -1.123  12.153  18.869  0.00  0.00    +0.000 C 
ENDBRANCH   6  12
BRANCH   1  22
ATOM     20  C4* UNL     1       5.478   4.736  18.375  0.00  0.00    +0.000 C 
ATOM     21  O4* UNL     1       4.937   5.572  19.428  0.00  0.00    +0.000 OA
ATOM     22  C1* UNL     1       3.607   5.097  19.766  0.00  0.00    +0.000 C 
ATOM     23  C2* UNL     1       3.180   4.117  18.671  0.00  0.00    +0.000 C 
ATOM     24  C3* UNL     1       4.521   3.557  18.223  0.00  0.00    +0.000 C 
BRANCH  23  25
ATOM     25  O2* UNL     1       2.331   3.067  19.137  0.00  0.00    +0.000 OA
ATOM     26  H2* UNL     1       2.892   2.270  19.213  0.00  0.00    +0.000 HD
ENDBRANCH  23  25
BRANCH  24  27
ATOM     27  O3* UNL     1       4.888   2.485  19.120  0.00  0.00    +0.000 OA
ATOM     28  H3* UNL     1       4.268   2.472  19.873  0.00  0.00    +0.000 HD
ENDBRANCH  24  27
BRANCH  20  29
ATOM     29  C5* UNL     1       5.656   5.559  17.096  0.00  0.00    +0.000 C 
BRANCH  29  30
ATOM     30  O5* UNL     1       6.088   6.881  17.390  0.00  0.00    +0.000 OA
ATOM     31  H5* UNL     1       5.696   7.123  18.250  0.00  0.00    +0.000 HD
ENDBRANCH  29  30
ENDBRANCH  20  29
ENDBRANCH   1  22
TORSDOF 6
ENDMDL
MODEL 8
REMARK VINA RESULT:      -7.2      4.338      8.750
REMARK  Name = 
REMARK  6 active torsions:
REMARK  status: ('A' for Active; 'I' for Inactive)
REMARK    1  A    between atoms: O5*_1  and  C5*_2
REMARK    2  A    between atoms: C5*_2  and  C4*_3
REMARK    3  A    between atoms: C1*_5  and  N_6
REMARK    4  A    between atoms: N_11  and  C_12
REMARK    5  A    between atoms: C2*_24  and  O2*_25
REMARK    6  A    between atoms: C3*_26  and  O3*_27
REMARK                            x       y       z     vdW  Elec       q    Type
REMARK                         _______ _______ _______ _____ _____    ______ ____
ROOT
ATOM      1  N   UNL     1       2.677   4.780  19.806  0.00  0.00    +0.000 N 
ATOM      2  C   UNL     1       1.907   4.990  20.918  0.00  0.00    +0.000 A 
ATOM      3  N   UNL     1       1.474   6.238  20.991  0.00  0.00    +0.000 NA
ATOM      4  C   UNL     1       2.004   6.868  19.878  0.00  0.00    +0.000 A 
ATOM      5  C   UNL     1       1.901   8.192  19.377  0.00  0.00    +0.000 A 
ATOM      6  N   UNL     1       1.175   9.204  20.013  0.00  0.00    +0.000 N 
ATOM      7  N   UNL     1       2.579   8.465  18.226  0.00  0.00    +0.000 NA
ATOM      8  C   UNL     1       3.287   7.485  17.624  0.00  0.00    +0.000 A 
ATOM      9  N   UNL     1       3.417   6.207  17.990  0.00  0.00    +0.000 NA
ATOM     10  C   UNL     1       2.759   5.966  19.135  0.00  0.00    +0.000 A 
ATOM     11  H   UNL     1       0.576   8.824  20.742  0.00  0.00    +0.000 HD
ENDROOT
BRANCH   6  12
ATOM     12  C   UNL     1       0.576  10.247  19.152  0.00  0.00    +0.000 C 
ATOM     13  C   UNL     1      -0.890   9.893  18.864  0.00  0.00    +0.000 C 
ATOM     14  C   UNL     1      -1.642  10.849  17.938  0.00  0.00    +0.000 C 
ATOM     15  C   UNL     1      -1.979  12.242  18.463  0.00  0.00    +0.000 C 
ATOM     16  C   UNL     1      -2.314  12.321  19.951  0.00  0.00    +0.000 C 
ATOM     17  C   UNL     1      -1.187  12.909  20.797  0.00  0.00    +0.000 C 
ATOM     18  C   UNL     1       0.076  12.064  21.001  0.00  0.00    +0.000 C 
ATOM     19  C   UNL     1       0.856  11.639  19.754  0.00  0.00    +0.000 C 
ENDBRANCH   6  12
BRANCH   1  22
ATOM     20  C4* UNL     1       4.785   2.976  17.632  0.00  0.00    +0.000 C 
ATOM     21  O4* UNL     1       4.610   3.785  18.822  0.00  0.00    +0.000 OA
ATOM     22  C1* UNL     1       3.287   3.534  19.367  0.00  0.00    +0.000 C 
ATOM     23  C2* UNL     1       2.493   2.770  18.305  0.00  0.00    +0.000 C 
ATOM     24  C3* UNL     1       3.599   2.019  17.579  0.00  0.00    +0.000 C 
BRANCH  23  25
ATOM     25  O2* UNL     1       1.539   1.854  18.846  0.00  0.00    +0.000 OA
ATOM     26  H2* UNL     1       1.224   1.309  18.098  0.00  0.00    +0.000 HD
ENDBRANCH  23  25
BRANCH  24  27
ATOM     27  O3* UNL     1       3.886   0.810  18.315  0.00  0.00    +0.000 OA
ATOM     28  H3* UNL     1       3.316   0.774  19.106  0.00  0.00    +0.000 HD
ENDBRANCH  24  27
BRANCH  20  29
ATOM     29  C5* UNL     1       4.909   3.880  16.402  0.00  0.00    +0.000 C 
BRANCH  29  30
ATOM     30  O5* UNL     1       5.768   4.985  16.659  0.00  0.00    +0.000 OA
ATOM     31  H5* UNL     1       5.686   5.193  17.609  0.00  0.00    +0.000 HD
ENDBRANCH  29  30
ENDBRANCH  20  29
ENDBRANCH   1  22
TORSDOF 6
ENDMDL
MODEL 9
REMARK VINA RESULT:      -7.2      1.358      2.258
REMARK  Name = 
REMARK  6 active torsions:
REMARK  status: ('A' for Active; 'I' for Inactive)
REMARK    1  A    between atoms: O5*_1  and  C5*_2
REMARK    2  A    between atoms: C5*_2  and  C4*_3
REMARK    3  A    between atoms: C1*_5  and  N_6
REMARK    4  A    between atoms: N_11  and  C_12
REMARK    5  A    between atoms: C2*_24  and  O2*_25
REMARK    6  A    between atoms: C3*_26  and  O3*_27
REMARK                            x       y       z     vdW  Elec       q    Type
REMARK                         _______ _______ _______ _____ _____    ______ ____
ROOT
ATOM      1  N   UNL     1       1.178  10.812  18.985  0.00  0.00    +0.000 N 
ATOM      2  C   UNL     1       1.804  10.455  17.822  0.00  0.00    +0.000 A 
ATOM      3  N   UNL     1       2.200   9.193  17.841  0.00  0.00    +0.000 NA
ATOM      4  C   UNL     1       1.823   8.716  19.083  0.00  0.00    +0.000 A 
ATOM      5  C   UNL     1       1.943   7.447  19.709  0.00  0.00    +0.000 A 
ATOM      6  N   UNL     1       2.554   6.344  19.105  0.00  0.00    +0.000 N 
ATOM      7  N   UNL     1       1.450   7.340  20.975  0.00  0.00    +0.000 NA
ATOM      8  C   UNL     1       0.871   8.414  21.556  0.00  0.00    +0.000 A 
ATOM      9  N   UNL     1       0.676   9.632  21.044  0.00  0.00    +0.000 NA
ATOM     10  C   UNL     1       1.187   9.720  19.807  0.00  0.00    +0.000 A 
ATOM     11  H   UNL     1       2.703   6.504  18.111  0.00  0.00    +0.000 HD
ENDROOT
BRANCH   6  12
ATOM     12  C   UNL     1       2.051   5.005  19.482  0.00  0.00    +0.000 C 
ATOM     13  C   UNL     1       1.525   4.284  18.232  0.00  0.00    +0.000 C 
ATOM     14  C   UNL     1       0.917   2.900  18.461  0.00  0.00    +0.000 C 
ATOM     15  C   UNL     1       1.855   1.758  18.845  0.00  0.00    +0.000 C 
ATOM     16  C   UNL     1       3.242   1.803  18.209  0.00  0.00    +0.000 C 
ATOM     17  C   UNL     1       4.338   2.253  19.171  0.00  0.00    +0.000 C 
ATOM     18  C   UNL     1       4.356   3.723  19.606  0.00  0.00    +0.000 C 
ATOM     19  C   UNL     1       3.116   4.269  20.320  0.00  0.00    +0.000 C 
ENDBRANCH   6  12
BRANCH   1  22
ATOM     20  C4* UNL     1       1.102  14.330  18.787  0.00  0.00    +0.000 C 
ATOM     21  O4* UNL     1       0.763  13.037  18.228  0.00  0.00    +0.000 OA
ATOM     22  C1* UNL     1       0.572  12.093  19.315  0.00  0.00    +0.000 C 
ATOM     23  C2* UNL     1       1.110  12.749  20.589  0.00  0.00    +0.000 C 
ATOM     24  C3* UNL     1       0.883  14.223  20.292  0.00  0.00    +0.000 C 
BRANCH  23  25
ATOM     25  O2* UNL     1       0.412  12.364  21.775  0.00  0.00    +0.000 OA
ATOM     26  H2* UNL     1      -0.357  11.836  21.483  0.00  0.00    +0.000 HD
ENDBRANCH  23  25
BRANCH  24  27
ATOM     27  O3* UNL     1      -0.483  14.550  20.633  0.00  0.00    +0.000 OA
ATOM     28  H3* UNL     1      -1.064  14.309  19.888  0.00  0.00    +0.000 HD
ENDBRANCH  24  27
BRANCH  20  29
ATOM     29  C5* UNL     1       2.532  14.710  18.393  0.00  0.00    +0.000 C 
BRANCH  29  30
ATOM     30  O5* UNL     1       3.099  13.744  17.516  0.00  0.00    +0.000 OA
ATOM     31  H5* UNL     1       3.173  14.166  16.640  0.00  0.00    +0.000 HD
ENDBRANCH  29  30
ENDBRANCH  20  29
ENDBRANCH   1  22
TORSDOF 6
ENDMDL
