MODEL 1
REMARK VINA RESULT:      -6.8      0.000      0.000
REMARK  Name = 
REMARK  9 active torsions:
REMARK  status: ('A' for Active; 'I' for Inactive)
REMARK    1  A    between atoms: C_1  and  C_2
REMARK    2  A    between atoms: C_2  and  C_3
REMARK    3  A    between atoms: C_2  and  C_4
REMARK    4  A    between atoms: C_2  and  N_5
REMARK    5  A    between atoms: N_8  and  C_9
REMARK    6  A    between atoms: N_8  and  C_24
REMARK    7  A    between atoms: C_9  and  C_10
REMARK    8  A    between atoms: N_14  and  C_15
REMARK    9  A    between atoms: C_15  and  C_16
REMARK                            x       y       z     vdW  Elec       q    Type
REMARK                         _______ _______ _______ _____ _____    ______ ____
ROOT
ATOM      1  C   UNL     1       2.405   4.792  19.912  0.00  0.00    +0.000 A 
ATOM      2  N   UNL     1       1.110   4.501  19.937  0.00  0.00    +0.000 NA
ATOM      3  C   UNL     1       0.995   3.192  19.555  0.00  0.00    +0.000 A 
ATOM      4  C   UNL     1       2.228   2.651  19.313  0.00  0.00    +0.000 A 
ATOM      5  N   UNL     1       3.118   3.684  19.491  0.00  0.00    +0.000 N 
ENDROOT
BRANCH   1   6
ATOM      6  C   UNL     1       2.984   6.091  20.404  0.00  0.00    +0.000 C 
BRANCH   6  10
ATOM      7  N   UNL     1       0.960   9.110  19.856  0.00  0.00    +0.000 N 
ATOM      8  C   UNL     1       1.584   8.083  20.530  0.00  0.00    +0.000 C 
ATOM      9  O   UNL     1       1.401   7.883  21.729  0.00  0.00    +0.000 OA
ATOM     10  N   UNL     1       2.420   7.281  19.750  0.00  0.00    +0.000 N 
ATOM     11  H   UNL     1       1.466   9.426  19.040  0.00  0.00    +0.000 HD
BRANCH   7  13
ATOM     12  C   UNL     1       0.906  11.344  20.923  0.00  0.00    +0.000 C 
ATOM     13  C   UNL     1       0.093  10.105  20.518  0.00  0.00    +0.000 C 
ATOM     14  C   UNL     1      -0.612   9.513  21.755  0.00  0.00    +0.000 C 
ATOM     15  C   UNL     1      -1.000  10.552  19.530  0.00  0.00    +0.000 C 
ENDBRANCH   7  13
BRANCH  10  16
ATOM     16  C   UNL     1       2.325   7.267  18.301  0.00  0.00    +0.000 C 
ATOM     17  C   UNL     1       2.584   8.518  17.499  0.00  0.00    +0.000 C 
ATOM     18  C   UNL     1       3.507   7.345  17.370  0.00  0.00    +0.000 C 
ENDBRANCH  10  16
ENDBRANCH   6  10
ENDBRANCH   1   6
BRANCH   5  19
ATOM     19  C   UNL     1       4.553   3.537  19.288  0.00  0.00    +0.000 C 
BRANCH  19  20
ATOM     20  C   UNL     1       5.095   4.166  18.023  0.00  0.00    +0.000 A 
ATOM     21  C   UNL     1       4.569   3.927  16.744  0.00  0.00    +0.000 A 
ATOM     22  F   UNL     1       3.486   3.162  16.567  0.00  0.00    +0.000 F 
ATOM     23  C   UNL     1       5.143   4.458  15.589  0.00  0.00    +0.000 A 
ATOM     24  C   UNL     1       6.258   5.277  15.678  0.00  0.00    +0.000 A 
ATOM     25  C   UNL     1       6.782   5.570  16.934  0.00  0.00    +0.000 A 
ATOM     26  C   UNL     1       6.207   5.023  18.092  0.00  0.00    +0.000 A 
ATOM     27 CL   UNL     1       6.930   5.462  19.603  0.00  0.00    +0.000 Cl
ENDBRANCH  19  20
ENDBRANCH   5  19
TORSDOF 6
ENDMDL
MODEL 2
REMARK VINA RESULT:      -6.7      3.004      7.393
REMARK  Name = 
REMARK  9 active torsions:
REMARK  status: ('A' for Active; 'I' for Inactive)
REMARK    1  A    between atoms: C_1  and  C_2
REMARK    2  A    between atoms: C_2  and  C_3
REMARK    3  A    between atoms: C_2  and  C_4
REMARK    4  A    between atoms: C_2  and  N_5
REMARK    5  A    between atoms: N_8  and  C_9
REMARK    6  A    between atoms: N_8  and  C_24
REMARK    7  A    between atoms: C_9  and  C_10
REMARK    8  A    between atoms: N_14  and  C_15
REMARK    9  A    between atoms: C_15  and  C_16
REMARK                            x       y       z     vdW  Elec       q    Type
REMARK                         _______ _______ _______ _____ _____    ______ ____
ROOT
ATOM      1  C   UNL     1       1.940   7.470  19.182  0.00  0.00    +0.000 A 
ATOM      2  N   UNL     1       1.948   6.769  20.308  0.00  0.00    +0.000 NA
ATOM      3  C   UNL     1       1.498   7.605  21.293  0.00  0.00    +0.000 A 
ATOM      4  C   UNL     1       1.182   8.832  20.776  0.00  0.00    +0.000 A 
ATOM      5  N   UNL     1       1.513   8.759  19.444  0.00  0.00    +0.000 N 
ENDROOT
BRANCH   1   6
ATOM      6  C   UNL     1       2.226   6.884  17.824  0.00  0.00    +0.000 C 
BRANCH   6  10
ATOM      7  N   UNL     1       5.477   5.235  17.361  0.00  0.00    +0.000 N 
ATOM      8  C   UNL     1       4.555   6.251  17.482  0.00  0.00    +0.000 C 
ATOM      9  O   UNL     1       4.849   7.427  17.282  0.00  0.00    +0.000 OA
ATOM     10  N   UNL     1       3.264   5.844  17.831  0.00  0.00    +0.000 N 
ATOM     11  H   UNL     1       5.260   4.421  17.919  0.00  0.00    +0.000 HD
BRANCH   7  13
ATOM     12  C   UNL     1       7.782   4.444  17.802  0.00  0.00    +0.000 C 
ATOM     13  C   UNL     1       6.906   5.469  17.067  0.00  0.00    +0.000 C 
ATOM     14  C   UNL     1       7.339   6.898  17.447  0.00  0.00    +0.000 C 
ATOM     15  C   UNL     1       7.138   5.299  15.554  0.00  0.00    +0.000 C 
ENDBRANCH   7  13
BRANCH  10  16
ATOM     16  C   UNL     1       2.835   4.466  17.676  0.00  0.00    +0.000 C 
ATOM     17  C   UNL     1       2.634   3.581  18.880  0.00  0.00    +0.000 C 
ATOM     18  C   UNL     1       1.460   3.959  18.030  0.00  0.00    +0.000 C 
ENDBRANCH  10  16
ENDBRANCH   6  10
ENDBRANCH   1   6
BRANCH   5  19
ATOM     19  C   UNL     1       1.367   9.884  18.530  0.00  0.00    +0.000 C 
BRANCH  19  20
ATOM     20  C   UNL     1       0.069  10.652  18.649  0.00  0.00    +0.000 A 
ATOM     21  C   UNL     1      -1.116  10.290  17.990  0.00  0.00    +0.000 A 
ATOM     22  F   UNL     1      -1.191   9.178  17.249  0.00  0.00    +0.000 F 
ATOM     23  C   UNL     1      -2.274  11.064  18.056  0.00  0.00    +0.000 A 
ATOM     24  C   UNL     1      -2.293  12.225  18.814  0.00  0.00    +0.000 A 
ATOM     25  C   UNL     1      -1.149  12.593  19.515  0.00  0.00    +0.000 A 
ATOM     26  C   UNL     1       0.016  11.815  19.436  0.00  0.00    +0.000 A 
ATOM     27 CL   UNL     1       1.379  12.356  20.357  0.00  0.00    +0.000 Cl
ENDBRANCH  19  20
ENDBRANCH   5  19
TORSDOF 6
ENDMDL
MODEL 3
REMARK VINA RESULT:      -6.7      2.473      4.306
REMARK  Name = 
REMARK  9 active torsions:
REMARK  status: ('A' for Active; 'I' for Inactive)
REMARK    1  A    between atoms: C_1  and  C_2
REMARK    2  A    between atoms: C_2  and  C_3
REMARK    3  A    between atoms: C_2  and  C_4
REMARK    4  A    between atoms: C_2  and  N_5
REMARK    5  A    between atoms: N_8  and  C_9
REMARK    6  A    between atoms: N_8  and  C_24
REMARK    7  A    between atoms: C_9  and  C_10
REMARK    8  A    between atoms: N_14  and  C_15
REMARK    9  A    between atoms: C_15  and  C_16
REMARK                            x       y       z     vdW  Elec       q    Type
REMARK                         _______ _______ _______ _____ _____    ______ ____
ROOT
ATOM      1  C   UNL     1       1.560   8.735  19.296  0.00  0.00    +0.000 A 
ATOM      2  N   UNL     1       1.079   8.729  20.532  0.00  0.00    +0.000 NA
ATOM      3  C   UNL     1       1.502   7.564  21.111  0.00  0.00    +0.000 A 
ATOM      4  C   UNL     1       2.275   6.846  20.240  0.00  0.00    +0.000 A 
ATOM      5  N   UNL     1       2.267   7.568  19.070  0.00  0.00    +0.000 N 
ENDROOT
BRANCH   1   6
ATOM      6  C   UNL     1       1.451   9.907  18.357  0.00  0.00    +0.000 C 
BRANCH   6  10
ATOM      7  N   UNL     1      -1.959  11.217  17.948  0.00  0.00    +0.000 N 
ATOM      8  C   UNL     1      -0.891  10.354  17.844  0.00  0.00    +0.000 C 
ATOM      9  O   UNL     1      -0.936   9.339  17.152  0.00  0.00    +0.000 OA
ATOM     10  N   UNL     1       0.248  10.726  18.564  0.00  0.00    +0.000 N 
ATOM     11  H   UNL     1      -1.968  11.749  18.808  0.00  0.00    +0.000 HD
BRANCH   7  13
ATOM     12  C   UNL     1      -3.164  11.080  15.789  0.00  0.00    +0.000 C 
ATOM     13  C   UNL     1      -3.270  10.963  17.317  0.00  0.00    +0.000 C 
ATOM     14  C   UNL     1      -4.351  11.927  17.843  0.00  0.00    +0.000 C 
ATOM     15  C   UNL     1      -3.719   9.531  17.657  0.00  0.00    +0.000 C 
ENDBRANCH   7  13
BRANCH  10  16
ATOM     16  C   UNL     1       0.435  12.085  19.039  0.00  0.00    +0.000 C 
ATOM     17  C   UNL     1       0.372  12.403  20.511  0.00  0.00    +0.000 C 
ATOM     18  C   UNL     1       1.662  12.570  19.767  0.00  0.00    +0.000 C 
ENDBRANCH  10  16
ENDBRANCH   6  10
ENDBRANCH   1   6
BRANCH   5  19
ATOM     19  C   UNL     1       2.947   7.124  17.861  0.00  0.00    +0.000 C 
BRANCH  19  20
ATOM     20  C   UNL     1       3.241   5.642  17.791  0.00  0.00    +0.000 A 
ATOM     21  C   UNL     1       2.256   4.658  17.611  0.00  0.00    +0.000 A 
ATOM     22  F   UNL     1       0.972   4.983  17.419  0.00  0.00    +0.000 F 
ATOM     23  C   UNL     1       2.549   3.295  17.632  0.00  0.00    +0.000 A 
ATOM     24  C   UNL     1       3.855   2.866  17.808  0.00  0.00    +0.000 A 
ATOM     25  C   UNL     1       4.864   3.814  17.948  0.00  0.00    +0.000 A 
ATOM     26  C   UNL     1       4.562   5.184  17.937  0.00  0.00    +0.000 A 
ATOM     27 CL   UNL     1       5.893   6.278  18.106  0.00  0.00    +0.000 Cl
ENDBRANCH  19  20
ENDBRANCH   5  19
TORSDOF 6
ENDMDL
MODEL 4
REMARK VINA RESULT:      -6.6      3.122      7.453
REMARK  Name = 
REMARK  9 active torsions:
REMARK  status: ('A' for Active; 'I' for Inactive)
REMARK    1  A    between atoms: C_1  and  C_2
REMARK    2  A    between atoms: C_2  and  C_3
REMARK    3  A    between atoms: C_2  and  C_4
REMARK    4  A    between atoms: C_2  and  N_5
REMARK    5  A    between atoms: N_8  and  C_9
REMARK    6  A    between atoms: N_8  and  C_24
REMARK    7  A    between atoms: C_9  and  C_10
REMARK    8  A    between atoms: N_14  and  C_15
REMARK    9  A    between atoms: C_15  and  C_16
REMARK                            x       y       z     vdW  Elec       q    Type
REMARK                         _______ _______ _______ _____ _____    ______ ____
ROOT
ATOM      1  C   UNL     1       1.931   7.791  19.232  0.00  0.00    +0.000 A 
ATOM      2  N   UNL     1       1.961   7.105  20.368  0.00  0.00    +0.000 NA
ATOM      3  C   UNL     1       1.340   7.880  21.309  0.00  0.00    +0.000 A 
ATOM      4  C   UNL     1       0.895   9.048  20.755  0.00  0.00    +0.000 A 
ATOM      5  N   UNL     1       1.318   9.012  19.447  0.00  0.00    +0.000 N 
ENDROOT
BRANCH   1   6
ATOM      6  C   UNL     1       2.379   7.239  17.905  0.00  0.00    +0.000 C 
BRANCH   6  10
ATOM      7  N   UNL     1       5.590   5.452  17.887  0.00  0.00    +0.000 N 
ATOM      8  C   UNL     1       4.704   6.505  17.922  0.00  0.00    +0.000 C 
ATOM      9  O   UNL     1       5.077   7.675  17.861  0.00  0.00    +0.000 OA
ATOM     10  N   UNL     1       3.357   6.147  18.013  0.00  0.00    +0.000 N 
ATOM     11  H   UNL     1       5.246   4.616  18.338  0.00  0.00    +0.000 HD
BRANCH   7  13
ATOM     12  C   UNL     1       7.433   6.899  17.086  0.00  0.00    +0.000 C 
ATOM     13  C   UNL     1       7.057   5.627  17.860  0.00  0.00    +0.000 C 
ATOM     14  C   UNL     1       7.765   4.407  17.239  0.00  0.00    +0.000 C 
ATOM     15  C   UNL     1       7.569   5.777  19.304  0.00  0.00    +0.000 C 
ENDBRANCH   7  13
BRANCH  10  16
ATOM     16  C   UNL     1       2.904   4.806  17.687  0.00  0.00    +0.000 C 
ATOM     17  C   UNL     1       2.401   3.878  18.764  0.00  0.00    +0.000 C 
ATOM     18  C   UNL     1       1.462   4.368  17.705  0.00  0.00    +0.000 C 
ENDBRANCH  10  16
ENDBRANCH   6  10
ENDBRANCH   1   6
BRANCH   5  19
ATOM     19  C   UNL     1       1.081  10.100  18.507  0.00  0.00    +0.000 C 
BRANCH  19  20
ATOM     20  C   UNL     1      -0.297  10.721  18.571  0.00  0.00    +0.000 A 
ATOM     21  C   UNL     1      -1.397  10.259  17.833  0.00  0.00    +0.000 A 
ATOM     22  F   UNL     1      -1.311   9.170  17.059  0.00  0.00    +0.000 F 
ATOM     23  C   UNL     1      -2.634  10.903  17.851  0.00  0.00    +0.000 A 
ATOM     24  C   UNL     1      -2.820  12.029  18.638  0.00  0.00    +0.000 A 
ATOM     25  C   UNL     1      -1.764  12.493  19.415  0.00  0.00    +0.000 A 
ATOM     26  C   UNL     1      -0.518  11.846  19.384  0.00  0.00    +0.000 A 
ATOM     27 CL   UNL     1       0.724  12.497  20.399  0.00  0.00    +0.000 Cl
ENDBRANCH  19  20
ENDBRANCH   5  19
TORSDOF 6
ENDMDL
MODEL 5
REMARK VINA RESULT:      -6.5      3.364      7.543
REMARK  Name = 
REMARK  9 active torsions:
REMARK  status: ('A' for Active; 'I' for Inactive)
REMARK    1  A    between atoms: C_1  and  C_2
REMARK    2  A    between atoms: C_2  and  C_3
REMARK    3  A    between atoms: C_2  and  C_4
REMARK    4  A    between atoms: C_2  and  N_5
REMARK    5  A    between atoms: N_8  and  C_9
REMARK    6  A    between atoms: N_8  and  C_24
REMARK    7  A    between atoms: C_9  and  C_10
REMARK    8  A    between atoms: N_14  and  C_15
REMARK    9  A    between atoms: C_15  and  C_16
REMARK                            x       y       z     vdW  Elec       q    Type
REMARK                         _______ _______ _______ _____ _____    ______ ____
ROOT
ATOM      1  C   UNL     1       1.742   7.789  19.545  0.00  0.00    +0.000 A 
ATOM      2  N   UNL     1       1.665   7.410  20.814  0.00  0.00    +0.000 NA
ATOM      3  C   UNL     1       1.305   8.516  21.533  0.00  0.00    +0.000 A 
ATOM      4  C   UNL     1       1.131   9.592  20.706  0.00  0.00    +0.000 A 
ATOM      5  N   UNL     1       1.459   9.139  19.450  0.00  0.00    +0.000 N 
ENDROOT
BRANCH   1   6
ATOM      6  C   UNL     1       1.968   6.842  18.396  0.00  0.00    +0.000 C 
BRANCH   6  10
ATOM      7  N   UNL     1       5.332   5.435  17.943  0.00  0.00    +0.000 N 
ATOM      8  C   UNL     1       4.297   6.341  17.880  0.00  0.00    +0.000 C 
ATOM      9  O   UNL     1       4.387   7.392  17.250  0.00  0.00    +0.000 OA
ATOM     10  N   UNL     1       3.138   5.969  18.566  0.00  0.00    +0.000 N 
ATOM     11  H   UNL     1       5.313   4.853  18.770  0.00  0.00    +0.000 HD
BRANCH   7  13
ATOM     12  C   UNL     1       7.646   4.573  17.748  0.00  0.00    +0.000 C 
ATOM     13  C   UNL     1       6.659   5.677  17.341  0.00  0.00    +0.000 C 
ATOM     14  C   UNL     1       7.222   7.056  17.737  0.00  0.00    +0.000 C 
ATOM     15  C   UNL     1       6.523   5.655  15.807  0.00  0.00    +0.000 C 
ENDBRANCH   7  13
BRANCH  10  16
ATOM     16  C   UNL     1       2.897   4.592  18.957  0.00  0.00    +0.000 C 
ATOM     17  C   UNL     1       2.647   4.232  20.400  0.00  0.00    +0.000 C 
ATOM     18  C   UNL     1       1.557   4.053  19.389  0.00  0.00    +0.000 C 
ENDBRANCH  10  16
ENDBRANCH   6  10
ENDBRANCH   1   6
BRANCH   5  19
ATOM     19  C   UNL     1       1.445   9.995  18.271  0.00  0.00    +0.000 C 
BRANCH  19  20
ATOM     20  C   UNL     1       0.851  11.371  18.477  0.00  0.00    +0.000 A 
ATOM     21  C   UNL     1       1.616  12.543  18.585  0.00  0.00    +0.000 A 
ATOM     22  F   UNL     1       2.946  12.524  18.442  0.00  0.00    +0.000 F 
ATOM     23  C   UNL     1       1.044  13.786  18.856  0.00  0.00    +0.000 A 
ATOM     24  C   UNL     1      -0.329  13.903  19.003  0.00  0.00    +0.000 A 
ATOM     25  C   UNL     1      -1.123  12.770  18.861  0.00  0.00    +0.000 A 
ATOM     26  C   UNL     1      -0.541  11.520  18.599  0.00  0.00    +0.000 A 
ATOM     27 CL   UNL     1      -1.620  10.177  18.428  0.00  0.00    +0.000 Cl
ENDBRANCH  19  20
ENDBRANCH   5  19
TORSDOF 6
ENDMDL
MODEL 6
REMARK VINA RESULT:      -6.5      3.406      7.735
REMARK  Name = 
REMARK  9 active torsions:
REMARK  status: ('A' for Active; 'I' for Inactive)
REMARK    1  A    between atoms: C_1  and  C_2
REMARK    2  A    between atoms: C_2  and  C_3
REMARK    3  A    between atoms: C_2  and  C_4
REMARK    4  A    between atoms: C_2  and  N_5
REMARK    5  A    between atoms: N_8  and  C_9
REMARK    6  A    between atoms: N_8  and  C_24
REMARK    7  A    between atoms: C_9  and  C_10
REMARK    8  A    between atoms: N_14  and  C_15
REMARK    9  A    between atoms: C_15  and  C_16
REMARK                            x       y       z     vdW  Elec       q    Type
REMARK                         _______ _______ _______ _____ _____    ______ ____
ROOT
ATOM      1  C   UNL     1       1.927   7.742  19.057  0.00  0.00    +0.000 A 
ATOM      2  N   UNL     1       2.078   7.156  20.238  0.00  0.00    +0.000 NA
ATOM      3  C   UNL     1       1.544   8.005  21.168  0.00  0.00    +0.000 A 
ATOM      4  C   UNL     1       1.031   9.120  20.564  0.00  0.00    +0.000 A 
ATOM      5  N   UNL     1       1.322   8.974  19.228  0.00  0.00    +0.000 N 
ENDROOT
BRANCH   1   6
ATOM      6  C   UNL     1       2.248   7.081  17.743  0.00  0.00    +0.000 C 
BRANCH   6  10
ATOM      7  N   UNL     1       5.457   5.317  17.422  0.00  0.00    +0.000 N 
ATOM      8  C   UNL     1       4.560   6.362  17.453  0.00  0.00    +0.000 C 
ATOM      9  O   UNL     1       4.881   7.507  17.144  0.00  0.00    +0.000 OA
ATOM     10  N   UNL     1       3.262   6.021  17.842  0.00  0.00    +0.000 N 
ATOM     11  H   UNL     1       5.223   4.563  18.054  0.00  0.00    +0.000 HD
BRANCH   7  13
ATOM     12  C   UNL     1       7.129   5.311  15.597  0.00  0.00    +0.000 C 
ATOM     13  C   UNL     1       6.889   5.487  17.103  0.00  0.00    +0.000 C 
ATOM     14  C   UNL     1       7.770   4.502  17.895  0.00  0.00    +0.000 C 
ATOM     15  C   UNL     1       7.321   6.913  17.492  0.00  0.00    +0.000 C 
ENDBRANCH   7  13
BRANCH  10  16
ATOM     16  C   UNL     1       2.798   4.645  17.816  0.00  0.00    +0.000 C 
ATOM     17  C   UNL     1       2.544   3.892  19.098  0.00  0.00    +0.000 C 
ATOM     18  C   UNL     1       1.402   4.211  18.182  0.00  0.00    +0.000 C 
ENDBRANCH  10  16
ENDBRANCH   6  10
ENDBRANCH   1   6
BRANCH   5  19
ATOM     19  C   UNL     1       0.979   9.976  18.228  0.00  0.00    +0.000 C 
BRANCH  19  20
ATOM     20  C   UNL     1       0.199  11.165  18.744  0.00  0.00    +0.000 A 
ATOM     21  C   UNL     1       0.791  12.289  19.339  0.00  0.00    +0.000 A 
ATOM     22  F   UNL     1       2.121  12.413  19.428  0.00  0.00    +0.000 F 
ATOM     23  C   UNL     1       0.040  13.333  19.879  0.00  0.00    +0.000 A 
ATOM     24  C   UNL     1      -1.345  13.298  19.817  0.00  0.00    +0.000 A 
ATOM     25  C   UNL     1      -1.966  12.219  19.198  0.00  0.00    +0.000 A 
ATOM     26  C   UNL     1      -1.205  11.166  18.666  0.00  0.00    +0.000 A 
ATOM     27 CL   UNL     1      -2.077   9.878  17.906  0.00  0.00    +0.000 Cl
ENDBRANCH  19  20
ENDBRANCH   5  19
TORSDOF 6
ENDMDL
MODEL 7
REMARK VINA RESULT:      -6.5      3.393      7.614
REMARK  Name = 
REMARK  9 active torsions:
REMARK  status: ('A' for Active; 'I' for Inactive)
REMARK    1  A    between atoms: C_1  and  C_2
REMARK    2  A    between atoms: C_2  and  C_3
REMARK    3  A    between atoms: C_2  and  C_4
REMARK    4  A    between atoms: C_2  and  N_5
REMARK    5  A    between atoms: N_8  and  C_9
REMARK    6  A    between atoms: N_8  and  C_24
REMARK    7  A    between atoms: C_9  and  C_10
REMARK    8  A    between atoms: N_14  and  C_15
REMARK    9  A    between atoms: C_15  and  C_16
REMARK                            x       y       z     vdW  Elec       q    Type
REMARK                         _______ _______ _______ _____ _____    ______ ____
ROOT
ATOM      1  C   UNL     1       1.805   7.719  19.374  0.00  0.00    +0.000 A 
ATOM      2  N   UNL     1       1.779   7.274  20.624  0.00  0.00    +0.000 NA
ATOM      3  C   UNL     1       1.288   8.293  21.393  0.00  0.00    +0.000 A 
ATOM      4  C   UNL     1       0.981   9.377  20.617  0.00  0.00    +0.000 A 
ATOM      5  N   UNL     1       1.358   9.028  19.342  0.00  0.00    +0.000 N 
ENDROOT
BRANCH   1   6
ATOM      6  C   UNL     1       2.141   6.862  18.183  0.00  0.00    +0.000 C 
BRANCH   6  10
ATOM      7  N   UNL     1       5.483   5.375  17.825  0.00  0.00    +0.000 N 
ATOM      8  C   UNL     1       4.468   6.299  17.719  0.00  0.00    +0.000 C 
ATOM      9  O   UNL     1       4.590   7.330  17.061  0.00  0.00    +0.000 OA
ATOM     10  N   UNL     1       3.291   5.971  18.396  0.00  0.00    +0.000 N 
ATOM     11  H   UNL     1       5.439   4.818  18.667  0.00  0.00    +0.000 HD
BRANCH   7  13
ATOM     12  C   UNL     1       7.372   6.961  17.601  0.00  0.00    +0.000 C 
ATOM     13  C   UNL     1       6.824   5.573  17.238  0.00  0.00    +0.000 C 
ATOM     14  C   UNL     1       6.806   5.399  15.706  0.00  0.00    +0.000 C 
ATOM     15  C   UNL     1       7.783   4.515  17.814  0.00  0.00    +0.000 C 
ENDBRANCH   7  13
BRANCH  10  16
ATOM     16  C   UNL     1       3.015   4.611  18.823  0.00  0.00    +0.000 C 
ATOM     17  C   UNL     1       1.635   4.020  18.675  0.00  0.00    +0.000 C 
ATOM     18  C   UNL     1       2.776   3.457  17.884  0.00  0.00    +0.000 C 
ENDBRANCH  10  16
ENDBRANCH   6  10
ENDBRANCH   1   6
BRANCH   5  19
ATOM     19  C   UNL     1       1.236   9.929  18.204  0.00  0.00    +0.000 C 
BRANCH  19  20
ATOM     20  C   UNL     1       0.628  11.280  18.512  0.00  0.00    +0.000 A 
ATOM     21  C   UNL     1       1.381  12.434  18.776  0.00  0.00    +0.000 A 
ATOM     22  F   UNL     1       2.717  12.426  18.705  0.00  0.00    +0.000 F 
ATOM     23  C   UNL     1       0.792  13.645  19.136  0.00  0.00    +0.000 A 
ATOM     24  C   UNL     1      -0.588  13.751  19.219  0.00  0.00    +0.000 A 
ATOM     25  C   UNL     1      -1.370  12.638  18.922  0.00  0.00    +0.000 A 
ATOM     26  C   UNL     1      -0.770  11.419  18.571  0.00  0.00    +0.000 A 
ATOM     27 CL   UNL     1      -1.834  10.102  18.210  0.00  0.00    +0.000 Cl
ENDBRANCH  19  20
ENDBRANCH   5  19
TORSDOF 6
ENDMDL
MODEL 8
REMARK VINA RESULT:      -6.5      2.817      4.626
REMARK  Name = 
REMARK  9 active torsions:
REMARK  status: ('A' for Active; 'I' for Inactive)
REMARK    1  A    between atoms: C_1  and  C_2
REMARK    2  A    between atoms: C_2  and  C_3
REMARK    3  A    between atoms: C_2  and  C_4
REMARK    4  A    between atoms: C_2  and  N_5
REMARK    5  A    between atoms: N_8  and  C_9
REMARK    6  A    between atoms: N_8  and  C_24
REMARK    7  A    between atoms: C_9  and  C_10
REMARK    8  A    between atoms: N_14  and  C_15
REMARK    9  A    between atoms: C_15  and  C_16
REMARK                            x       y       z     vdW  Elec       q    Type
REMARK                         _______ _______ _______ _____ _____    ______ ____
ROOT
ATOM      1  C   UNL     1       1.464   8.960  19.283  0.00  0.00    +0.000 A 
ATOM      2  N   UNL     1       1.118   8.869  20.560  0.00  0.00    +0.000 NA
ATOM      3  C   UNL     1       1.605   7.674  21.014  0.00  0.00    +0.000 A 
ATOM      4  C   UNL     1       2.282   7.022  20.021  0.00  0.00    +0.000 A 
ATOM      5  N   UNL     1       2.147   7.818  18.908  0.00  0.00    +0.000 N 
ENDROOT
BRANCH   1   6
ATOM      6  C   UNL     1       1.251  10.189  18.439  0.00  0.00    +0.000 C 
BRANCH   6  10
ATOM      7  N   UNL     1      -2.249  11.269  18.139  0.00  0.00    +0.000 N 
ATOM      8  C   UNL     1      -1.118  10.504  17.959  0.00  0.00    +0.000 C 
ATOM      9  O   UNL     1      -1.088   9.558  17.174  0.00  0.00    +0.000 OA
ATOM     10  N   UNL     1      -0.010  10.891  18.716  0.00  0.00    +0.000 N 
ATOM     11  H   UNL     1      -2.297  11.715  19.045  0.00  0.00    +0.000 HD
BRANCH   7  13
ATOM     12  C   UNL     1      -3.423  11.170  15.962  0.00  0.00    +0.000 C 
ATOM     13  C   UNL     1      -3.538  10.977  17.481  0.00  0.00    +0.000 C 
ATOM     14  C   UNL     1      -4.674  11.859  18.037  0.00  0.00    +0.000 C 
ATOM     15  C   UNL     1      -3.916   9.509  17.750  0.00  0.00    +0.000 C 
ENDBRANCH   7  13
BRANCH  10  16
ATOM     16  C   UNL     1       0.074  12.209  19.319  0.00  0.00    +0.000 C 
ATOM     17  C   UNL     1      -0.064  12.387  20.810  0.00  0.00    +0.000 C 
ATOM     18  C   UNL     1       1.240  12.695  20.141  0.00  0.00    +0.000 C 
ENDBRANCH  10  16
ENDBRANCH   6  10
ENDBRANCH   1   6
BRANCH   5  19
ATOM     19  C   UNL     1       2.696   7.459  17.607  0.00  0.00    +0.000 C 
BRANCH  19  20
ATOM     20  C   UNL     1       3.662   6.295  17.610  0.00  0.00    +0.000 A 
ATOM     21  C   UNL     1       5.058   6.439  17.600  0.00  0.00    +0.000 A 
ATOM     22  F   UNL     1       5.636   7.644  17.656  0.00  0.00    +0.000 F 
ATOM     23  C   UNL     1       5.921   5.346  17.521  0.00  0.00    +0.000 A 
ATOM     24  C   UNL     1       5.411   4.058  17.476  0.00  0.00    +0.000 A 
ATOM     25  C   UNL     1       4.033   3.875  17.527  0.00  0.00    +0.000 A 
ATOM     26  C   UNL     1       3.169   4.979  17.595  0.00  0.00    +0.000 A 
ATOM     27 CL   UNL     1       1.473   4.639  17.665  0.00  0.00    +0.000 Cl
ENDBRANCH  19  20
ENDBRANCH   5  19
TORSDOF 6
ENDMDL
MODEL 9
REMARK VINA RESULT:      -6.4      2.020      2.783
REMARK  Name = 
REMARK  9 active torsions:
REMARK  status: ('A' for Active; 'I' for Inactive)
REMARK    1  A    between atoms: C_1  and  C_2
REMARK    2  A    between atoms: C_2  and  C_3
REMARK    3  A    between atoms: C_2  and  C_4
REMARK    4  A    between atoms: C_2  and  N_5
REMARK    5  A    between atoms: N_8  and  C_9
REMARK    6  A    between atoms: N_8  and  C_24
REMARK    7  A    between atoms: C_9  and  C_10
REMARK    8  A    between atoms: N_14  and  C_15
REMARK    9  A    between atoms: C_15  and  C_16
REMARK                            x       y       z     vdW  Elec       q    Type
REMARK                         _______ _______ _______ _____ _____    ______ ____
ROOT
ATOM      1  C   UNL     1       2.577   4.704  17.681  0.00  0.00    +0.000 A 
ATOM      2  N   UNL     1       1.399   4.290  18.131  0.00  0.00    +0.000 NA
ATOM      3  C   UNL     1       1.407   2.924  18.049  0.00  0.00    +0.000 A 
ATOM      4  C   UNL     1       2.607   2.477  17.567  0.00  0.00    +0.000 A 
ATOM      5  N   UNL     1       3.329   3.613  17.286  0.00  0.00    +0.000 N 
ENDROOT
BRANCH   1   6
ATOM      6  C   UNL     1       3.042   6.135  17.735  0.00  0.00    +0.000 C 
BRANCH   6  10
ATOM      7  N   UNL     1       1.433   9.016  19.353  0.00  0.00    +0.000 N 
ATOM      8  C   UNL     1       1.951   8.227  18.350  0.00  0.00    +0.000 C 
ATOM      9  O   UNL     1       2.067   8.631  17.195  0.00  0.00    +0.000 OA
ATOM     10  N   UNL     1       2.350   6.948  18.746  0.00  0.00    +0.000 N 
ATOM     11  H   UNL     1       1.016   8.491  20.109  0.00  0.00    +0.000 HD
BRANCH   7  13
ATOM     12  C   UNL     1       0.630  11.083  20.455  0.00  0.00    +0.000 C 
ATOM     13  C   UNL     1       0.895  10.372  19.120  0.00  0.00    +0.000 C 
ATOM     14  C   UNL     1      -0.397  10.336  18.279  0.00  0.00    +0.000 C 
ATOM     15  C   UNL     1       1.935  11.195  18.338  0.00  0.00    +0.000 C 
ENDBRANCH   7  13
BRANCH  10  16
ATOM     16  C   UNL     1       2.583   6.623  20.142  0.00  0.00    +0.000 C 
ATOM     17  C   UNL     1       1.474   6.070  21.001  0.00  0.00    +0.000 C 
ATOM     18  C   UNL     1       2.667   5.221  20.686  0.00  0.00    +0.000 C 
ENDBRANCH  10  16
ENDBRANCH   6  10
ENDBRANCH   1   6
BRANCH   5  19
ATOM     19  C   UNL     1       4.667   3.578  16.709  0.00  0.00    +0.000 C 
BRANCH  19  20
ATOM     20  C   UNL     1       5.675   4.500  17.358  0.00  0.00    +0.000 A 
ATOM     21  C   UNL     1       5.922   4.541  18.739  0.00  0.00    +0.000 A 
ATOM     22  F   UNL     1       5.314   3.698  19.581  0.00  0.00    +0.000 F 
ATOM     23  C   UNL     1       6.799   5.459  19.314  0.00  0.00    +0.000 A 
ATOM     24  C   UNL     1       7.487   6.360  18.516  0.00  0.00    +0.000 A 
ATOM     25  C   UNL     1       7.299   6.321  17.138  0.00  0.00    +0.000 A 
ATOM     26  C   UNL     1       6.406   5.402  16.566  0.00  0.00    +0.000 A 
ATOM     27 CL   UNL     1       6.257   5.430  14.841  0.00  0.00    +0.000 Cl
ENDBRANCH  19  20
ENDBRANCH   5  19
TORSDOF 6
ENDMDL
