MODEL 1
REMARK VINA RESULT:      -7.2      0.000      0.000
REMARK  Name = 
REMARK  10 active torsions:
REMARK  status: ('A' for Active; 'I' for Inactive)
REMARK    1  A    between atoms: C_1  and  N_2
REMARK    2  A    between atoms: C_12  and  C_13
REMARK    3  A    between atoms: N_18  and  C_19
REMARK    4  A    between atoms: C_19  and  C_20
REMARK    5  A    between atoms: C_20  and  O_22
REMARK    6  A    between atoms: O_22  and  C_23
REMARK    7  A    between atoms: C_23  and  C_24
REMARK    8  A    between atoms: C_24  and  O_25
REMARK    9  A    between atoms: C_24  and  C_26
REMARK   10  A    between atoms: C_26  and  O_27
REMARK                            x       y       z     vdW  Elec       q    Type
REMARK                         _______ _______ _______ _____ _____    ______ ____
ROOT
ATOM      1  C   UNL     1       0.913   7.803  21.679  0.00  0.00    +0.000 C 
ATOM      2  C   UNL     1       0.305   8.988  21.544  0.00  0.00    +0.000 C 
ATOM      3  S   UNL     1      -0.060   9.996  22.895  0.00  0.00    +0.000 S 
ATOM      4  C   UNL     1      -0.496  11.363  21.876  0.00  0.00    +0.000 C 
ATOM      5  S   UNL     1      -0.841  12.865  22.508  0.00  0.00    +0.000 S 
ATOM      6  N   UNL     1      -0.513  10.969  20.560  0.00  0.00    +0.000 N 
ATOM      7  C   UNL     1      -0.091   9.676  20.284  0.00  0.00    +0.000 C 
ATOM      8  O   UNL     1      -0.051   9.177  19.170  0.00  0.00    +0.000 OA
ENDROOT
BRANCH   1  20
ATOM      9  C   UNL     1       2.681   3.191  17.364  0.00  0.00    +0.000 C 
ATOM     10  N   UNL     1       3.214   4.536  17.589  0.00  0.00    +0.000 N 
ATOM     11  C   UNL     1       4.482   4.857  17.037  0.00  0.00    +0.000 A 
ATOM     12  C   UNL     1       5.386   3.867  16.603  0.00  0.00    +0.000 A 
ATOM     13  C   UNL     1       6.659   4.190  16.119  0.00  0.00    +0.000 A 
ATOM     14  C   UNL     1       7.063   5.517  16.052  0.00  0.00    +0.000 A 
ATOM     15  C   UNL     1       6.191   6.520  16.460  0.00  0.00    +0.000 A 
ATOM     16  C   UNL     1       4.915   6.198  16.951  0.00  0.00    +0.000 A 
ATOM     17  S   UNL     1       3.872   7.561  17.438  0.00  0.00    +0.000 S 
ATOM     18  C   UNL     1       2.813   6.736  18.614  0.00  0.00    +0.000 A 
ATOM     19  C   UNL     1       2.240   7.533  19.618  0.00  0.00    +0.000 A 
ATOM     20  C   UNL     1       1.409   6.970  20.587  0.00  0.00    +0.000 A 
ATOM     21  C   UNL     1       1.111   5.615  20.522  0.00  0.00    +0.000 A 
ATOM     22  C   UNL     1       1.679   4.819  19.512  0.00  0.00    +0.000 A 
ATOM     23  C   UNL     1       2.558   5.351  18.547  0.00  0.00    +0.000 A 
ENDBRANCH   1  20
BRANCH   6  24
ATOM     24  C   UNL     1      -0.939  11.799  19.431  0.00  0.00    +0.000 C 
BRANCH  24  25
ATOM     25  C   UNL     1      -2.418  11.683  19.085  0.00  0.00    +0.000 C 
ATOM     26  O   UNL     1      -3.279  12.378  19.616  0.00  0.00    +0.000 OA
BRANCH  25  27
ATOM     27  O   UNL     1      -2.673  10.688  18.196  0.00  0.00    +0.000 OA
BRANCH  27  28
ATOM     28  C   UNL     1      -4.067  10.464  17.921  0.00  0.00    +0.000 C 
BRANCH  28  29
ATOM     29  C   UNL     1      -4.559  11.076  16.604  0.00  0.00    +0.000 C 
BRANCH  29  30
ATOM     30  O   UNL     1      -4.736  12.490  16.760  0.00  0.00    +0.000 OA
ATOM     31  H   UNL     1      -4.042  12.820  17.358  0.00  0.00    +0.000 HD
ENDBRANCH  29  30
BRANCH  29  32
ATOM     32  C   UNL     1      -3.537  10.773  15.494  0.00  0.00    +0.000 C 
BRANCH  32  33
ATOM     33  O   UNL     1      -2.351  11.546  15.638  0.00  0.00    +0.000 OA
ATOM     34  H   UNL     1      -1.612  10.932  15.791  0.00  0.00    +0.000 HD
ENDBRANCH  32  33
ENDBRANCH  29  32
ENDBRANCH  28  29
ENDBRANCH  27  28
ENDBRANCH  25  27
ENDBRANCH  24  25
ENDBRANCH   6  24
TORSDOF 9
ENDMDL
MODEL 2
REMARK VINA RESULT:      -7.0      3.546      9.257
REMARK  Name = 
REMARK  10 active torsions:
REMARK  status: ('A' for Active; 'I' for Inactive)
REMARK    1  A    between atoms: C_1  and  N_2
REMARK    2  A    between atoms: C_12  and  C_13
REMARK    3  A    between atoms: N_18  and  C_19
REMARK    4  A    between atoms: C_19  and  C_20
REMARK    5  A    between atoms: C_20  and  O_22
REMARK    6  A    between atoms: O_22  and  C_23
REMARK    7  A    between atoms: C_23  and  C_24
REMARK    8  A    between atoms: C_24  and  O_25
REMARK    9  A    between atoms: C_24  and  C_26
REMARK   10  A    between atoms: C_26  and  O_27
REMARK                            x       y       z     vdW  Elec       q    Type
REMARK                         _______ _______ _______ _____ _____    ______ ____
ROOT
ATOM      1  C   UNL     1       2.113   9.064  17.771  0.00  0.00    +0.000 C 
ATOM      2  C   UNL     1       2.488   7.903  18.324  0.00  0.00    +0.000 C 
ATOM      3  S   UNL     1       3.702   6.899  17.624  0.00  0.00    +0.000 S 
ATOM      4  C   UNL     1       3.790   5.859  19.041  0.00  0.00    +0.000 C 
ATOM      5  S   UNL     1       4.934   4.657  19.189  0.00  0.00    +0.000 S 
ATOM      6  N   UNL     1       2.792   6.198  19.923  0.00  0.00    +0.000 N 
ATOM      7  C   UNL     1       2.023   7.308  19.607  0.00  0.00    +0.000 C 
ATOM      8  O   UNL     1       1.100   7.733  20.284  0.00  0.00    +0.000 OA
ENDROOT
BRANCH   1  20
ATOM      9  C   UNL     1      -1.123  13.501  21.357  0.00  0.00    +0.000 C 
ATOM     10  N   UNL     1      -1.593  12.617  20.289  0.00  0.00    +0.000 N 
ATOM     11  C   UNL     1      -2.992  12.420  20.147  0.00  0.00    +0.000 A 
ATOM     12  C   UNL     1      -3.904  12.737  21.173  0.00  0.00    +0.000 A 
ATOM     13  C   UNL     1      -5.274  12.480  21.047  0.00  0.00    +0.000 A 
ATOM     14  C   UNL     1      -5.773  11.901  19.887  0.00  0.00    +0.000 A 
ATOM     15  C   UNL     1      -4.902  11.588  18.850  0.00  0.00    +0.000 A 
ATOM     16  C   UNL     1      -3.525  11.840  18.975  0.00  0.00    +0.000 A 
ATOM     17  S   UNL     1      -2.498  11.410  17.581  0.00  0.00    +0.000 S 
ATOM     18  C   UNL     1      -0.935  11.171  18.410  0.00  0.00    +0.000 A 
ATOM     19  C   UNL     1      -0.018  10.305  17.795  0.00  0.00    +0.000 A 
ATOM     20  C   UNL     1       1.224  10.050  18.379  0.00  0.00    +0.000 A 
ATOM     21  C   UNL     1       1.567  10.703  19.555  0.00  0.00    +0.000 A 
ATOM     22  C   UNL     1       0.651  11.576  20.167  0.00  0.00    +0.000 A 
ATOM     23  C   UNL     1      -0.627  11.817  19.624  0.00  0.00    +0.000 A 
ENDBRANCH   1  20
BRANCH   6  24
ATOM     24  C   UNL     1       2.478   5.485  21.162  0.00  0.00    +0.000 C 
BRANCH  24  25
ATOM     25  C   UNL     1       1.763   4.154  20.961  0.00  0.00    +0.000 C 
ATOM     26  O   UNL     1       1.792   3.253  21.793  0.00  0.00    +0.000 OA
BRANCH  25  27
ATOM     27  O   UNL     1       1.168   4.057  19.743  0.00  0.00    +0.000 OA
BRANCH  27  28
ATOM     28  C   UNL     1       0.896   2.714  19.307  0.00  0.00    +0.000 C 
BRANCH  28  29
ATOM     29  C   UNL     1       1.794   2.225  18.164  0.00  0.00    +0.000 C 
BRANCH  29  30
ATOM     30  O   UNL     1       2.143   3.325  17.314  0.00  0.00    +0.000 OA
ATOM     31  H   UNL     1       1.340   3.618  16.849  0.00  0.00    +0.000 HD
ENDBRANCH  29  30
BRANCH  29  32
ATOM     32  C   UNL     1       3.055   1.573  18.758  0.00  0.00    +0.000 C 
BRANCH  32  33
ATOM     33  O   UNL     1       4.100   1.465  17.798  0.00  0.00    +0.000 OA
ATOM     34  H   UNL     1       4.941   1.649  18.252  0.00  0.00    +0.000 HD
ENDBRANCH  32  33
ENDBRANCH  29  32
ENDBRANCH  28  29
ENDBRANCH  27  28
ENDBRANCH  25  27
ENDBRANCH  24  25
ENDBRANCH   6  24
TORSDOF 9
ENDMDL
MODEL 3
REMARK VINA RESULT:      -6.9      3.490      9.252
REMARK  Name = 
REMARK  10 active torsions:
REMARK  status: ('A' for Active; 'I' for Inactive)
REMARK    1  A    between atoms: C_1  and  N_2
REMARK    2  A    between atoms: C_12  and  C_13
REMARK    3  A    between atoms: N_18  and  C_19
REMARK    4  A    between atoms: C_19  and  C_20
REMARK    5  A    between atoms: C_20  and  O_22
REMARK    6  A    between atoms: O_22  and  C_23
REMARK    7  A    between atoms: C_23  and  C_24
REMARK    8  A    between atoms: C_24  and  O_25
REMARK    9  A    between atoms: C_24  and  C_26
REMARK   10  A    between atoms: C_26  and  O_27
REMARK                            x       y       z     vdW  Elec       q    Type
REMARK                         _______ _______ _______ _____ _____    ______ ____
ROOT
ATOM      1  C   UNL     1       2.250   9.071  17.598  0.00  0.00    +0.000 C 
ATOM      2  C   UNL     1       2.705   7.897  18.055  0.00  0.00    +0.000 C 
ATOM      3  S   UNL     1       3.984   7.040  17.279  0.00  0.00    +0.000 S 
ATOM      4  C   UNL     1       4.147   5.896  18.607  0.00  0.00    +0.000 C 
ATOM      5  S   UNL     1       5.372   4.768  18.659  0.00  0.00    +0.000 S 
ATOM      6  N   UNL     1       3.131   6.092  19.510  0.00  0.00    +0.000 N 
ATOM      7  C   UNL     1       2.286   7.168  19.284  0.00  0.00    +0.000 C 
ATOM      8  O   UNL     1       1.338   7.472  19.991  0.00  0.00    +0.000 OA
ENDROOT
BRANCH   1  20
ATOM      9  C   UNL     1      -2.818  12.474  19.997  0.00  0.00    +0.000 C 
ATOM     10  N   UNL     1      -1.383  12.767  20.013  0.00  0.00    +0.000 N 
ATOM     11  C   UNL     1      -0.972  14.093  20.312  0.00  0.00    +0.000 A 
ATOM     12  C   UNL     1      -1.855  15.188  20.242  0.00  0.00    +0.000 A 
ATOM     13  C   UNL     1      -1.425  16.500  20.476  0.00  0.00    +0.000 A 
ATOM     14  C   UNL     1      -0.096  16.753  20.792  0.00  0.00    +0.000 A 
ATOM     15  C   UNL     1       0.799  15.693  20.882  0.00  0.00    +0.000 A 
ATOM     16  C   UNL     1       0.372  14.376  20.642  0.00  0.00    +0.000 A 
ATOM     17  S   UNL     1       1.599  13.091  20.794  0.00  0.00    +0.000 S 
ATOM     18  C   UNL     1       0.882  11.851  19.729  0.00  0.00    +0.000 A 
ATOM     19  C   UNL     1       1.767  10.936  19.138  0.00  0.00    +0.000 A 
ATOM     20  C   UNL     1       1.296   9.940  18.281  0.00  0.00    +0.000 A 
ATOM     21  C   UNL     1      -0.070   9.829  18.057  0.00  0.00    +0.000 A 
ATOM     22  C   UNL     1      -0.957  10.741  18.656  0.00  0.00    +0.000 A 
ATOM     23  C   UNL     1      -0.505  11.784  19.488  0.00  0.00    +0.000 A 
ENDBRANCH   1  20
BRANCH   6  24
ATOM     24  C   UNL     1       2.870   5.260  20.686  0.00  0.00    +0.000 C 
BRANCH  24  25
ATOM     25  C   UNL     1       1.875   4.129  20.451  0.00  0.00    +0.000 C 
ATOM     26  O   UNL     1       0.669   4.259  20.637  0.00  0.00    +0.000 OA
BRANCH  25  27
ATOM     27  O   UNL     1       2.479   2.965  20.094  0.00  0.00    +0.000 OA
BRANCH  27  28
ATOM     28  C   UNL     1       1.722   2.145  19.186  0.00  0.00    +0.000 C 
BRANCH  28  29
ATOM     29  C   UNL     1       2.244   2.149  17.745  0.00  0.00    +0.000 C 
BRANCH  29  30
ATOM     30  O   UNL     1       2.024   3.434  17.149  0.00  0.00    +0.000 OA
ATOM     31  H   UNL     1       2.794   3.649  16.594  0.00  0.00    +0.000 HD
ENDBRANCH  29  30
BRANCH  29  32
ATOM     32  C   UNL     1       3.743   1.799  17.751  0.00  0.00    +0.000 C 
BRANCH  32  33
ATOM     33  O   UNL     1       4.017   0.649  18.543  0.00  0.00    +0.000 OA
ATOM     34  H   UNL     1       3.838  -0.137  17.998  0.00  0.00    +0.000 HD
ENDBRANCH  32  33
ENDBRANCH  29  32
ENDBRANCH  28  29
ENDBRANCH  27  28
ENDBRANCH  25  27
ENDBRANCH  24  25
ENDBRANCH   6  24
TORSDOF 9
ENDMDL
MODEL 4
REMARK VINA RESULT:      -6.8      1.908      3.143
REMARK  Name = 
REMARK  10 active torsions:
REMARK  status: ('A' for Active; 'I' for Inactive)
REMARK    1  A    between atoms: C_1  and  N_2
REMARK    2  A    between atoms: C_12  and  C_13
REMARK    3  A    between atoms: N_18  and  C_19
REMARK    4  A    between atoms: C_19  and  C_20
REMARK    5  A    between atoms: C_20  and  O_22
REMARK    6  A    between atoms: O_22  and  C_23
REMARK    7  A    between atoms: C_23  and  C_24
REMARK    8  A    between atoms: C_24  and  O_25
REMARK    9  A    between atoms: C_24  and  C_26
REMARK   10  A    between atoms: C_26  and  O_27
REMARK                            x       y       z     vdW  Elec       q    Type
REMARK                         _______ _______ _______ _____ _____    ______ ____
ROOT
ATOM      1  C   UNL     1       0.288   9.945  21.712  0.00  0.00    +0.000 C 
ATOM      2  C   UNL     1      -0.688  10.756  21.284  0.00  0.00    +0.000 C 
ATOM      3  S   UNL     1      -1.410  11.947  22.302  0.00  0.00    +0.000 S 
ATOM      4  C   UNL     1      -2.266  12.705  20.966  0.00  0.00    +0.000 C 
ATOM      5  S   UNL     1      -3.123  14.123  21.151  0.00  0.00    +0.000 S 
ATOM      6  N   UNL     1      -2.115  11.945  19.831  0.00  0.00    +0.000 N 
ATOM      7  C   UNL     1      -1.268  10.850  19.916  0.00  0.00    +0.000 C 
ATOM      8  O   UNL     1      -1.032  10.077  19.000  0.00  0.00    +0.000 OA
ENDROOT
BRANCH   1  20
ATOM      9  C   UNL     1       3.761   6.699  17.194  0.00  0.00    +0.000 C 
ATOM     10  N   UNL     1       2.985   6.204  18.332  0.00  0.00    +0.000 N 
ATOM     11  C   UNL     1       2.644   4.826  18.365  0.00  0.00    +0.000 A 
ATOM     12  C   UNL     1       2.703   4.009  17.219  0.00  0.00    +0.000 A 
ATOM     13  C   UNL     1       2.305   2.667  17.247  0.00  0.00    +0.000 A 
ATOM     14  C   UNL     1       1.839   2.102  18.427  0.00  0.00    +0.000 A 
ATOM     15  C   UNL     1       1.780   2.876  19.580  0.00  0.00    +0.000 A 
ATOM     16  C   UNL     1       2.174   4.225  19.554  0.00  0.00    +0.000 A 
ATOM     17  S   UNL     1       2.069   5.125  21.091  0.00  0.00    +0.000 S 
ATOM     18  C   UNL     1       1.905   6.788  20.465  0.00  0.00    +0.000 A 
ATOM     19  C   UNL     1       1.249   7.714  21.291  0.00  0.00    +0.000 A 
ATOM     20  C   UNL     1       1.066   9.034  20.877  0.00  0.00    +0.000 A 
ATOM     21  C   UNL     1       1.584   9.440  19.655  0.00  0.00    +0.000 A 
ATOM     22  C   UNL     1       2.248   8.514  18.831  0.00  0.00    +0.000 A 
ATOM     23  C   UNL     1       2.408   7.165  19.203  0.00  0.00    +0.000 A 
ENDBRANCH   1  20
BRANCH   6  24
ATOM     24  C   UNL     1      -2.775  12.195  18.548  0.00  0.00    +0.000 C 
BRANCH  24  25
ATOM     25  C   UNL     1      -4.178  11.612  18.435  0.00  0.00    +0.000 C 
ATOM     26  O   UNL     1      -5.100  11.958  19.165  0.00  0.00    +0.000 OA
BRANCH  25  27
ATOM     27  O   UNL     1      -4.263  10.629  17.500  0.00  0.00    +0.000 OA
BRANCH  27  28
ATOM     28  C   UNL     1      -4.115  11.074  16.140  0.00  0.00    +0.000 C 
BRANCH  28  29
ATOM     29  C   UNL     1      -2.827  10.600  15.456  0.00  0.00    +0.000 C 
BRANCH  29  30
ATOM     30  O   UNL     1      -2.210   9.569  16.239  0.00  0.00    +0.000 OA
ATOM     31  H   UNL     1      -2.510   9.665  17.160  0.00  0.00    +0.000 HD
ENDBRANCH  29  30
BRANCH  29  32
ATOM     32  C   UNL     1      -3.164  10.087  14.046  0.00  0.00    +0.000 C 
BRANCH  32  33
ATOM     33  O   UNL     1      -4.537   9.732  13.923  0.00  0.00    +0.000 OA
ATOM     34  H   UNL     1      -4.741   9.089  14.625  0.00  0.00    +0.000 HD
ENDBRANCH  32  33
ENDBRANCH  29  32
ENDBRANCH  28  29
ENDBRANCH  27  28
ENDBRANCH  25  27
ENDBRANCH  24  25
ENDBRANCH   6  24
TORSDOF 9
ENDMDL
MODEL 5
REMARK VINA RESULT:      -6.8      2.146      3.562
REMARK  Name = 
REMARK  10 active torsions:
REMARK  status: ('A' for Active; 'I' for Inactive)
REMARK    1  A    between atoms: C_1  and  N_2
REMARK    2  A    between atoms: C_12  and  C_13
REMARK    3  A    between atoms: N_18  and  C_19
REMARK    4  A    between atoms: C_19  and  C_20
REMARK    5  A    between atoms: C_20  and  O_22
REMARK    6  A    between atoms: O_22  and  C_23
REMARK    7  A    between atoms: C_23  and  C_24
REMARK    8  A    between atoms: C_24  and  O_25
REMARK    9  A    between atoms: C_24  and  C_26
REMARK   10  A    between atoms: C_26  and  O_27
REMARK                            x       y       z     vdW  Elec       q    Type
REMARK                         _______ _______ _______ _____ _____    ______ ____
ROOT
ATOM      1  C   UNL     1       0.327   9.795  21.210  0.00  0.00    +0.000 C 
ATOM      2  C   UNL     1      -0.640  10.562  20.691  0.00  0.00    +0.000 C 
ATOM      3  S   UNL     1      -1.430  11.793  21.605  0.00  0.00    +0.000 S 
ATOM      4  C   UNL     1      -2.233  12.459  20.188  0.00  0.00    +0.000 C 
ATOM      5  S   UNL     1      -3.121  13.868  20.252  0.00  0.00    +0.000 S 
ATOM      6  N   UNL     1      -2.014  11.640  19.107  0.00  0.00    +0.000 N 
ATOM      7  C   UNL     1      -1.154  10.568  19.294  0.00  0.00    +0.000 C 
ATOM      8  O   UNL     1      -0.861   9.750  18.435  0.00  0.00    +0.000 OA
ENDROOT
BRANCH   1  20
ATOM      9  C   UNL     1       4.075   6.373  17.056  0.00  0.00    +0.000 C 
ATOM     10  N   UNL     1       3.249   5.926  18.179  0.00  0.00    +0.000 N 
ATOM     11  C   UNL     1       2.927   4.546  18.269  0.00  0.00    +0.000 A 
ATOM     12  C   UNL     1       3.057   3.671  17.172  0.00  0.00    +0.000 A 
ATOM     13  C   UNL     1       2.676   2.326  17.252  0.00  0.00    +0.000 A 
ATOM     14  C   UNL     1       2.158   1.816  18.436  0.00  0.00    +0.000 A 
ATOM     15  C   UNL     1       2.029   2.649  19.541  0.00  0.00    +0.000 A 
ATOM     16  C   UNL     1       2.405   4.001  19.462  0.00  0.00    +0.000 A 
ATOM     17  S   UNL     1       2.207   4.979  20.941  0.00  0.00    +0.000 S 
ATOM     18  C   UNL     1       2.052   6.604  20.219  0.00  0.00    +0.000 A 
ATOM     19  C   UNL     1       1.341   7.561  20.960  0.00  0.00    +0.000 A 
ATOM     20  C   UNL     1       1.160   8.854  20.467  0.00  0.00    +0.000 A 
ATOM     21  C   UNL     1       1.735   9.204  19.252  0.00  0.00    +0.000 A 
ATOM     22  C   UNL     1       2.453   8.247  18.514  0.00  0.00    +0.000 A 
ATOM     23  C   UNL     1       2.613   6.922  18.966  0.00  0.00    +0.000 A 
ENDBRANCH   1  20
BRANCH   6  24
ATOM     24  C   UNL     1      -2.614  11.806  17.782  0.00  0.00    +0.000 C 
BRANCH  24  25
ATOM     25  C   UNL     1      -3.607  10.716  17.397  0.00  0.00    +0.000 C 
ATOM     26  O   UNL     1      -3.504  10.059  16.366  0.00  0.00    +0.000 OA
BRANCH  25  27
ATOM     27  O   UNL     1      -4.640  10.614  18.275  0.00  0.00    +0.000 OA
BRANCH  27  28
ATOM     28  C   UNL     1      -5.605  11.678  18.200  0.00  0.00    +0.000 C 
BRANCH  28  29
ATOM     29  C   UNL     1      -6.958  11.352  18.842  0.00  0.00    +0.000 C 
BRANCH  29  30
ATOM     30  O   UNL     1      -7.225   9.948  18.730  0.00  0.00    +0.000 OA
ATOM     31  H   UNL     1      -7.415   9.747  17.797  0.00  0.00    +0.000 HD
ENDBRANCH  29  30
BRANCH  29  32
ATOM     32  C   UNL     1      -6.933  11.787  20.318  0.00  0.00    +0.000 C 
BRANCH  32  33
ATOM     33  O   UNL     1      -7.268  10.717  21.194  0.00  0.00    +0.000 OA
ATOM     34  H   UNL     1      -6.989   9.887  20.769  0.00  0.00    +0.000 HD
ENDBRANCH  32  33
ENDBRANCH  29  32
ENDBRANCH  28  29
ENDBRANCH  27  28
ENDBRANCH  25  27
ENDBRANCH  24  25
ENDBRANCH   6  24
TORSDOF 9
ENDMDL
MODEL 6
REMARK VINA RESULT:      -6.7      3.521      9.415
REMARK  Name = 
REMARK  10 active torsions:
REMARK  status: ('A' for Active; 'I' for Inactive)
REMARK    1  A    between atoms: C_1  and  N_2
REMARK    2  A    between atoms: C_12  and  C_13
REMARK    3  A    between atoms: N_18  and  C_19
REMARK    4  A    between atoms: C_19  and  C_20
REMARK    5  A    between atoms: C_20  and  O_22
REMARK    6  A    between atoms: O_22  and  C_23
REMARK    7  A    between atoms: C_23  and  C_24
REMARK    8  A    between atoms: C_24  and  O_25
REMARK    9  A    between atoms: C_24  and  C_26
REMARK   10  A    between atoms: C_26  and  O_27
REMARK                            x       y       z     vdW  Elec       q    Type
REMARK                         _______ _______ _______ _____ _____    ______ ____
ROOT
ATOM      1  C   UNL     1       1.788   9.355  17.822  0.00  0.00    +0.000 C 
ATOM      2  C   UNL     1       2.292   8.200  18.274  0.00  0.00    +0.000 C 
ATOM      3  S   UNL     1       3.563   7.366  17.460  0.00  0.00    +0.000 S 
ATOM      4  C   UNL     1       3.807   6.244  18.793  0.00  0.00    +0.000 C 
ATOM      5  S   UNL     1       5.062   5.149  18.811  0.00  0.00    +0.000 S 
ATOM      6  N   UNL     1       2.821   6.424  19.733  0.00  0.00    +0.000 N 
ATOM      7  C   UNL     1       1.940   7.475  19.527  0.00  0.00    +0.000 C 
ATOM      8  O   UNL     1       1.011   7.763  20.266  0.00  0.00    +0.000 OA
ENDROOT
BRANCH   1  20
ATOM      9  C   UNL     1      -3.267  12.687  20.344  0.00  0.00    +0.000 C 
ATOM     10  N   UNL     1      -1.834  12.990  20.344  0.00  0.00    +0.000 N 
ATOM     11  C   UNL     1      -1.427  14.314  20.656  0.00  0.00    +0.000 A 
ATOM     12  C   UNL     1      -2.319  15.404  20.615  0.00  0.00    +0.000 A 
ATOM     13  C   UNL     1      -1.894  16.715  20.863  0.00  0.00    +0.000 A 
ATOM     14  C   UNL     1      -0.563  16.972  21.164  0.00  0.00    +0.000 A 
ATOM     15  C   UNL     1       0.341  15.918  21.226  0.00  0.00    +0.000 A 
ATOM     16  C   UNL     1      -0.081  14.601  20.972  0.00  0.00    +0.000 A 
ATOM     17  S   UNL     1       1.157  13.322  21.088  0.00  0.00    +0.000 S 
ATOM     18  C   UNL     1       0.433  12.094  20.014  0.00  0.00    +0.000 A 
ATOM     19  C   UNL     1       1.316  11.194  19.396  0.00  0.00    +0.000 A 
ATOM     20  C   UNL     1       0.838  10.208  18.532  0.00  0.00    +0.000 A 
ATOM     21  C   UNL     1      -0.530  10.090  18.325  0.00  0.00    +0.000 A 
ATOM     22  C   UNL     1      -1.414  10.987  18.950  0.00  0.00    +0.000 A 
ATOM     23  C   UNL     1      -0.957  12.021  19.792  0.00  0.00    +0.000 A 
ENDBRANCH   1  20
BRANCH   6  24
ATOM     24  C   UNL     1       2.627   5.600  20.927  0.00  0.00    +0.000 C 
BRANCH  24  25
ATOM     25  C   UNL     1       1.910   4.280  20.674  0.00  0.00    +0.000 C 
ATOM     26  O   UNL     1       0.709   4.214  20.431  0.00  0.00    +0.000 OA
BRANCH  25  27
ATOM     27  O   UNL     1       2.726   3.203  20.821  0.00  0.00    +0.000 OA
BRANCH  27  28
ATOM     28  C   UNL     1       2.470   2.120  19.909  0.00  0.00    +0.000 C 
BRANCH  28  29
ATOM     29  C   UNL     1       3.370   2.112  18.668  0.00  0.00    +0.000 C 
BRANCH  29  30
ATOM     30  O   UNL     1       3.838   0.781  18.415  0.00  0.00    +0.000 OA
ATOM     31  H   UNL     1       3.843   0.638  17.452  0.00  0.00    +0.000 HD
ENDBRANCH  29  30
BRANCH  29  32
ATOM     32  C   UNL     1       2.574   2.649  17.466  0.00  0.00    +0.000 C 
BRANCH  32  33
ATOM     33  O   UNL     1       1.205   2.865  17.787  0.00  0.00    +0.000 OA
ATOM     34  H   UNL     1       0.756   3.179  16.983  0.00  0.00    +0.000 HD
ENDBRANCH  32  33
ENDBRANCH  29  32
ENDBRANCH  28  29
ENDBRANCH  27  28
ENDBRANCH  25  27
ENDBRANCH  24  25
ENDBRANCH   6  24
TORSDOF 9
ENDMDL
MODEL 7
REMARK VINA RESULT:      -6.7      1.717      2.474
REMARK  Name = 
REMARK  10 active torsions:
REMARK  status: ('A' for Active; 'I' for Inactive)
REMARK    1  A    between atoms: C_1  and  N_2
REMARK    2  A    between atoms: C_12  and  C_13
REMARK    3  A    between atoms: N_18  and  C_19
REMARK    4  A    between atoms: C_19  and  C_20
REMARK    5  A    between atoms: C_20  and  O_22
REMARK    6  A    between atoms: O_22  and  C_23
REMARK    7  A    between atoms: C_23  and  C_24
REMARK    8  A    between atoms: C_24  and  O_25
REMARK    9  A    between atoms: C_24  and  C_26
REMARK   10  A    between atoms: C_26  and  O_27
REMARK                            x       y       z     vdW  Elec       q    Type
REMARK                         _______ _______ _______ _____ _____    ______ ____
ROOT
ATOM      1  C   UNL     1       0.654   9.357  21.574  0.00  0.00    +0.000 C 
ATOM      2  C   UNL     1      -0.119  10.339  21.093  0.00  0.00    +0.000 C 
ATOM      3  S   UNL     1      -0.522  11.735  22.022  0.00  0.00    +0.000 S 
ATOM      4  C   UNL     1      -1.213  12.572  20.637  0.00  0.00    +0.000 C 
ATOM      5  S   UNL     1      -1.715  14.159  20.721  0.00  0.00    +0.000 S 
ATOM      6  N   UNL     1      -1.268  11.717  19.563  0.00  0.00    +0.000 N 
ATOM      7  C   UNL     1      -0.693  10.465  19.725  0.00  0.00    +0.000 C 
ATOM      8  O   UNL     1      -0.664   9.595  18.869  0.00  0.00    +0.000 OA
ENDROOT
BRANCH   1  20
ATOM      9  C   UNL     1       2.696   3.671  19.023  0.00  0.00    +0.000 C 
ATOM     10  N   UNL     1       3.086   5.047  18.711  0.00  0.00    +0.000 N 
ATOM     11  C   UNL     1       4.278   5.256  17.968  0.00  0.00    +0.000 A 
ATOM     12  C   UNL     1       5.263   4.257  17.832  0.00  0.00    +0.000 A 
ATOM     13  C   UNL     1       6.464   4.493  17.152  0.00  0.00    +0.000 A 
ATOM     14  C   UNL     1       6.712   5.736  16.585  0.00  0.00    +0.000 A 
ATOM     15  C   UNL     1       5.756   6.739  16.690  0.00  0.00    +0.000 A 
ATOM     16  C   UNL     1       4.552   6.508  17.376  0.00  0.00    +0.000 A 
ATOM     17  S   UNL     1       3.390   7.860  17.443  0.00  0.00    +0.000 S 
ATOM     18  C   UNL     1       2.495   7.426  18.925  0.00  0.00    +0.000 A 
ATOM     19  C   UNL     1       1.890   8.478  19.631  0.00  0.00    +0.000 A 
ATOM     20  C   UNL     1       1.181   8.233  20.807  0.00  0.00    +0.000 A 
ATOM     21  C   UNL     1       1.035   6.925  21.251  0.00  0.00    +0.000 A 
ATOM     22  C   UNL     1       1.634   5.871  20.540  0.00  0.00    +0.000 A 
ATOM     23  C   UNL     1       2.394   6.094  19.374  0.00  0.00    +0.000 A 
ENDBRANCH   1  20
BRANCH   6  24
ATOM     24  C   UNL     1      -1.882  12.020  18.269  0.00  0.00    +0.000 C 
BRANCH  24  25
ATOM     25  C   UNL     1      -3.340  11.596  18.147  0.00  0.00    +0.000 C 
ATOM     26  O   UNL     1      -3.806  11.112  17.121  0.00  0.00    +0.000 OA
BRANCH  25  27
ATOM     27  O   UNL     1      -4.064  11.882  19.261  0.00  0.00    +0.000 OA
BRANCH  27  28
ATOM     28  C   UNL     1      -5.483  11.691  19.126  0.00  0.00    +0.000 C 
BRANCH  28  29
ATOM     29  C   UNL     1      -6.306  12.193  20.318  0.00  0.00    +0.000 C 
BRANCH  29  30
ATOM     30  O   UNL     1      -6.812  11.078  21.065  0.00  0.00    +0.000 OA
ATOM     31  H   UNL     1      -6.056  10.591  21.435  0.00  0.00    +0.000 HD
ENDBRANCH  29  30
BRANCH  29  32
ATOM     32  C   UNL     1      -5.419  13.085  21.203  0.00  0.00    +0.000 C 
BRANCH  32  33
ATOM     33  O   UNL     1      -4.706  12.330  22.176  0.00  0.00    +0.000 OA
ATOM     34  H   UNL     1      -4.781  11.390  21.935  0.00  0.00    +0.000 HD
ENDBRANCH  32  33
ENDBRANCH  29  32
ENDBRANCH  28  29
ENDBRANCH  27  28
ENDBRANCH  25  27
ENDBRANCH  24  25
ENDBRANCH   6  24
TORSDOF 9
ENDMDL
MODEL 8
REMARK VINA RESULT:      -6.7      2.259      3.215
REMARK  Name = 
REMARK  10 active torsions:
REMARK  status: ('A' for Active; 'I' for Inactive)
REMARK    1  A    between atoms: C_1  and  N_2
REMARK    2  A    between atoms: C_12  and  C_13
REMARK    3  A    between atoms: N_18  and  C_19
REMARK    4  A    between atoms: C_19  and  C_20
REMARK    5  A    between atoms: C_20  and  O_22
REMARK    6  A    between atoms: O_22  and  C_23
REMARK    7  A    between atoms: C_23  and  C_24
REMARK    8  A    between atoms: C_24  and  O_25
REMARK    9  A    between atoms: C_24  and  C_26
REMARK   10  A    between atoms: C_26  and  O_27
REMARK                            x       y       z     vdW  Elec       q    Type
REMARK                         _______ _______ _______ _____ _____    ______ ____
ROOT
ATOM      1  C   UNL     1       0.965   7.815  21.761  0.00  0.00    +0.000 C 
ATOM      2  C   UNL     1       0.246   8.940  21.663  0.00  0.00    +0.000 C 
ATOM      3  S   UNL     1      -0.066   9.956  23.021  0.00  0.00    +0.000 S 
ATOM      4  C   UNL     1      -0.721  11.248  22.023  0.00  0.00    +0.000 C 
ATOM      5  S   UNL     1      -1.129  12.736  22.653  0.00  0.00    +0.000 S 
ATOM      6  N   UNL     1      -0.837  10.813  20.725  0.00  0.00    +0.000 N 
ATOM      7  C   UNL     1      -0.335   9.552  20.436  0.00  0.00    +0.000 C 
ATOM      8  O   UNL     1      -0.365   9.024  19.335  0.00  0.00    +0.000 OA
ENDROOT
BRANCH   1  20
ATOM      9  C   UNL     1       2.532   3.251  17.319  0.00  0.00    +0.000 C 
ATOM     10  N   UNL     1       3.102   4.578  17.559  0.00  0.00    +0.000 N 
ATOM     11  C   UNL     1       4.365   4.881  16.986  0.00  0.00    +0.000 A 
ATOM     12  C   UNL     1       5.235   3.879  16.514  0.00  0.00    +0.000 A 
ATOM     13  C   UNL     1       6.505   4.183  16.009  0.00  0.00    +0.000 A 
ATOM     14  C   UNL     1       6.939   5.501  15.958  0.00  0.00    +0.000 A 
ATOM     15  C   UNL     1       6.100   6.515  16.404  0.00  0.00    +0.000 A 
ATOM     16  C   UNL     1       4.827   6.213  16.917  0.00  0.00    +0.000 A 
ATOM     17  S   UNL     1       3.827   7.590  17.453  0.00  0.00    +0.000 S 
ATOM     18  C   UNL     1       2.775   6.766  18.636  0.00  0.00    +0.000 A 
ATOM     19  C   UNL     1       2.241   7.556  19.667  0.00  0.00    +0.000 A 
ATOM     20  C   UNL     1       1.418   6.992  20.642  0.00  0.00    +0.000 A 
ATOM     21  C   UNL     1       1.087   5.647  20.557  0.00  0.00    +0.000 A 
ATOM     22  C   UNL     1       1.615   4.858  19.520  0.00  0.00    +0.000 A 
ATOM     23  C   UNL     1       2.485   5.389  18.547  0.00  0.00    +0.000 A 
ENDBRANCH   1  20
BRANCH   6  24
ATOM     24  C   UNL     1      -1.446  11.568  19.628  0.00  0.00    +0.000 C 
BRANCH  24  25
ATOM     25  C   UNL     1      -0.489  12.502  18.897  0.00  0.00    +0.000 C 
ATOM     26  O   UNL     1      -0.777  13.047  17.836  0.00  0.00    +0.000 OA
BRANCH  25  27
ATOM     27  O   UNL     1       0.721  12.595  19.507  0.00  0.00    +0.000 OA
BRANCH  27  28
ATOM     28  C   UNL     1       1.448  13.804  19.228  0.00  0.00    +0.000 C 
BRANCH  28  29
ATOM     29  C   UNL     1       2.821  13.583  18.583  0.00  0.00    +0.000 C 
BRANCH  29  30
ATOM     30  O   UNL     1       2.670  12.880  17.343  0.00  0.00    +0.000 OA
ATOM     31  H   UNL     1       3.278  12.120  17.348  0.00  0.00    +0.000 HD
ENDBRANCH  29  30
BRANCH  29  32
ATOM     32  C   UNL     1       3.497  14.947  18.358  0.00  0.00    +0.000 C 
BRANCH  32  33
ATOM     33  O   UNL     1       4.433  14.907  17.287  0.00  0.00    +0.000 OA
ATOM     34  H   UNL     1       4.285  15.694  16.734  0.00  0.00    +0.000 HD
ENDBRANCH  32  33
ENDBRANCH  29  32
ENDBRANCH  28  29
ENDBRANCH  27  28
ENDBRANCH  25  27
ENDBRANCH  24  25
ENDBRANCH   6  24
TORSDOF 9
ENDMDL
MODEL 9
REMARK VINA RESULT:      -6.6      2.631      4.167
REMARK  Name = 
REMARK  10 active torsions:
REMARK  status: ('A' for Active; 'I' for Inactive)
REMARK    1  A    between atoms: C_1  and  N_2
REMARK    2  A    between atoms: C_12  and  C_13
REMARK    3  A    between atoms: N_18  and  C_19
REMARK    4  A    between atoms: C_19  and  C_20
REMARK    5  A    between atoms: C_20  and  O_22
REMARK    6  A    between atoms: O_22  and  C_23
REMARK    7  A    between atoms: C_23  and  C_24
REMARK    8  A    between atoms: C_24  and  O_25
REMARK    9  A    between atoms: C_24  and  C_26
REMARK   10  A    between atoms: C_26  and  O_27
REMARK                            x       y       z     vdW  Elec       q    Type
REMARK                         _______ _______ _______ _____ _____    ______ ____
ROOT
ATOM      1  C   UNL     1      -0.370  10.823  20.100  0.00  0.00    +0.000 C 
ATOM      2  C   UNL     1      -1.584  11.011  19.566  0.00  0.00    +0.000 C 
ATOM      3  S   UNL     1      -2.637  12.270  20.094  0.00  0.00    +0.000 S 
ATOM      4  C   UNL     1      -3.755  12.022  18.758  0.00  0.00    +0.000 C 
ATOM      5  S   UNL     1      -5.046  13.040  18.481  0.00  0.00    +0.000 S 
ATOM      6  N   UNL     1      -3.390  10.900  18.055  0.00  0.00    +0.000 N 
ATOM      7  C   UNL     1      -2.211  10.276  18.434  0.00  0.00    +0.000 C 
ATOM      8  O   UNL     1      -1.754   9.270  17.912  0.00  0.00    +0.000 OA
ENDROOT
BRANCH   1  20
ATOM      9  C   UNL     1       4.239   7.370  16.962  0.00  0.00    +0.000 C 
ATOM     10  N   UNL     1       3.306   6.970  18.017  0.00  0.00    +0.000 N 
ATOM     11  C   UNL     1       3.106   5.584  18.248  0.00  0.00    +0.000 A 
ATOM     12  C   UNL     1       3.473   4.604  17.304  0.00  0.00    +0.000 A 
ATOM     13  C   UNL     1       3.214   3.244  17.513  0.00  0.00    +0.000 A 
ATOM     14  C   UNL     1       2.583   2.825  18.677  0.00  0.00    +0.000 A 
ATOM     15  C   UNL     1       2.219   3.764  19.635  0.00  0.00    +0.000 A 
ATOM     16  C   UNL     1       2.473   5.130  19.426  0.00  0.00    +0.000 A 
ATOM     17  S   UNL     1       1.974   6.250  20.723  0.00  0.00    +0.000 S 
ATOM     18  C   UNL     1       1.771   7.749  19.776  0.00  0.00    +0.000 A 
ATOM     19  C   UNL     1       0.875   8.702  20.284  0.00  0.00    +0.000 A 
ATOM     20  C   UNL     1       0.645   9.898  19.603  0.00  0.00    +0.000 A 
ATOM     21  C   UNL     1       1.352  10.163  18.438  0.00  0.00    +0.000 A 
ATOM     22  C   UNL     1       2.256   9.211  17.933  0.00  0.00    +0.000 A 
ATOM     23  C   UNL     1       2.474   7.976  18.575  0.00  0.00    +0.000 A 
ENDBRANCH   1  20
BRANCH   6  24
ATOM     24  C   UNL     1      -4.144  10.311  16.946  0.00  0.00    +0.000 C 
BRANCH  24  25
ATOM     25  C   UNL     1      -3.551  10.580  15.568  0.00  0.00    +0.000 C 
ATOM     26  O   UNL     1      -2.572  11.299  15.396  0.00  0.00    +0.000 OA
BRANCH  25  27
ATOM     27  O   UNL     1      -4.269  10.004  14.567  0.00  0.00    +0.000 OA
BRANCH  27  28
ATOM     28  C   UNL     1      -3.562   9.858  13.323  0.00  0.00    +0.000 C 
BRANCH  28  29
ATOM     29  C   UNL     1      -4.436  10.025  12.075  0.00  0.00    +0.000 C 
BRANCH  29  30
ATOM     30  O   UNL     1      -3.708   9.614  10.911  0.00  0.00    +0.000 OA
ATOM     31  H   UNL     1      -2.762   9.578  11.140  0.00  0.00    +0.000 HD
ENDBRANCH  29  30
BRANCH  29  32
ATOM     32  C   UNL     1      -5.717   9.188  12.241  0.00  0.00    +0.000 C 
BRANCH  32  33
ATOM     33  O   UNL     1      -6.881   9.917  11.869  0.00  0.00    +0.000 OA
ATOM     34  H   UNL     1      -7.129  10.485  12.620  0.00  0.00    +0.000 HD
ENDBRANCH  32  33
ENDBRANCH  29  32
ENDBRANCH  28  29
ENDBRANCH  27  28
ENDBRANCH  25  27
ENDBRANCH  24  25
ENDBRANCH   6  24
TORSDOF 9
ENDMDL
