MODEL 1
REMARK VINA RESULT:      -7.4      0.000      0.000
REMARK  Name = 
REMARK  9 active torsions:
REMARK  status: ('A' for Active; 'I' for Inactive)
REMARK    1  A    between atoms: C_1  and  C_2
REMARK    2  A    between atoms: C_5  and  O_6
REMARK    3  A    between atoms: O_6  and  C_7
REMARK    4  A    between atoms: C_7  and  C_8
REMARK    5  A    between atoms: C_8  and  O_9
REMARK    6  A    between atoms: C_8  and  C_10
REMARK    7  A    between atoms: C_10  and  N_11
REMARK    8  A    between atoms: N_14  and  C_15
REMARK    9  A    between atoms: C_18  and  C_19
REMARK                            x       y       z     vdW  Elec       q    Type
REMARK                         _______ _______ _______ _____ _____    ______ ____
ROOT
ATOM      1  C   UNL     1       3.073   3.013  19.345  0.00  0.00    +0.000 C 
ENDROOT
BRANCH   1   2
ATOM      2  N   UNL     1       1.692   3.521  19.226  0.00  0.00    +0.000 NA
ATOM      3  C   UNL     1       1.212   4.160  20.479  0.00  0.00    +0.000 C 
ATOM      4  C   UNL     1       1.989   5.432  20.880  0.00  0.00    +0.000 C 
ATOM      5  N   UNL     1       1.988   6.391  19.768  0.00  0.00    +0.000 N 
ATOM      6  C   UNL     1       2.366   5.871  18.446  0.00  0.00    +0.000 C 
ATOM      7  C   UNL     1       1.615   4.547  18.152  0.00  0.00    +0.000 C 
BRANCH   5   8
ATOM      8  C   UNL     1       1.617   7.707  19.942  0.00  0.00    +0.000 A 
ATOM      9  C   UNL     1       1.125   8.178  21.167  0.00  0.00    +0.000 A 
ATOM     10  C   UNL     1       0.760   9.517  21.347  0.00  0.00    +0.000 A 
ATOM     11  C   UNL     1       0.883  10.429  20.298  0.00  0.00    +0.000 A 
ATOM     12  C   UNL     1       0.500  11.868  20.463  0.00  0.00    +0.000 C 
ATOM     13  C   UNL     1       1.371   9.979  19.072  0.00  0.00    +0.000 A 
ATOM     14  C   UNL     1       1.731   8.641  18.905  0.00  0.00    +0.000 A 
ENDBRANCH   5   8
ENDBRANCH   1   2
BRANCH   1  15
ATOM     15  C   UNL     1       3.685   2.442  18.051  0.00  0.00    +0.000 C 
BRANCH  15  16
ATOM     16  O   UNL     1       4.158   1.115  18.329  0.00  0.00    +0.000 OA
ATOM     17  H   UNL     1       3.386   0.528  18.392  0.00  0.00    +0.000 HD
ENDBRANCH  15  16
BRANCH  15  18
ATOM     18  C   UNL     1       4.805   3.353  17.531  0.00  0.00    +0.000 C 
BRANCH  18  19
ATOM     19  O   UNL     1       5.591   3.800  18.637  0.00  0.00    +0.000 OA
BRANCH  19  24
ATOM     20  C   UNL     1       8.125   8.763  17.594  0.00  0.00    +0.000 C 
ATOM     21  C   UNL     1       7.479   7.439  17.870  0.00  0.00    +0.000 A 
ATOM     22  C   UNL     1       6.336   7.034  17.174  0.00  0.00    +0.000 A 
ATOM     23  C   UNL     1       5.736   5.806  17.461  0.00  0.00    +0.000 A 
ATOM     24  C   UNL     1       6.276   4.965  18.430  0.00  0.00    +0.000 A 
ATOM     25  C   UNL     1       7.414   5.366  19.133  0.00  0.00    +0.000 A 
ATOM     26  C   UNL     1       8.011   6.597  18.853  0.00  0.00    +0.000 A 
ENDBRANCH  19  24
ENDBRANCH  18  19
ENDBRANCH  15  18
ENDBRANCH   1  15
TORSDOF 7
ENDMDL
MODEL 2
REMARK VINA RESULT:      -7.3      2.402      6.356
REMARK  Name = 
REMARK  9 active torsions:
REMARK  status: ('A' for Active; 'I' for Inactive)
REMARK    1  A    between atoms: C_1  and  C_2
REMARK    2  A    between atoms: C_5  and  O_6
REMARK    3  A    between atoms: O_6  and  C_7
REMARK    4  A    between atoms: C_7  and  C_8
REMARK    5  A    between atoms: C_8  and  O_9
REMARK    6  A    between atoms: C_8  and  C_10
REMARK    7  A    between atoms: C_10  and  N_11
REMARK    8  A    between atoms: N_14  and  C_15
REMARK    9  A    between atoms: C_18  and  C_19
REMARK                            x       y       z     vdW  Elec       q    Type
REMARK                         _______ _______ _______ _____ _____    ______ ____
ROOT
ATOM      1  C   UNL     1       1.923   2.958  19.877  0.00  0.00    +0.000 C 
ENDROOT
BRANCH   1   2
ATOM      2  N   UNL     1       2.852   2.025  19.211  0.00  0.00    +0.000 NA
ATOM      3  C   UNL     1       2.636   1.958  17.742  0.00  0.00    +0.000 C 
ATOM      4  C   UNL     1       2.921   3.280  16.999  0.00  0.00    +0.000 C 
ATOM      5  N   UNL     1       4.278   3.747  17.309  0.00  0.00    +0.000 N 
ATOM      6  C   UNL     1       4.657   3.785  18.729  0.00  0.00    +0.000 C 
ATOM      7  C   UNL     1       4.257   2.461  19.429  0.00  0.00    +0.000 C 
BRANCH   5   8
ATOM      8  C   UNL     1       5.172   4.099  16.319  0.00  0.00    +0.000 A 
ATOM      9  C   UNL     1       4.869   3.931  14.961  0.00  0.00    +0.000 A 
ATOM     10  C   UNL     1       5.771   4.300  13.956  0.00  0.00    +0.000 A 
ATOM     11  C   UNL     1       7.007   4.856  14.287  0.00  0.00    +0.000 A 
ATOM     12  C   UNL     1       7.992   5.260  13.232  0.00  0.00    +0.000 C 
ATOM     13  C   UNL     1       7.325   5.030  15.633  0.00  0.00    +0.000 A 
ATOM     14  C   UNL     1       6.418   4.657  16.625  0.00  0.00    +0.000 A 
ENDBRANCH   5   8
ENDBRANCH   1   2
BRANCH   1  15
ATOM     15  C   UNL     1       2.414   3.546  21.214  0.00  0.00    +0.000 C 
BRANCH  15  16
ATOM     16  O   UNL     1       1.748   2.850  22.278  0.00  0.00    +0.000 OA
ATOM     17  H   UNL     1       1.011   2.346  21.893  0.00  0.00    +0.000 HD
ENDBRANCH  15  16
BRANCH  15  18
ATOM     18  C   UNL     1       2.159   5.058  21.270  0.00  0.00    +0.000 C 
BRANCH  18  19
ATOM     19  O   UNL     1       2.605   5.650  20.048  0.00  0.00    +0.000 OA
BRANCH  19  24
ATOM     20  C   UNL     1       0.759  10.842  18.716  0.00  0.00    +0.000 C 
ATOM     21  C   UNL     1       1.256   9.479  19.092  0.00  0.00    +0.000 A 
ATOM     22  C   UNL     1       1.943   8.681  18.171  0.00  0.00    +0.000 A 
ATOM     23  C   UNL     1       2.379   7.406  18.533  0.00  0.00    +0.000 A 
ATOM     24  C   UNL     1       2.150   6.918  19.817  0.00  0.00    +0.000 A 
ATOM     25  C   UNL     1       1.458   7.707  20.739  0.00  0.00    +0.000 A 
ATOM     26  C   UNL     1       1.015   8.981  20.376  0.00  0.00    +0.000 A 
ENDBRANCH  19  24
ENDBRANCH  18  19
ENDBRANCH  15  18
ENDBRANCH   1  15
TORSDOF 7
ENDMDL
MODEL 3
REMARK VINA RESULT:      -7.2      2.369      6.351
REMARK  Name = 
REMARK  9 active torsions:
REMARK  status: ('A' for Active; 'I' for Inactive)
REMARK    1  A    between atoms: C_1  and  C_2
REMARK    2  A    between atoms: C_5  and  O_6
REMARK    3  A    between atoms: O_6  and  C_7
REMARK    4  A    between atoms: C_7  and  C_8
REMARK    5  A    between atoms: C_8  and  O_9
REMARK    6  A    between atoms: C_8  and  C_10
REMARK    7  A    between atoms: C_10  and  N_11
REMARK    8  A    between atoms: N_14  and  C_15
REMARK    9  A    between atoms: C_18  and  C_19
REMARK                            x       y       z     vdW  Elec       q    Type
REMARK                         _______ _______ _______ _____ _____    ______ ____
ROOT
ATOM      1  C   UNL     1       2.049   3.010  19.950  0.00  0.00    +0.000 C 
ENDROOT
BRANCH   1   2
ATOM      2  N   UNL     1       3.030   2.106  19.320  0.00  0.00    +0.000 NA
ATOM      3  C   UNL     1       2.809   1.958  17.857  0.00  0.00    +0.000 C 
ATOM      4  C   UNL     1       3.007   3.259  17.052  0.00  0.00    +0.000 C 
ATOM      5  N   UNL     1       4.334   3.822  17.327  0.00  0.00    +0.000 N 
ATOM      6  C   UNL     1       4.719   3.950  18.740  0.00  0.00    +0.000 C 
ATOM      7  C   UNL     1       4.407   2.637  19.504  0.00  0.00    +0.000 C 
BRANCH   5   8
ATOM      8  C   UNL     1       5.198   4.182  16.313  0.00  0.00    +0.000 A 
ATOM      9  C   UNL     1       6.399   4.854  16.574  0.00  0.00    +0.000 A 
ATOM     10  C   UNL     1       7.282   5.208  15.547  0.00  0.00    +0.000 A 
ATOM     11  C   UNL     1       6.985   4.891  14.221  0.00  0.00    +0.000 A 
ATOM     12  C   UNL     1       7.910   5.257  13.101  0.00  0.00    +0.000 C 
ATOM     13  C   UNL     1       5.793   4.221  13.943  0.00  0.00    +0.000 A 
ATOM     14  C   UNL     1       4.921   3.876  14.975  0.00  0.00    +0.000 A 
ENDBRANCH   5   8
ENDBRANCH   1   2
BRANCH   1  15
ATOM     15  C   UNL     1       2.513   3.692  21.252  0.00  0.00    +0.000 C 
BRANCH  15  16
ATOM     16  O   UNL     1       1.834   3.063  22.351  0.00  0.00    +0.000 OA
ATOM     17  H   UNL     1       1.009   2.677  22.012  0.00  0.00    +0.000 HD
ENDBRANCH  15  16
BRANCH  15  18
ATOM     18  C   UNL     1       2.246   5.201  21.201  0.00  0.00    +0.000 C 
BRANCH  18  19
ATOM     19  O   UNL     1       2.713   5.714  19.952  0.00  0.00    +0.000 OA
BRANCH  19  24
ATOM     20  C   UNL     1       0.706  10.920  18.946  0.00  0.00    +0.000 C 
ATOM     21  C   UNL     1       1.228   9.536  19.188  0.00  0.00    +0.000 A 
ATOM     22  C   UNL     1       1.036   8.896  20.416  0.00  0.00    +0.000 A 
ATOM     23  C   UNL     1       1.549   7.615  20.630  0.00  0.00    +0.000 A 
ATOM     24  C   UNL     1       2.242   6.953  19.620  0.00  0.00    +0.000 A 
ATOM     25  C   UNL     1       2.443   7.590  18.393  0.00  0.00    +0.000 A 
ATOM     26  C   UNL     1       1.937   8.874  18.180  0.00  0.00    +0.000 A 
ENDBRANCH  19  24
ENDBRANCH  18  19
ENDBRANCH  15  18
ENDBRANCH   1  15
TORSDOF 7
ENDMDL
MODEL 4
REMARK VINA RESULT:      -7.0      0.855      1.320
REMARK  Name = 
REMARK  9 active torsions:
REMARK  status: ('A' for Active; 'I' for Inactive)
REMARK    1  A    between atoms: C_1  and  C_2
REMARK    2  A    between atoms: C_5  and  O_6
REMARK    3  A    between atoms: O_6  and  C_7
REMARK    4  A    between atoms: C_7  and  C_8
REMARK    5  A    between atoms: C_8  and  O_9
REMARK    6  A    between atoms: C_8  and  C_10
REMARK    7  A    between atoms: C_10  and  N_11
REMARK    8  A    between atoms: N_14  and  C_15
REMARK    9  A    between atoms: C_18  and  C_19
REMARK                            x       y       z     vdW  Elec       q    Type
REMARK                         _______ _______ _______ _____ _____    ______ ____
ROOT
ATOM      1  C   UNL     1       3.509   4.057  18.794  0.00  0.00    +0.000 C 
ENDROOT
BRANCH   1   2
ATOM      2  N   UNL     1       2.093   4.449  18.649  0.00  0.00    +0.000 NA
ATOM      3  C   UNL     1       1.435   4.699  19.958  0.00  0.00    +0.000 C 
ATOM      4  C   UNL     1       2.020   5.891  20.743  0.00  0.00    +0.000 C 
ATOM      5  N   UNL     1       2.002   7.099  19.909  0.00  0.00    +0.000 N 
ATOM      6  C   UNL     1       2.550   6.972  18.551  0.00  0.00    +0.000 C 
ATOM      7  C   UNL     1       1.988   5.703  17.858  0.00  0.00    +0.000 C 
BRANCH   5   8
ATOM      8  C   UNL     1       1.464   8.287  20.357  0.00  0.00    +0.000 A 
ATOM      9  C   UNL     1       1.167   9.338  19.479  0.00  0.00    +0.000 A 
ATOM     10  C   UNL     1       0.609  10.539  19.932  0.00  0.00    +0.000 A 
ATOM     11  C   UNL     1       0.327  10.719  21.287  0.00  0.00    +0.000 A 
ATOM     12  C   UNL     1      -0.269  11.994  21.801  0.00  0.00    +0.000 C 
ATOM     13  C   UNL     1       0.616   9.684  22.175  0.00  0.00    +0.000 A 
ATOM     14  C   UNL     1       1.173   8.492  21.711  0.00  0.00    +0.000 A 
ENDBRANCH   5   8
ENDBRANCH   1   2
BRANCH   1  15
ATOM     15  C   UNL     1       4.090   3.223  17.636  0.00  0.00    +0.000 C 
BRANCH  15  16
ATOM     16  O   UNL     1       4.276   1.879  18.104  0.00  0.00    +0.000 OA
ATOM     17  H   UNL     1       3.797   1.283  17.503  0.00  0.00    +0.000 HD
ENDBRANCH  15  16
BRANCH  15  18
ATOM     18  C   UNL     1       5.399   3.839  17.126  0.00  0.00    +0.000 C 
BRANCH  18  19
ATOM     19  O   UNL     1       6.231   4.152  18.244  0.00  0.00    +0.000 OA
BRANCH  19  24
ATOM     20  C   UNL     1       8.358   9.396  17.887  0.00  0.00    +0.000 C 
ATOM     21  C   UNL     1       7.821   8.000  17.983  0.00  0.00    +0.000 A 
ATOM     22  C   UNL     1       6.767   7.574  17.169  0.00  0.00    +0.000 A 
ATOM     23  C   UNL     1       6.265   6.277  17.287  0.00  0.00    +0.000 A 
ATOM     24  C   UNL     1       6.818   5.387  18.204  0.00  0.00    +0.000 A 
ATOM     25  C   UNL     1       7.867   5.807  19.026  0.00  0.00    +0.000 A 
ATOM     26  C   UNL     1       8.365   7.108  18.913  0.00  0.00    +0.000 A 
ENDBRANCH  19  24
ENDBRANCH  18  19
ENDBRANCH  15  18
ENDBRANCH   1  15
TORSDOF 7
ENDMDL
MODEL 5
REMARK VINA RESULT:      -7.0      1.501      2.040
REMARK  Name = 
REMARK  9 active torsions:
REMARK  status: ('A' for Active; 'I' for Inactive)
REMARK    1  A    between atoms: C_1  and  C_2
REMARK    2  A    between atoms: C_5  and  O_6
REMARK    3  A    between atoms: O_6  and  C_7
REMARK    4  A    between atoms: C_7  and  C_8
REMARK    5  A    between atoms: C_8  and  O_9
REMARK    6  A    between atoms: C_8  and  C_10
REMARK    7  A    between atoms: C_10  and  N_11
REMARK    8  A    between atoms: N_14  and  C_15
REMARK    9  A    between atoms: C_18  and  C_19
REMARK                            x       y       z     vdW  Elec       q    Type
REMARK                         _______ _______ _______ _____ _____    ______ ____
ROOT
ATOM      1  C   UNL     1       3.349   4.866  17.562  0.00  0.00    +0.000 C 
ENDROOT
BRANCH   1   2
ATOM      2  N   UNL     1       4.045   5.819  18.448  0.00  0.00    +0.000 NA
ATOM      3  C   UNL     1       3.826   7.234  18.047  0.00  0.00    +0.000 C 
ATOM      4  C   UNL     1       2.360   7.704  18.157  0.00  0.00    +0.000 C 
ATOM      5  N   UNL     1       1.856   7.460  19.514  0.00  0.00    +0.000 N 
ATOM      6  C   UNL     1       2.079   6.118  20.071  0.00  0.00    +0.000 C 
ATOM      7  C   UNL     1       3.548   5.677  19.843  0.00  0.00    +0.000 C 
BRANCH   5   8
ATOM      8  C   UNL     1       1.235   8.448  20.249  0.00  0.00    +0.000 A 
ATOM      9  C   UNL     1       1.219   8.422  21.650  0.00  0.00    +0.000 A 
ATOM     10  C   UNL     1       0.600   9.432  22.397  0.00  0.00    +0.000 A 
ATOM     11  C   UNL     1      -0.020  10.504  21.755  0.00  0.00    +0.000 A 
ATOM     12  C   UNL     1      -0.690  11.598  22.528  0.00  0.00    +0.000 C 
ATOM     13  C   UNL     1      -0.014  10.546  20.361  0.00  0.00    +0.000 A 
ATOM     14  C   UNL     1       0.606   9.533  19.628  0.00  0.00    +0.000 A 
ENDBRANCH   5   8
ENDBRANCH   1   2
BRANCH   1  15
ATOM     15  C   UNL     1       4.218   3.724  17.001  0.00  0.00    +0.000 C 
BRANCH  15  16
ATOM     16  O   UNL     1       4.609   2.882  18.096  0.00  0.00    +0.000 OA
ATOM     17  H   UNL     1       5.082   2.115  17.730  0.00  0.00    +0.000 HD
ENDBRANCH  15  16
BRANCH  15  18
ATOM     18  C   UNL     1       5.431   4.284  16.246  0.00  0.00    +0.000 C 
BRANCH  18  19
ATOM     19  O   UNL     1       6.595   4.128  17.059  0.00  0.00    +0.000 OA
BRANCH  19  24
ATOM     20  C   UNL     1       8.672   9.147  18.684  0.00  0.00    +0.000 C 
ATOM     21  C   UNL     1       8.146   7.808  18.263  0.00  0.00    +0.000 A 
ATOM     22  C   UNL     1       7.481   7.644  17.044  0.00  0.00    +0.000 A 
ATOM     23  C   UNL     1       6.979   6.394  16.678  0.00  0.00    +0.000 A 
ATOM     24  C   UNL     1       7.147   5.293  17.514  0.00  0.00    +0.000 A 
ATOM     25  C   UNL     1       7.804   5.451  18.736  0.00  0.00    +0.000 A 
ATOM     26  C   UNL     1       8.301   6.703  19.106  0.00  0.00    +0.000 A 
ENDBRANCH  19  24
ENDBRANCH  18  19
ENDBRANCH  15  18
ENDBRANCH   1  15
TORSDOF 7
ENDMDL
MODEL 6
REMARK VINA RESULT:      -6.8      0.930      1.029
REMARK  Name = 
REMARK  9 active torsions:
REMARK  status: ('A' for Active; 'I' for Inactive)
REMARK    1  A    between atoms: C_1  and  C_2
REMARK    2  A    between atoms: C_5  and  O_6
REMARK    3  A    between atoms: O_6  and  C_7
REMARK    4  A    between atoms: C_7  and  C_8
REMARK    5  A    between atoms: C_8  and  O_9
REMARK    6  A    between atoms: C_8  and  C_10
REMARK    7  A    between atoms: C_10  and  N_11
REMARK    8  A    between atoms: N_14  and  C_15
REMARK    9  A    between atoms: C_18  and  C_19
REMARK                            x       y       z     vdW  Elec       q    Type
REMARK                         _______ _______ _______ _____ _____    ______ ____
ROOT
ATOM      1  C   UNL     1       3.584   3.072  19.136  0.00  0.00    +0.000 C 
ENDROOT
BRANCH   1   2
ATOM      2  N   UNL     1       2.216   3.490  19.498  0.00  0.00    +0.000 NA
ATOM      3  C   UNL     1       2.192   4.407  20.667  0.00  0.00    +0.000 C 
ATOM      4  C   UNL     1       2.889   5.762  20.425  0.00  0.00    +0.000 C 
ATOM      5  N   UNL     1       2.321   6.413  19.237  0.00  0.00    +0.000 N 
ATOM      6  C   UNL     1       2.209   5.591  18.024  0.00  0.00    +0.000 C 
ATOM      7  C   UNL     1       1.585   4.212  18.361  0.00  0.00    +0.000 C 
BRANCH   5   8
ATOM      8  C   UNL     1       1.879   7.719  19.263  0.00  0.00    +0.000 A 
ATOM      9  C   UNL     1       1.364   8.298  20.430  0.00  0.00    +0.000 A 
ATOM     10  C   UNL     1       0.927   9.628  20.460  0.00  0.00    +0.000 A 
ATOM     11  C   UNL     1       0.999  10.420  19.313  0.00  0.00    +0.000 A 
ATOM     12  C   UNL     1       0.539  11.845  19.315  0.00  0.00    +0.000 C 
ATOM     13  C   UNL     1       1.510   9.860  18.142  0.00  0.00    +0.000 A 
ATOM     14  C   UNL     1       1.941   8.533  18.126  0.00  0.00    +0.000 A 
ENDBRANCH   5   8
ENDBRANCH   1   2
BRANCH   1  15
ATOM     15  C   UNL     1       3.699   2.192  17.877  0.00  0.00    +0.000 C 
BRANCH  15  16
ATOM     16  O   UNL     1       3.793   0.822  18.297  0.00  0.00    +0.000 OA
ATOM     17  H   UNL     1       3.064   0.647  18.916  0.00  0.00    +0.000 HD
ENDBRANCH  15  16
BRANCH  15  18
ATOM     18  C   UNL     1       4.904   2.614  17.026  0.00  0.00    +0.000 C 
BRANCH  18  19
ATOM     19  O   UNL     1       4.661   3.917  16.492  0.00  0.00    +0.000 OA
BRANCH  19  24
ATOM     20  C   UNL     1       8.117   8.161  17.974  0.00  0.00    +0.000 C 
ATOM     21  C   UNL     1       7.225   7.024  17.576  0.00  0.00    +0.000 A 
ATOM     22  C   UNL     1       6.083   7.239  16.797  0.00  0.00    +0.000 A 
ATOM     23  C   UNL     1       5.253   6.171  16.455  0.00  0.00    +0.000 A 
ATOM     24  C   UNL     1       5.558   4.877  16.870  0.00  0.00    +0.000 A 
ATOM     25  C   UNL     1       6.692   4.656  17.655  0.00  0.00    +0.000 A 
ATOM     26  C   UNL     1       7.520   5.725  18.004  0.00  0.00    +0.000 A 
ENDBRANCH  19  24
ENDBRANCH  18  19
ENDBRANCH  15  18
ENDBRANCH   1  15
TORSDOF 7
ENDMDL
MODEL 7
REMARK VINA RESULT:      -6.7      1.010      1.457
REMARK  Name = 
REMARK  9 active torsions:
REMARK  status: ('A' for Active; 'I' for Inactive)
REMARK    1  A    between atoms: C_1  and  C_2
REMARK    2  A    between atoms: C_5  and  O_6
REMARK    3  A    between atoms: O_6  and  C_7
REMARK    4  A    between atoms: C_7  and  C_8
REMARK    5  A    between atoms: C_8  and  O_9
REMARK    6  A    between atoms: C_8  and  C_10
REMARK    7  A    between atoms: C_10  and  N_11
REMARK    8  A    between atoms: N_14  and  C_15
REMARK    9  A    between atoms: C_18  and  C_19
REMARK                            x       y       z     vdW  Elec       q    Type
REMARK                         _______ _______ _______ _____ _____    ______ ____
ROOT
ATOM      1  C   UNL     1       3.285   2.867  19.649  0.00  0.00    +0.000 C 
ENDROOT
BRANCH   1   2
ATOM      2  N   UNL     1       1.994   3.443  20.073  0.00  0.00    +0.000 NA
ATOM      3  C   UNL     1       2.157   4.523  21.082  0.00  0.00    +0.000 C 
ATOM      4  C   UNL     1       2.909   5.766  20.564  0.00  0.00    +0.000 C 
ATOM      5  N   UNL     1       2.259   6.276  19.350  0.00  0.00    +0.000 N 
ATOM      6  C   UNL     1       1.962   5.296  18.297  0.00  0.00    +0.000 C 
ATOM      7  C   UNL     1       1.291   4.037  18.904  0.00  0.00    +0.000 C 
BRANCH   5   8
ATOM      8  C   UNL     1       1.908   7.603  19.215  0.00  0.00    +0.000 A 
ATOM      9  C   UNL     1       1.336   8.324  20.271  0.00  0.00    +0.000 A 
ATOM     10  C   UNL     1       0.991   9.675  20.139  0.00  0.00    +0.000 A 
ATOM     11  C   UNL     1       1.216  10.344  18.935  0.00  0.00    +0.000 A 
ATOM     12  C   UNL     1       0.856  11.789  18.764  0.00  0.00    +0.000 C 
ATOM     13  C   UNL     1       1.784   9.642  17.873  0.00  0.00    +0.000 A 
ATOM     14  C   UNL     1       2.122   8.297  18.018  0.00  0.00    +0.000 A 
ENDBRANCH   5   8
ENDBRANCH   1   2
BRANCH   1  15
ATOM     15  C   UNL     1       3.334   2.337  18.203  0.00  0.00    +0.000 C 
BRANCH  15  16
ATOM     16  O   UNL     1       3.155   0.912  18.244  0.00  0.00    +0.000 OA
ATOM     17  H   UNL     1       3.316   0.616  19.156  0.00  0.00    +0.000 HD
ENDBRANCH  15  16
BRANCH  15  18
ATOM     18  C   UNL     1       4.652   2.729  17.524  0.00  0.00    +0.000 C 
BRANCH  18  19
ATOM     19  O   UNL     1       4.439   3.907  16.743  0.00  0.00    +0.000 OA
BRANCH  19  24
ATOM     20  C   UNL     1       8.149   7.998  18.022  0.00  0.00    +0.000 C 
ATOM     21  C   UNL     1       7.148   6.933  17.692  0.00  0.00    +0.000 A 
ATOM     22  C   UNL     1       7.362   5.601  18.062  0.00  0.00    +0.000 A 
ATOM     23  C   UNL     1       6.428   4.619  17.726  0.00  0.00    +0.000 A 
ATOM     24  C   UNL     1       5.267   4.955  17.033  0.00  0.00    +0.000 A 
ATOM     25  C   UNL     1       5.052   6.282  16.654  0.00  0.00    +0.000 A 
ATOM     26  C   UNL     1       5.988   7.264  16.984  0.00  0.00    +0.000 A 
ENDBRANCH  19  24
ENDBRANCH  18  19
ENDBRANCH  15  18
ENDBRANCH   1  15
TORSDOF 7
ENDMDL
MODEL 8
REMARK VINA RESULT:      -6.7      2.432      6.554
REMARK  Name = 
REMARK  9 active torsions:
REMARK  status: ('A' for Active; 'I' for Inactive)
REMARK    1  A    between atoms: C_1  and  C_2
REMARK    2  A    between atoms: C_5  and  O_6
REMARK    3  A    between atoms: O_6  and  C_7
REMARK    4  A    between atoms: C_7  and  C_8
REMARK    5  A    between atoms: C_8  and  O_9
REMARK    6  A    between atoms: C_8  and  C_10
REMARK    7  A    between atoms: C_10  and  N_11
REMARK    8  A    between atoms: N_14  and  C_15
REMARK    9  A    between atoms: C_18  and  C_19
REMARK                            x       y       z     vdW  Elec       q    Type
REMARK                         _______ _______ _______ _____ _____    ______ ____
ROOT
ATOM      1  C   UNL     1       2.078   2.903  19.865  0.00  0.00    +0.000 C 
ENDROOT
BRANCH   1   2
ATOM      2  N   UNL     1       3.251   2.128  19.417  0.00  0.00    +0.000 NA
ATOM      3  C   UNL     1       3.177   1.766  17.977  0.00  0.00    +0.000 C 
ATOM      4  C   UNL     1       3.205   2.973  17.018  0.00  0.00    +0.000 C 
ATOM      5  N   UNL     1       4.385   3.803  17.289  0.00  0.00    +0.000 N 
ATOM      6  C   UNL     1       4.627   4.169  18.692  0.00  0.00    +0.000 C 
ATOM      7  C   UNL     1       4.493   2.924  19.606  0.00  0.00    +0.000 C 
BRANCH   5   8
ATOM      8  C   UNL     1       5.249   4.192  16.287  0.00  0.00    +0.000 A 
ATOM      9  C   UNL     1       6.323   5.057  16.536  0.00  0.00    +0.000 A 
ATOM     10  C   UNL     1       7.208   5.441  15.521  0.00  0.00    +0.000 A 
ATOM     11  C   UNL     1       7.041   4.962  14.221  0.00  0.00    +0.000 A 
ATOM     12  C   UNL     1       7.972   5.356  13.116  0.00  0.00    +0.000 C 
ATOM     13  C   UNL     1       5.978   4.099  13.956  0.00  0.00    +0.000 A 
ATOM     14  C   UNL     1       5.103   3.725  14.975  0.00  0.00    +0.000 A 
ENDBRANCH   5   8
ENDBRANCH   1   2
BRANCH   1  15
ATOM     15  C   UNL     1       2.357   3.966  20.945  0.00  0.00    +0.000 C 
BRANCH  15  16
ATOM     16  O   UNL     1       2.159   3.359  22.231  0.00  0.00    +0.000 OA
ATOM     17  H   UNL     1       1.474   3.865  22.700  0.00  0.00    +0.000 HD
ENDBRANCH  15  16
BRANCH  15  18
ATOM     18  C   UNL     1       1.457   5.193  20.746  0.00  0.00    +0.000 C 
BRANCH  18  19
ATOM     19  O   UNL     1       2.180   6.366  21.124  0.00  0.00    +0.000 OA
BRANCH  19  24
ATOM     20  C   UNL     1       0.345  11.081  18.565  0.00  0.00    +0.000 C 
ATOM     21  C   UNL     1       0.835   9.848  19.264  0.00  0.00    +0.000 A 
ATOM     22  C   UNL     1       1.702   8.954  18.629  0.00  0.00    +0.000 A 
ATOM     23  C   UNL     1       2.130   7.800  19.289  0.00  0.00    +0.000 A 
ATOM     24  C   UNL     1       1.712   7.534  20.590  0.00  0.00    +0.000 A 
ATOM     25  C   UNL     1       0.840   8.419  21.227  0.00  0.00    +0.000 A 
ATOM     26  C   UNL     1       0.405   9.570  20.566  0.00  0.00    +0.000 A 
ENDBRANCH  19  24
ENDBRANCH  18  19
ENDBRANCH  15  18
ENDBRANCH   1  15
TORSDOF 7
ENDMDL
MODEL 9
REMARK VINA RESULT:      -6.7      1.274      1.848
REMARK  Name = 
REMARK  9 active torsions:
REMARK  status: ('A' for Active; 'I' for Inactive)
REMARK    1  A    between atoms: C_1  and  C_2
REMARK    2  A    between atoms: C_5  and  O_6
REMARK    3  A    between atoms: O_6  and  C_7
REMARK    4  A    between atoms: C_7  and  C_8
REMARK    5  A    between atoms: C_8  and  O_9
REMARK    6  A    between atoms: C_8  and  C_10
REMARK    7  A    between atoms: C_10  and  N_11
REMARK    8  A    between atoms: N_14  and  C_15
REMARK    9  A    between atoms: C_18  and  C_19
REMARK                            x       y       z     vdW  Elec       q    Type
REMARK                         _______ _______ _______ _____ _____    ______ ____
ROOT
ATOM      1  C   UNL     1       3.995   4.961  18.662  0.00  0.00    +0.000 C 
ENDROOT
BRANCH   1   2
ATOM      2  N   UNL     1       2.531   5.092  18.530  0.00  0.00    +0.000 NA
ATOM      3  C   UNL     1       1.835   5.029  19.842  0.00  0.00    +0.000 C 
ATOM      4  C   UNL     1       2.176   6.192  20.797  0.00  0.00    +0.000 C 
ATOM      5  N   UNL     1       1.927   7.477  20.132  0.00  0.00    +0.000 N 
ATOM      6  C   UNL     1       2.493   7.645  18.785  0.00  0.00    +0.000 C 
ATOM      7  C   UNL     1       2.188   6.400  17.913  0.00  0.00    +0.000 C 
BRANCH   5   8
ATOM      8  C   UNL     1       1.170   8.467  20.720  0.00  0.00    +0.000 A 
ATOM      9  C   UNL     1       0.880   8.455  22.091  0.00  0.00    +0.000 A 
ATOM     10  C   UNL     1       0.121   9.468  22.692  0.00  0.00    +0.000 A 
ATOM     11  C   UNL     1      -0.366  10.530  21.929  0.00  0.00    +0.000 A 
ATOM     12  C   UNL     1      -1.180  11.627  22.544  0.00  0.00    +0.000 C 
ATOM     13  C   UNL     1      -0.086  10.559  20.563  0.00  0.00    +0.000 A 
ATOM     14  C   UNL     1       0.669   9.543  19.977  0.00  0.00    +0.000 A 
ENDBRANCH   5   8
ENDBRANCH   1   2
BRANCH   1  15
ATOM     15  C   UNL     1       4.593   3.636  18.152  0.00  0.00    +0.000 C 
BRANCH  15  16
ATOM     16  O   UNL     1       4.974   2.850  19.293  0.00  0.00    +0.000 OA
ATOM     17  H   UNL     1       5.922   2.995  19.454  0.00  0.00    +0.000 HD
ENDBRANCH  15  16
BRANCH  15  18
ATOM     18  C   UNL     1       5.780   3.899  17.216  0.00  0.00    +0.000 C 
BRANCH  18  19
ATOM     19  O   UNL     1       6.923   4.244  18.001  0.00  0.00    +0.000 OA
BRANCH  19  24
ATOM     20  C   UNL     1       8.602   9.656  18.177  0.00  0.00    +0.000 C 
ATOM     21  C   UNL     1       8.133   8.233  18.123  0.00  0.00    +0.000 A 
ATOM     22  C   UNL     1       8.448   7.330  19.142  0.00  0.00    +0.000 A 
ATOM     23  C   UNL     1       8.021   6.003  19.063  0.00  0.00    +0.000 A 
ATOM     24  C   UNL     1       7.265   5.567  17.978  0.00  0.00    +0.000 A 
ATOM     25  C   UNL     1       6.954   6.463  16.952  0.00  0.00    +0.000 A 
ATOM     26  C   UNL     1       7.386   7.789  17.027  0.00  0.00    +0.000 A 
ENDBRANCH  19  24
ENDBRANCH  18  19
ENDBRANCH  15  18
ENDBRANCH   1  15
TORSDOF 7
ENDMDL
