MODEL 1
REMARK VINA RESULT:      -7.7      0.000      0.000
REMARK  Name = 
REMARK  5 active torsions:
REMARK  status: ('A' for Active; 'I' for Inactive)
REMARK    1  A    between atoms: C_1  and  O_2
REMARK    2  A    between atoms: O_2  and  C_3
REMARK    3  A    between atoms: C_15  and  O_16
REMARK    4  A    between atoms: C_17  and  O_18
REMARK    5  A    between atoms: O_18  and  C_19
REMARK                            x       y       z     vdW  Elec       q    Type
REMARK                         _______ _______ _______ _____ _____    ______ ____
ROOT
ATOM      1  C   UNL     1       5.430   6.617  16.695  0.00  0.00    +0.000 C 
ATOM      2  C   UNL     1       4.066   6.559  17.423  0.00  0.00    +0.000 C 
ATOM      3  O   UNL     1       3.449   7.570  17.754  0.00  0.00    +0.000 OA
ATOM      4  C   UNL     1       3.630   5.225  17.777  0.00  0.00    +0.000 A 
ATOM      5  C   UNL     1       4.213   4.128  17.179  0.00  0.00    +0.000 A 
ATOM      6  O   UNL     1       3.707   2.975  17.678  0.00  0.00    +0.000 OA
ATOM      7  C   UNL     1       2.822   3.337  18.654  0.00  0.00    +0.000 A 
ATOM      8  C   UNL     1       2.140   2.456  19.488  0.00  0.00    +0.000 A 
ATOM      9  C   UNL     1       1.313   3.030  20.458  0.00  0.00    +0.000 A 
ATOM     10  C   UNL     1       1.162   4.416  20.555  0.00  0.00    +0.000 A 
ATOM     11  C   UNL     1       1.850   5.280  19.691  0.00  0.00    +0.000 A 
ATOM     12  C   UNL     1       2.714   4.724  18.731  0.00  0.00    +0.000 A 
ATOM     13  C   UNL     1       5.283   4.103  16.154  0.00  0.00    +0.000 C 
ATOM     14  C   UNL     1       5.452   5.541  15.564  0.00  0.00    +0.000 C 
ENDROOT
BRANCH   1  16
ATOM     15  C   UNL     1       7.481   7.430  17.608  0.00  0.00    +0.000 C 
ATOM     16  O   UNL     1       6.533   6.368  17.587  0.00  0.00    +0.000 OA
ENDBRANCH   1  16
BRANCH  13  17
ATOM     17  O   UNL     1       6.474   3.655  16.798  0.00  0.00    +0.000 OA
ATOM     18  H   UNL     1       7.118   3.453  16.089  0.00  0.00    +0.000 HD
ENDBRANCH  13  17
BRANCH  14  19
ATOM     19  O   UNL     1       6.685   5.700  14.834  0.00  0.00    +0.000 OA
ATOM     20  C   UNL     1       6.870   4.757  13.787  0.00  0.00    +0.000 C 
ENDBRANCH  14  19
TORSDOF 3
ENDMDL
MODEL 2
REMARK VINA RESULT:      -6.9      1.077      1.108
REMARK  Name = 
REMARK  5 active torsions:
REMARK  status: ('A' for Active; 'I' for Inactive)
REMARK    1  A    between atoms: C_1  and  O_2
REMARK    2  A    between atoms: O_2  and  C_3
REMARK    3  A    between atoms: C_15  and  O_16
REMARK    4  A    between atoms: C_17  and  O_18
REMARK    5  A    between atoms: O_18  and  C_19
REMARK                            x       y       z     vdW  Elec       q    Type
REMARK                         _______ _______ _______ _____ _____    ______ ____
ROOT
ATOM      1  C   UNL     1       6.169   6.408  16.418  0.00  0.00    +0.000 C 
ATOM      2  C   UNL     1       4.763   6.567  17.045  0.00  0.00    +0.000 C 
ATOM      3  O   UNL     1       4.093   7.590  16.918  0.00  0.00    +0.000 OA
ATOM      4  C   UNL     1       4.349   5.459  17.878  0.00  0.00    +0.000 A 
ATOM      5  C   UNL     1       5.005   4.250  17.794  0.00  0.00    +0.000 A 
ATOM      6  O   UNL     1       4.506   3.360  18.686  0.00  0.00    +0.000 OA
ATOM      7  C   UNL     1       3.548   4.028  19.395  0.00  0.00    +0.000 A 
ATOM      8  C   UNL     1       2.842   3.511  20.477  0.00  0.00    +0.000 A 
ATOM      9  C   UNL     1       1.935   4.375  21.100  0.00  0.00    +0.000 A 
ATOM     10  C   UNL     1       1.734   5.676  20.631  0.00  0.00    +0.000 A 
ATOM     11  C   UNL     1       2.447   6.165  19.528  0.00  0.00    +0.000 A 
ATOM     12  C   UNL     1       3.390   5.325  18.909  0.00  0.00    +0.000 A 
ATOM     13  C   UNL     1       6.139   3.881  16.914  0.00  0.00    +0.000 C 
ATOM     14  C   UNL     1       6.300   4.976  15.810  0.00  0.00    +0.000 C 
ENDROOT
BRANCH   1  16
ATOM     15  C   UNL     1       7.568   7.961  17.572  0.00  0.00    +0.000 C 
ATOM     16  O   UNL     1       7.219   6.593  17.386  0.00  0.00    +0.000 OA
ENDBRANCH   1  16
BRANCH  13  17
ATOM     17  O   UNL     1       7.300   3.791  17.738  0.00  0.00    +0.000 OA
ATOM     18  H   UNL     1       7.191   4.451  18.452  0.00  0.00    +0.000 HD
ENDBRANCH  13  17
BRANCH  14  19
ATOM     19  O   UNL     1       7.572   4.903  15.136  0.00  0.00    +0.000 OA
ATOM     20  C   UNL     1       7.485   4.939  13.718  0.00  0.00    +0.000 C 
ENDBRANCH  14  19
TORSDOF 3
ENDMDL
MODEL 3
REMARK VINA RESULT:      -6.8      2.093      5.575
REMARK  Name = 
REMARK  5 active torsions:
REMARK  status: ('A' for Active; 'I' for Inactive)
REMARK    1  A    between atoms: C_1  and  O_2
REMARK    2  A    between atoms: O_2  and  C_3
REMARK    3  A    between atoms: C_15  and  O_16
REMARK    4  A    between atoms: C_17  and  O_18
REMARK    5  A    between atoms: O_18  and  C_19
REMARK                            x       y       z     vdW  Elec       q    Type
REMARK                         _______ _______ _______ _____ _____    ______ ____
ROOT
ATOM      1  C   UNL     1       2.893   3.198  19.451  0.00  0.00    +0.000 C 
ATOM      2  C   UNL     1       4.425   3.402  19.380  0.00  0.00    +0.000 C 
ATOM      3  O   UNL     1       5.214   2.719  20.031  0.00  0.00    +0.000 OA
ATOM      4  C   UNL     1       4.844   4.526  18.572  0.00  0.00    +0.000 A 
ATOM      5  C   UNL     1       3.965   5.098  17.678  0.00  0.00    +0.000 A 
ATOM      6  O   UNL     1       4.526   6.164  17.057  0.00  0.00    +0.000 OA
ATOM      7  C   UNL     1       5.769   6.314  17.603  0.00  0.00    +0.000 A 
ATOM      8  C   UNL     1       6.655   7.347  17.314  0.00  0.00    +0.000 A 
ATOM      9  C   UNL     1       7.864   7.347  18.018  0.00  0.00    +0.000 A 
ATOM     10  C   UNL     1       8.168   6.339  18.937  0.00  0.00    +0.000 A 
ATOM     11  C   UNL     1       7.263   5.300  19.196  0.00  0.00    +0.000 A 
ATOM     12  C   UNL     1       6.027   5.301  18.525  0.00  0.00    +0.000 A 
ATOM     13  C   UNL     1       2.565   4.706  17.389  0.00  0.00    +0.000 C 
ATOM     14  C   UNL     1       2.296   3.297  18.012  0.00  0.00    +0.000 C 
ENDROOT
BRANCH   1  16
ATOM     15  C   UNL     1       2.159   3.783  21.646  0.00  0.00    +0.000 C 
ATOM     16  O   UNL     1       2.252   4.183  20.283  0.00  0.00    +0.000 OA
ENDBRANCH   1  16
BRANCH  13  17
ATOM     17  O   UNL     1       1.722   5.704  17.961  0.00  0.00    +0.000 OA
ATOM     18  H   UNL     1       2.285   6.487  18.127  0.00  0.00    +0.000 HD
ENDBRANCH  13  17
BRANCH  14  19
ATOM     19  O   UNL     1       0.891   2.989  18.100  0.00  0.00    +0.000 OA
ATOM     20  C   UNL     1       0.589   1.871  18.923  0.00  0.00    +0.000 C 
ENDBRANCH  14  19
TORSDOF 3
ENDMDL
MODEL 4
REMARK VINA RESULT:      -6.7      1.865      5.438
REMARK  Name = 
REMARK  5 active torsions:
REMARK  status: ('A' for Active; 'I' for Inactive)
REMARK    1  A    between atoms: C_1  and  O_2
REMARK    2  A    between atoms: O_2  and  C_3
REMARK    3  A    between atoms: C_15  and  O_16
REMARK    4  A    between atoms: C_17  and  O_18
REMARK    5  A    between atoms: O_18  and  C_19
REMARK                            x       y       z     vdW  Elec       q    Type
REMARK                         _______ _______ _______ _____ _____    ______ ____
ROOT
ATOM      1  C   UNL     1       3.237   4.925  19.808  0.00  0.00    +0.000 C 
ATOM      2  C   UNL     1       4.656   4.960  19.193  0.00  0.00    +0.000 C 
ATOM      3  O   UNL     1       5.620   5.448  19.781  0.00  0.00    +0.000 OA
ATOM      4  C   UNL     1       4.734   4.473  17.833  0.00  0.00    +0.000 A 
ATOM      5  C   UNL     1       3.705   3.720  17.310  0.00  0.00    +0.000 A 
ATOM      6  O   UNL     1       3.940   3.405  16.014  0.00  0.00    +0.000 OA
ATOM      7  C   UNL     1       5.117   4.014  15.681  0.00  0.00    +0.000 A 
ATOM      8  C   UNL     1       5.686   4.023  14.411  0.00  0.00    +0.000 A 
ATOM      9  C   UNL     1       6.874   4.746  14.266  0.00  0.00    +0.000 A 
ATOM     10  C   UNL     1       7.467   5.394  15.353  0.00  0.00    +0.000 A 
ATOM     11  C   UNL     1       6.879   5.354  16.626  0.00  0.00    +0.000 A 
ATOM     12  C   UNL     1       5.666   4.662  16.786  0.00  0.00    +0.000 A 
ATOM     13  C   UNL     1       2.450   3.294  17.975  0.00  0.00    +0.000 C 
ATOM     14  C   UNL     1       2.586   3.536  19.514  0.00  0.00    +0.000 C 
ENDROOT
BRANCH   1  16
ATOM     15  C   UNL     1       2.123   7.000  20.197  0.00  0.00    +0.000 C 
ATOM     16  O   UNL     1       2.385   5.953  19.268  0.00  0.00    +0.000 OA
ENDBRANCH   1  16
BRANCH  13  17
ATOM     17  O   UNL     1       1.392   4.067  17.413  0.00  0.00    +0.000 OA
ATOM     18  H   UNL     1       0.563   3.758  17.833  0.00  0.00    +0.000 HD
ENDBRANCH  13  17
BRANCH  14  19
ATOM     19  O   UNL     1       1.318   3.495  20.197  0.00  0.00    +0.000 OA
ATOM     20  C   UNL     1       1.349   2.822  21.448  0.00  0.00    +0.000 C 
ENDBRANCH  14  19
TORSDOF 3
ENDMDL
MODEL 5
REMARK VINA RESULT:      -6.4      1.814      5.815
REMARK  Name = 
REMARK  5 active torsions:
REMARK  status: ('A' for Active; 'I' for Inactive)
REMARK    1  A    between atoms: C_1  and  O_2
REMARK    2  A    between atoms: O_2  and  C_3
REMARK    3  A    between atoms: C_15  and  O_16
REMARK    4  A    between atoms: C_17  and  O_18
REMARK    5  A    between atoms: O_18  and  C_19
REMARK                            x       y       z     vdW  Elec       q    Type
REMARK                         _______ _______ _______ _____ _____    ______ ____
ROOT
ATOM      1  C   UNL     1       2.916   2.683  19.619  0.00  0.00    +0.000 C 
ATOM      2  C   UNL     1       3.454   2.519  18.178  0.00  0.00    +0.000 C 
ATOM      3  O   UNL     1       3.605   1.419  17.649  0.00  0.00    +0.000 OA
ATOM      4  C   UNL     1       3.865   3.754  17.546  0.00  0.00    +0.000 A 
ATOM      5  C   UNL     1       3.454   4.963  18.064  0.00  0.00    +0.000 A 
ATOM      6  O   UNL     1       3.983   5.998  17.367  0.00  0.00    +0.000 OA
ATOM      7  C   UNL     1       4.792   5.443  16.416  0.00  0.00    +0.000 A 
ATOM      8  C   UNL     1       5.602   6.154  15.536  0.00  0.00    +0.000 A 
ATOM      9  C   UNL     1       6.394   5.396  14.668  0.00  0.00    +0.000 A 
ATOM     10  C   UNL     1       6.344   4.000  14.672  0.00  0.00    +0.000 A 
ATOM     11  C   UNL     1       5.506   3.310  15.560  0.00  0.00    +0.000 A 
ATOM     12  C   UNL     1       4.727   4.052  16.465  0.00  0.00    +0.000 A 
ATOM     13  C   UNL     1       2.591   5.210  19.244  0.00  0.00    +0.000 C 
ATOM     14  C   UNL     1       1.901   3.869  19.655  0.00  0.00    +0.000 C 
ENDROOT
BRANCH   1  16
ATOM     15  C   UNL     1       4.829   1.836  20.771  0.00  0.00    +0.000 C 
ATOM     16  O   UNL     1       3.969   2.952  20.565  0.00  0.00    +0.000 OA
ENDBRANCH   1  16
BRANCH  13  17
ATOM     17  O   UNL     1       3.429   5.711  20.283  0.00  0.00    +0.000 OA
ATOM     18  H   UNL     1       4.169   5.078  20.378  0.00  0.00    +0.000 HD
ENDBRANCH  13  17
BRANCH  14  19
ATOM     19  O   UNL     1       1.335   3.919  20.980  0.00  0.00    +0.000 OA
ATOM     20  C   UNL     1       1.250   2.657  21.627  0.00  0.00    +0.000 C 
ENDBRANCH  14  19
TORSDOF 3
ENDMDL
MODEL 6
REMARK VINA RESULT:      -6.3      1.908      3.053
REMARK  Name = 
REMARK  5 active torsions:
REMARK  status: ('A' for Active; 'I' for Inactive)
REMARK    1  A    between atoms: C_1  and  O_2
REMARK    2  A    between atoms: O_2  and  C_3
REMARK    3  A    between atoms: C_15  and  O_16
REMARK    4  A    between atoms: C_17  and  O_18
REMARK    5  A    between atoms: O_18  and  C_19
REMARK                            x       y       z     vdW  Elec       q    Type
REMARK                         _______ _______ _______ _____ _____    ______ ____
ROOT
ATOM      1  C   UNL     1       7.205   6.335  18.208  0.00  0.00    +0.000 C 
ATOM      2  C   UNL     1       6.307   5.473  19.127  0.00  0.00    +0.000 C 
ATOM      3  O   UNL     1       6.735   4.912  20.134  0.00  0.00    +0.000 OA
ATOM      4  C   UNL     1       4.954   5.292  18.646  0.00  0.00    +0.000 A 
ATOM      5  C   UNL     1       4.454   6.123  17.667  0.00  0.00    +0.000 A 
ATOM      6  O   UNL     1       3.195   5.763  17.317  0.00  0.00    +0.000 OA
ATOM      7  C   UNL     1       2.902   4.645  18.046  0.00  0.00    +0.000 A 
ATOM      8  C   UNL     1       1.737   3.892  17.930  0.00  0.00    +0.000 A 
ATOM      9  C   UNL     1       1.649   2.752  18.735  0.00  0.00    +0.000 A 
ATOM     10  C   UNL     1       2.669   2.414  19.628  0.00  0.00    +0.000 A 
ATOM     11  C   UNL     1       3.825   3.201  19.736  0.00  0.00    +0.000 A 
ATOM     12  C   UNL     1       3.949   4.332  18.911  0.00  0.00    +0.000 A 
ATOM     13  C   UNL     1       5.130   7.256  16.992  0.00  0.00    +0.000 C 
ATOM     14  C   UNL     1       6.424   7.621  17.790  0.00  0.00    +0.000 C 
ENDROOT
BRANCH   1  16
ATOM     15  C   UNL     1       7.709   4.224  17.214  0.00  0.00    +0.000 C 
ATOM     16  O   UNL     1       7.599   5.629  17.017  0.00  0.00    +0.000 OA
ENDBRANCH   1  16
BRANCH  13  17
ATOM     17  O   UNL     1       5.432   6.836  15.663  0.00  0.00    +0.000 OA
ATOM     18  H   UNL     1       6.349   6.493  15.678  0.00  0.00    +0.000 HD
ENDBRANCH  13  17
BRANCH  14  19
ATOM     19  O   UNL     1       7.327   8.453  17.034  0.00  0.00    +0.000 OA
ATOM     20  C   UNL     1       8.197   9.245  17.831  0.00  0.00    +0.000 C 
ENDBRANCH  14  19
TORSDOF 3
ENDMDL
MODEL 7
REMARK VINA RESULT:      -6.2      1.524      2.140
REMARK  Name = 
REMARK  5 active torsions:
REMARK  status: ('A' for Active; 'I' for Inactive)
REMARK    1  A    between atoms: C_1  and  O_2
REMARK    2  A    between atoms: O_2  and  C_3
REMARK    3  A    between atoms: C_15  and  O_16
REMARK    4  A    between atoms: C_17  and  O_18
REMARK    5  A    between atoms: O_18  and  C_19
REMARK                            x       y       z     vdW  Elec       q    Type
REMARK                         _______ _______ _______ _____ _____    ______ ____
ROOT
ATOM      1  C   UNL     1       5.526   5.845  16.271  0.00  0.00    +0.000 C 
ATOM      2  C   UNL     1       4.336   6.705  16.759  0.00  0.00    +0.000 C 
ATOM      3  O   UNL     1       4.098   7.823  16.306  0.00  0.00    +0.000 OA
ATOM      4  C   UNL     1       3.594   6.133  17.862  0.00  0.00    +0.000 A 
ATOM      5  C   UNL     1       3.733   4.796  18.166  0.00  0.00    +0.000 A 
ATOM      6  O   UNL     1       3.000   4.465  19.257  0.00  0.00    +0.000 OA
ATOM      7  C   UNL     1       2.422   5.624  19.694  0.00  0.00    +0.000 A 
ATOM      8  C   UNL     1       1.654   5.753  20.847  0.00  0.00    +0.000 A 
ATOM      9  C   UNL     1       1.192   7.039  21.146  0.00  0.00    +0.000 A 
ATOM     10  C   UNL     1       1.466   8.122  20.307  0.00  0.00    +0.000 A 
ATOM     11  C   UNL     1       2.229   7.959  19.142  0.00  0.00    +0.000 A 
ATOM     12  C   UNL     1       2.734   6.681  18.841  0.00  0.00    +0.000 A 
ATOM     13  C   UNL     1       4.575   3.783  17.487  0.00  0.00    +0.000 C 
ATOM     14  C   UNL     1       5.059   4.363  16.118  0.00  0.00    +0.000 C 
ENDROOT
BRANCH   1  16
ATOM     15  C   UNL     1       7.190   7.186  17.336  0.00  0.00    +0.000 C 
ATOM     16  O   UNL     1       6.635   5.883  17.189  0.00  0.00    +0.000 OA
ENDBRANCH   1  16
BRANCH  13  17
ATOM     17  O   UNL     1       5.671   3.495  18.353  0.00  0.00    +0.000 OA
ATOM     18  H   UNL     1       5.535   2.586  18.687  0.00  0.00    +0.000 HD
ENDBRANCH  13  17
BRANCH  14  19
ATOM     19  O   UNL     1       6.154   3.616  15.554  0.00  0.00    +0.000 OA
ATOM     20  C   UNL     1       6.447   3.938  14.201  0.00  0.00    +0.000 C 
ENDBRANCH  14  19
TORSDOF 3
ENDMDL
MODEL 8
REMARK VINA RESULT:      -6.1      1.716      5.690
REMARK  Name = 
REMARK  5 active torsions:
REMARK  status: ('A' for Active; 'I' for Inactive)
REMARK    1  A    between atoms: C_1  and  O_2
REMARK    2  A    between atoms: O_2  and  C_3
REMARK    3  A    between atoms: C_15  and  O_16
REMARK    4  A    between atoms: C_17  and  O_18
REMARK    5  A    between atoms: O_18  and  C_19
REMARK                            x       y       z     vdW  Elec       q    Type
REMARK                         _______ _______ _______ _____ _____    ______ ____
ROOT
ATOM      1  C   UNL     1       3.090   3.588  18.643  0.00  0.00    +0.000 C 
ATOM      2  C   UNL     1       3.270   3.720  17.113  0.00  0.00    +0.000 C 
ATOM      3  O   UNL     1       2.481   3.228  16.308  0.00  0.00    +0.000 OA
ATOM      4  C   UNL     1       4.495   4.374  16.706  0.00  0.00    +0.000 A 
ATOM      5  C   UNL     1       5.214   5.118  17.617  0.00  0.00    +0.000 A 
ATOM      6  O   UNL     1       6.351   5.604  17.061  0.00  0.00    +0.000 OA
ATOM      7  C   UNL     1       6.389   5.118  15.785  0.00  0.00    +0.000 A 
ATOM      8  C   UNL     1       7.436   5.301  14.887  0.00  0.00    +0.000 A 
ATOM      9  C   UNL     1       7.304   4.680  13.641  0.00  0.00    +0.000 A 
ATOM     10  C   UNL     1       6.162   3.943  13.315  0.00  0.00    +0.000 A 
ATOM     11  C   UNL     1       5.115   3.789  14.234  0.00  0.00    +0.000 A 
ATOM     12  C   UNL     1       5.243   4.376  15.506  0.00  0.00    +0.000 A 
ATOM     13  C   UNL     1       4.900   5.376  19.042  0.00  0.00    +0.000 C 
ATOM     14  C   UNL     1       3.419   4.958  19.318  0.00  0.00    +0.000 C 
ENDROOT
BRANCH   1  16
ATOM     15  C   UNL     1       3.652   1.270  18.738  0.00  0.00    +0.000 C 
ATOM     16  O   UNL     1       3.950   2.581  19.207  0.00  0.00    +0.000 OA
ENDBRANCH   1  16
BRANCH  13  17
ATOM     17  O   UNL     1       5.817   4.611  19.822  0.00  0.00    +0.000 OA
ATOM     18  H   UNL     1       6.417   5.250  20.257  0.00  0.00    +0.000 HD
ENDBRANCH  13  17
BRANCH  14  19
ATOM     19  O   UNL     1       3.130   4.832  20.724  0.00  0.00    +0.000 OA
ATOM     20  C   UNL     1       1.767   4.558  21.018  0.00  0.00    +0.000 C 
ENDBRANCH  14  19
TORSDOF 3
ENDMDL
MODEL 9
REMARK VINA RESULT:      -6.0      1.992      5.712
REMARK  Name = 
REMARK  5 active torsions:
REMARK  status: ('A' for Active; 'I' for Inactive)
REMARK    1  A    between atoms: C_1  and  O_2
REMARK    2  A    between atoms: O_2  and  C_3
REMARK    3  A    between atoms: C_15  and  O_16
REMARK    4  A    between atoms: C_17  and  O_18
REMARK    5  A    between atoms: O_18  and  C_19
REMARK                            x       y       z     vdW  Elec       q    Type
REMARK                         _______ _______ _______ _____ _____    ______ ____
ROOT
ATOM      1  C   UNL     1       2.245   3.535  19.556  0.00  0.00    +0.000 C 
ATOM      2  C   UNL     1       2.750   4.596  18.550  0.00  0.00    +0.000 C 
ATOM      3  O   UNL     1       1.994   5.381  17.980  0.00  0.00    +0.000 OA
ATOM      4  C   UNL     1       4.165   4.519  18.255  0.00  0.00    +0.000 A 
ATOM      5  C   UNL     1       5.004   3.807  19.085  0.00  0.00    +0.000 A 
ATOM      6  O   UNL     1       6.275   3.811  18.615  0.00  0.00    +0.000 OA
ATOM      7  C   UNL     1       6.241   4.493  17.431  0.00  0.00    +0.000 A 
ATOM      8  C   UNL     1       7.319   4.657  16.567  0.00  0.00    +0.000 A 
ATOM      9  C   UNL     1       7.065   5.349  15.378  0.00  0.00    +0.000 A 
ATOM     10  C   UNL     1       5.800   5.871  15.099  0.00  0.00    +0.000 A 
ATOM     11  C   UNL     1       4.735   5.704  15.996  0.00  0.00    +0.000 A 
ATOM     12  C   UNL     1       4.960   4.981  17.181  0.00  0.00    +0.000 A 
ATOM     13  C   UNL     1       4.659   3.066  20.322  0.00  0.00    +0.000 C 
ATOM     14  C   UNL     1       3.220   3.478  20.774  0.00  0.00    +0.000 C 
ENDROOT
BRANCH   1  16
ATOM     15  C   UNL     1       0.854   1.879  18.544  0.00  0.00    +0.000 C 
ATOM     16  O   UNL     1       2.169   2.223  18.968  0.00  0.00    +0.000 OA
ENDBRANCH   1  16
BRANCH  13  17
ATOM     17  O   UNL     1       4.736   1.675  20.015  0.00  0.00    +0.000 OA
ATOM     18  H   UNL     1       5.288   1.594  19.211  0.00  0.00    +0.000 HD
ENDBRANCH  13  17
BRANCH  14  19
ATOM     19  O   UNL     1       2.659   2.567  21.740  0.00  0.00    +0.000 OA
ATOM     20  C   UNL     1       1.280   2.778  22.010  0.00  0.00    +0.000 C 
ENDBRANCH  14  19
TORSDOF 3
ENDMDL
