MODEL 1
REMARK VINA RESULT:      -6.4      0.000      0.000
REMARK  Name = 
REMARK  2 active torsions:
REMARK  status: ('A' for Active; 'I' for Inactive)
REMARK    1  A    between atoms: C_2  and  C_3
REMARK    2  A    between atoms: C_9  and  N_10
REMARK                            x       y       z     vdW  Elec       q    Type
REMARK                         _______ _______ _______ _____ _____    ______ ____
ROOT
ATOM      1  O   UNL     1       5.202   5.769  18.420  0.00  0.00    +0.000 OA
ATOM      2  C   UNL     1       4.704   5.022  17.572  0.00  0.00    +0.000 C 
ATOM      3  N   UNL     1       3.337   4.835  17.504  0.00  0.00    +0.000 N 
ATOM      4  C   UNL     1       2.336   5.411  18.392  0.00  0.00    +0.000 C 
ATOM      5  C   UNL     1       1.699   4.015  18.510  0.00  0.00    +0.000 C 
ATOM      6  C   UNL     1       2.650   3.558  17.384  0.00  0.00    +0.000 C 
ENDROOT
BRANCH   5   7
ATOM      7  N   UNL     1       1.959   3.364  19.766  0.00  0.00    +0.000 N 
ATOM      8  C   UNL     1       3.129   2.828  20.225  0.00  0.00    +0.000 A 
ATOM      9  C   UNL     1       2.853   2.437  21.514  0.00  0.00    +0.000 A 
ATOM     10  N   UNL     1       1.540   2.681  21.830  0.00  0.00    +0.000 NA
ATOM     11  C   UNL     1       1.026   3.241  20.756  0.00  0.00    +0.000 A 
ENDBRANCH   5   7
BRANCH   2  12
ATOM     12  C   UNL     1       5.513   4.280  16.469  0.00  0.00    +0.000 C 
ATOM     13  C   UNL     1       5.382   4.845  15.024  0.00  0.00    +0.000 C 
ATOM     14  C   UNL     1       6.851   4.447  14.804  0.00  0.00    +0.000 C 
ATOM     15  C   UNL     1       7.034   4.549  16.333  0.00  0.00    +0.000 C 
ENDBRANCH   2  12
TORSDOF 2
ENDMDL
MODEL 2
REMARK VINA RESULT:      -6.4      1.994      5.817
REMARK  Name = 
REMARK  2 active torsions:
REMARK  status: ('A' for Active; 'I' for Inactive)
REMARK    1  A    between atoms: C_2  and  C_3
REMARK    2  A    between atoms: C_9  and  N_10
REMARK                            x       y       z     vdW  Elec       q    Type
REMARK                         _______ _______ _______ _____ _____    ______ ____
ROOT
ATOM      1  O   UNL     1       1.861   4.326  17.630  0.00  0.00    +0.000 OA
ATOM      2  C   UNL     1       2.598   4.419  18.617  0.00  0.00    +0.000 C 
ATOM      3  N   UNL     1       3.511   5.449  18.725  0.00  0.00    +0.000 N 
ATOM      4  C   UNL     1       3.768   6.491  17.740  0.00  0.00    +0.000 C 
ATOM      5  C   UNL     1       5.275   6.226  17.917  0.00  0.00    +0.000 C 
ATOM      6  C   UNL     1       4.909   5.320  19.111  0.00  0.00    +0.000 C 
ENDROOT
BRANCH   5   7
ATOM      7  N   UNL     1       5.869   5.506  16.823  0.00  0.00    +0.000 N 
ATOM      8  C   UNL     1       5.253   4.903  15.763  0.00  0.00    +0.000 A 
ATOM      9  C   UNL     1       6.283   4.460  14.966  0.00  0.00    +0.000 A 
ATOM     10  N   UNL     1       7.499   4.740  15.537  0.00  0.00    +0.000 NA
ATOM     11  C   UNL     1       7.218   5.372  16.656  0.00  0.00    +0.000 A 
ENDBRANCH   5   7
BRANCH   2  12
ATOM     12  C   UNL     1       2.545   3.470  19.848  0.00  0.00    +0.000 C 
ATOM     13  C   UNL     1       2.097   4.112  21.193  0.00  0.00    +0.000 C 
ATOM     14  C   UNL     1       1.421   2.774  21.534  0.00  0.00    +0.000 C 
ATOM     15  C   UNL     1       1.339   2.510  20.015  0.00  0.00    +0.000 C 
ENDBRANCH   2  12
TORSDOF 2
ENDMDL
MODEL 3
REMARK VINA RESULT:      -6.3      1.554      2.027
REMARK  Name = 
REMARK  2 active torsions:
REMARK  status: ('A' for Active; 'I' for Inactive)
REMARK    1  A    between atoms: C_2  and  C_3
REMARK    2  A    between atoms: C_9  and  N_10
REMARK                            x       y       z     vdW  Elec       q    Type
REMARK                         _______ _______ _______ _____ _____    ______ ____
ROOT
ATOM      1  O   UNL     1       3.388   6.443  17.894  0.00  0.00    +0.000 OA
ATOM      2  C   UNL     1       4.115   5.485  17.608  0.00  0.00    +0.000 C 
ATOM      3  N   UNL     1       3.578   4.237  17.360  0.00  0.00    +0.000 N 
ATOM      4  C   UNL     1       2.173   3.863  17.439  0.00  0.00    +0.000 C 
ATOM      5  C   UNL     1       2.592   2.622  18.249  0.00  0.00    +0.000 C 
ATOM      6  C   UNL     1       4.054   2.974  17.905  0.00  0.00    +0.000 C 
ENDROOT
BRANCH   5   7
ATOM      7  N   UNL     1       2.302   2.723  19.654  0.00  0.00    +0.000 N 
ATOM      8  C   UNL     1       1.095   2.906  20.266  0.00  0.00    +0.000 A 
ATOM      9  C   UNL     1       1.368   2.819  21.611  0.00  0.00    +0.000 A 
ATOM     10  N   UNL     1       2.710   2.634  21.828  0.00  0.00    +0.000 NA
ATOM     11  C   UNL     1       3.248   2.579  20.629  0.00  0.00    +0.000 A 
ENDBRANCH   5   7
BRANCH   2  12
ATOM     12  C   UNL     1       5.657   5.574  17.426  0.00  0.00    +0.000 C 
ATOM     13  C   UNL     1       6.238   6.992  17.158  0.00  0.00    +0.000 C 
ATOM     14  C   UNL     1       7.477   6.568  17.965  0.00  0.00    +0.000 C 
ATOM     15  C   UNL     1       6.572   5.539  18.677  0.00  0.00    +0.000 C 
ENDBRANCH   2  12
TORSDOF 2
ENDMDL
MODEL 4
REMARK VINA RESULT:      -6.2      2.372      5.704
REMARK  Name = 
REMARK  2 active torsions:
REMARK  status: ('A' for Active; 'I' for Inactive)
REMARK    1  A    between atoms: C_2  and  C_3
REMARK    2  A    between atoms: C_9  and  N_10
REMARK                            x       y       z     vdW  Elec       q    Type
REMARK                         _______ _______ _______ _____ _____    ______ ____
ROOT
ATOM      1  O   UNL     1       4.952   2.612  19.548  0.00  0.00    +0.000 OA
ATOM      2  C   UNL     1       4.056   3.406  19.245  0.00  0.00    +0.000 C 
ATOM      3  N   UNL     1       4.080   4.074  18.037  0.00  0.00    +0.000 N 
ATOM      4  C   UNL     1       5.117   3.993  17.018  0.00  0.00    +0.000 C 
ATOM      5  C   UNL     1       5.101   5.530  16.938  0.00  0.00    +0.000 C 
ATOM      6  C   UNL     1       3.848   5.497  17.838  0.00  0.00    +0.000 C 
ENDROOT
BRANCH   5   7
ATOM      7  N   UNL     1       6.232   6.156  17.569  0.00  0.00    +0.000 N 
ATOM      8  C   UNL     1       7.042   5.662  18.552  0.00  0.00    +0.000 A 
ATOM      9  C   UNL     1       8.023   6.613  18.708  0.00  0.00    +0.000 A 
ATOM     10  N   UNL     1       7.801   7.685  17.879  0.00  0.00    +0.000 NA
ATOM     11  C   UNL     1       6.715   7.380  17.204  0.00  0.00    +0.000 A 
ENDBRANCH   5   7
BRANCH   2  12
ATOM     12  C   UNL     1       2.799   3.691  20.116  0.00  0.00    +0.000 C 
ATOM     13  C   UNL     1       1.475   3.014  19.656  0.00  0.00    +0.000 C 
ATOM     14  C   UNL     1       1.102   2.879  21.142  0.00  0.00    +0.000 C 
ATOM     15  C   UNL     1       2.614   2.927  21.453  0.00  0.00    +0.000 C 
ENDBRANCH   2  12
TORSDOF 2
ENDMDL
MODEL 5
REMARK VINA RESULT:      -6.1      2.418      5.529
REMARK  Name = 
REMARK  2 active torsions:
REMARK  status: ('A' for Active; 'I' for Inactive)
REMARK    1  A    between atoms: C_2  and  C_3
REMARK    2  A    between atoms: C_9  and  N_10
REMARK                            x       y       z     vdW  Elec       q    Type
REMARK                         _______ _______ _______ _____ _____    ______ ____
ROOT
ATOM      1  O   UNL     1       4.092   2.618  18.426  0.00  0.00    +0.000 OA
ATOM      2  C   UNL     1       3.446   3.637  18.165  0.00  0.00    +0.000 C 
ATOM      3  N   UNL     1       3.862   4.508  17.177  0.00  0.00    +0.000 N 
ATOM      4  C   UNL     1       5.072   4.397  16.373  0.00  0.00    +0.000 C 
ATOM      5  C   UNL     1       5.350   5.883  16.663  0.00  0.00    +0.000 C 
ATOM      6  C   UNL     1       3.940   5.957  17.286  0.00  0.00    +0.000 C 
ENDROOT
BRANCH   5   7
ATOM      7  N   UNL     1       6.401   6.100  17.620  0.00  0.00    +0.000 N 
ATOM      8  C   UNL     1       6.787   5.303  18.660  0.00  0.00    +0.000 A 
ATOM      9  C   UNL     1       7.900   5.922  19.181  0.00  0.00    +0.000 A 
ATOM     10  N   UNL     1       8.167   7.091  18.513  0.00  0.00    +0.000 NA
ATOM     11  C   UNL     1       7.248   7.172  17.577  0.00  0.00    +0.000 A 
ENDBRANCH   5   7
BRANCH   2  12
ATOM     12  C   UNL     1       2.096   4.020  18.836  0.00  0.00    +0.000 C 
ATOM     13  C   UNL     1       1.201   2.837  19.308  0.00  0.00    +0.000 C 
ATOM     14  C   UNL     1       0.760   3.723  20.485  0.00  0.00    +0.000 C 
ATOM     15  C   UNL     1       2.090   4.489  20.314  0.00  0.00    +0.000 C 
ENDBRANCH   2  12
TORSDOF 2
ENDMDL
MODEL 6
REMARK VINA RESULT:      -6.1      3.679      4.581
REMARK  Name = 
REMARK  2 active torsions:
REMARK  status: ('A' for Active; 'I' for Inactive)
REMARK    1  A    between atoms: C_2  and  C_3
REMARK    2  A    between atoms: C_9  and  N_10
REMARK                            x       y       z     vdW  Elec       q    Type
REMARK                         _______ _______ _______ _____ _____    ______ ____
ROOT
ATOM      1  O   UNL     1       7.430   5.617  13.896  0.00  0.00    +0.000 OA
ATOM      2  C   UNL     1       6.439   4.912  14.113  0.00  0.00    +0.000 C 
ATOM      3  N   UNL     1       5.436   5.340  14.960  0.00  0.00    +0.000 N 
ATOM      4  C   UNL     1       5.410   6.583  15.720  0.00  0.00    +0.000 C 
ATOM      5  C   UNL     1       4.989   5.769  16.957  0.00  0.00    +0.000 C 
ATOM      6  C   UNL     1       4.813   4.558  16.017  0.00  0.00    +0.000 C 
ENDROOT
BRANCH   5   7
ATOM      7  N   UNL     1       6.042   5.589  17.919  0.00  0.00    +0.000 N 
ATOM      8  C   UNL     1       7.372   5.874  17.792  0.00  0.00    +0.000 A 
ATOM      9  C   UNL     1       7.906   5.616  19.033  0.00  0.00    +0.000 A 
ATOM     10  N   UNL     1       6.944   5.142  19.890  0.00  0.00    +0.000 NA
ATOM     11  C   UNL     1       5.830   5.137  19.190  0.00  0.00    +0.000 A 
ENDBRANCH   5   7
BRANCH   2  12
ATOM     12  C   UNL     1       6.168   3.540  13.432  0.00  0.00    +0.000 C 
ATOM     13  C   UNL     1       4.866   3.438  12.586  0.00  0.00    +0.000 C 
ATOM     14  C   UNL     1       5.632   2.499  11.638  0.00  0.00    +0.000 C 
ATOM     15  C   UNL     1       6.929   3.175  12.132  0.00  0.00    +0.000 C 
ENDBRANCH   2  12
TORSDOF 2
ENDMDL
MODEL 7
REMARK VINA RESULT:      -6.1      1.042      1.163
REMARK  Name = 
REMARK  2 active torsions:
REMARK  status: ('A' for Active; 'I' for Inactive)
REMARK    1  A    between atoms: C_2  and  C_3
REMARK    2  A    between atoms: C_9  and  N_10
REMARK                            x       y       z     vdW  Elec       q    Type
REMARK                         _______ _______ _______ _____ _____    ______ ____
ROOT
ATOM      1  O   UNL     1       5.787   5.476  19.247  0.00  0.00    +0.000 OA
ATOM      2  C   UNL     1       5.112   5.199  18.250  0.00  0.00    +0.000 C 
ATOM      3  N   UNL     1       3.785   5.573  18.165  0.00  0.00    +0.000 N 
ATOM      4  C   UNL     1       3.009   6.263  19.186  0.00  0.00    +0.000 C 
ATOM      5  C   UNL     1       1.886   5.232  18.969  0.00  0.00    +0.000 C 
ATOM      6  C   UNL     1       2.679   4.725  17.747  0.00  0.00    +0.000 C 
ENDROOT
BRANCH   5   7
ATOM      7  N   UNL     1       1.784   4.257  20.021  0.00  0.00    +0.000 N 
ATOM      8  C   UNL     1       1.189   3.027  19.990  0.00  0.00    +0.000 A 
ATOM      9  C   UNL     1       1.474   2.470  21.215  0.00  0.00    +0.000 A 
ATOM     10  N   UNL     1       2.184   3.345  21.998  0.00  0.00    +0.000 NA
ATOM     11  C   UNL     1       2.356   4.414  21.251  0.00  0.00    +0.000 A 
ENDBRANCH   5   7
BRANCH   2  12
ATOM     12  C   UNL     1       5.664   4.486  16.982  0.00  0.00    +0.000 C 
ATOM     13  C   UNL     1       5.523   5.262  15.640  0.00  0.00    +0.000 C 
ATOM     14  C   UNL     1       6.863   4.640  15.213  0.00  0.00    +0.000 C 
ATOM     15  C   UNL     1       7.191   4.491  16.714  0.00  0.00    +0.000 C 
ENDBRANCH   2  12
TORSDOF 2
ENDMDL
MODEL 8
REMARK VINA RESULT:      -6.0      1.000      1.023
REMARK  Name = 
REMARK  2 active torsions:
REMARK  status: ('A' for Active; 'I' for Inactive)
REMARK    1  A    between atoms: C_2  and  C_3
REMARK    2  A    between atoms: C_9  and  N_10
REMARK                            x       y       z     vdW  Elec       q    Type
REMARK                         _______ _______ _______ _____ _____    ______ ____
ROOT
ATOM      1  O   UNL     1       3.998   6.043  17.404  0.00  0.00    +0.000 OA
ATOM      2  C   UNL     1       4.040   4.869  17.025  0.00  0.00    +0.000 C 
ATOM      3  N   UNL     1       2.926   4.056  17.107  0.00  0.00    +0.000 N 
ATOM      4  C   UNL     1       1.627   4.415  17.660  0.00  0.00    +0.000 C 
ATOM      5  C   UNL     1       1.643   3.089  18.444  0.00  0.00    +0.000 C 
ATOM      6  C   UNL     1       2.891   2.697  17.625  0.00  0.00    +0.000 C 
ENDROOT
BRANCH   5   7
ATOM      7  N   UNL     1       1.916   3.248  19.847  0.00  0.00    +0.000 N 
ATOM      8  C   UNL     1       2.426   4.335  20.499  0.00  0.00    +0.000 A 
ATOM      9  C   UNL     1       2.380   3.996  21.832  0.00  0.00    +0.000 A 
ATOM     10  N   UNL     1       1.899   2.722  21.997  0.00  0.00    +0.000 NA
ATOM     11  C   UNL     1       1.627   2.296  20.782  0.00  0.00    +0.000 A 
ENDBRANCH   5   7
BRANCH   2  12
ATOM     12  C   UNL     1       5.280   4.200  16.364  0.00  0.00    +0.000 C 
ATOM     13  C   UNL     1       5.553   4.573  14.878  0.00  0.00    +0.000 C 
ATOM     14  C   UNL     1       7.054   4.465  15.194  0.00  0.00    +0.000 C 
ATOM     15  C   UNL     1       6.694   4.760  16.666  0.00  0.00    +0.000 C 
ENDBRANCH   2  12
TORSDOF 2
ENDMDL
MODEL 9
REMARK VINA RESULT:      -6.0      2.102      5.347
REMARK  Name = 
REMARK  2 active torsions:
REMARK  status: ('A' for Active; 'I' for Inactive)
REMARK    1  A    between atoms: C_2  and  C_3
REMARK    2  A    between atoms: C_9  and  N_10
REMARK                            x       y       z     vdW  Elec       q    Type
REMARK                         _______ _______ _______ _____ _____    ______ ____
ROOT
ATOM      1  O   UNL     1       2.307   3.242  16.987  0.00  0.00    +0.000 OA
ATOM      2  C   UNL     1       2.241   3.692  18.136  0.00  0.00    +0.000 C 
ATOM      3  N   UNL     1       2.711   4.956  18.431  0.00  0.00    +0.000 N 
ATOM      4  C   UNL     1       3.360   5.880  17.510  0.00  0.00    +0.000 C 
ATOM      5  C   UNL     1       4.445   6.116  18.578  0.00  0.00    +0.000 C 
ATOM      6  C   UNL     1       3.561   5.316  19.557  0.00  0.00    +0.000 C 
ENDROOT
BRANCH   5   7
ATOM      7  N   UNL     1       5.695   5.467  18.287  0.00  0.00    +0.000 N 
ATOM      8  C   UNL     1       6.083   4.839  17.138  0.00  0.00    +0.000 A 
ATOM      9  C   UNL     1       7.398   4.496  17.354  0.00  0.00    +0.000 A 
ATOM     10  N   UNL     1       7.797   4.859  18.616  0.00  0.00    +0.000 NA
ATOM     11  C   UNL     1       6.749   5.444  19.155  0.00  0.00    +0.000 A 
ENDBRANCH   5   7
BRANCH   2  12
ATOM     12  C   UNL     1       1.581   2.952  19.335  0.00  0.00    +0.000 C 
ATOM     13  C   UNL     1       2.545   2.448  20.447  0.00  0.00    +0.000 C 
ATOM     14  C   UNL     1       1.432   2.755  21.463  0.00  0.00    +0.000 C 
ATOM     15  C   UNL     1       0.885   3.780  20.446  0.00  0.00    +0.000 C 
ENDBRANCH   2  12
TORSDOF 2
ENDMDL
