MODEL 1
REMARK VINA RESULT:      -7.3      0.000      0.000
REMARK  Name = 
REMARK  6 active torsions:
REMARK  status: ('A' for Active; 'I' for Inactive)
REMARK    1  A    between atoms: N_1  and  C_2
REMARK    2  A    between atoms: C_3  and  C_4
REMARK    3  A    between atoms: C_6  and  O_7
REMARK    4  A    between atoms: N_18  and  C_19
REMARK    5  A    between atoms: C_19  and  C_20
REMARK    6  A    between atoms: C_20  and  O_21
REMARK                            x       y       z     vdW  Elec       q    Type
REMARK                         _______ _______ _______ _____ _____    ______ ____
ROOT
ATOM      1  C   UNL     1       3.404   3.139  18.103  0.00  0.00    +0.000 C 
ATOM      2  C   UNL     1       3.730   4.337  17.561  0.00  0.00    +0.000 C 
ATOM      3  C   UNL     1       2.804   5.308  18.192  0.00  0.00    +0.000 C 
ATOM      4  O   UNL     1       2.803   6.518  18.011  0.00  0.00    +0.000 OA
ATOM      5  C   UNL     1       1.834   4.576  19.103  0.00  0.00    +0.000 C 
ATOM      6  N   UNL     1       2.354   3.214  19.002  0.00  0.00    +0.000 N 
ENDROOT
BRANCH   2   7
ATOM      7  C   UNL     1       4.745   4.646  16.574  0.00  0.00    +0.000 A 
ATOM      8  N   UNL     1       5.733   5.485  16.913  0.00  0.00    +0.000 NA
ATOM      9  C   UNL     1       6.667   5.671  15.980  0.00  0.00    +0.000 A 
ATOM     10  C   UNL     1       6.692   5.078  14.725  0.00  0.00    +0.000 A 
ATOM     11  C   UNL     1       7.702   5.262  13.755  0.00  0.00    +0.000 A 
ATOM     12  C   UNL     1       7.621   4.608  12.530  0.00  0.00    +0.000 A 
ATOM     13  C   UNL     1       6.528   3.790  12.263  0.00  0.00    +0.000 A 
ATOM     14  C   UNL     1       5.533   3.622  13.232  0.00  0.00    +0.000 A 
ATOM     15  C   UNL     1       5.605   4.241  14.472  0.00  0.00    +0.000 A 
ATOM     16  N   UNL     1       4.645   4.017  15.380  0.00  0.00    +0.000 NA
BRANCH   9  17
ATOM     17  O   UNL     1       7.646   6.530  16.374  0.00  0.00    +0.000 OA
ATOM     18  H   UNL     1       8.191   5.933  16.920  0.00  0.00    +0.000 HD
ENDBRANCH   9  17
ENDBRANCH   2   7
BRANCH   1  19
ATOM     19  N   UNL     1       4.012   1.945  17.817  0.00  0.00    +0.000 N 
ATOM     20  H   UNL     1       3.576   1.174  18.329  0.00  0.00    +0.000 HD
ATOM     21  H   UNL     1       5.008   1.986  18.010  0.00  0.00    +0.000 HD
ENDBRANCH   1  19
BRANCH   6  22
ATOM     22  C   UNL     1       1.960   2.216  19.992  0.00  0.00    +0.000 C 
BRANCH  22  23
ATOM     23  C   UNL     1       1.402   2.855  21.271  0.00  0.00    +0.000 C 
BRANCH  23  24
ATOM     24  O   UNL     1       2.423   3.026  22.252  0.00  0.00    +0.000 OA
ATOM     25  H   UNL     1       2.200   3.856  22.711  0.00  0.00    +0.000 HD
ENDBRANCH  23  24
ENDBRANCH  22  23
ENDBRANCH   6  22
TORSDOF 6
ENDMDL
MODEL 2
REMARK VINA RESULT:      -7.2      3.398      7.230
REMARK  Name = 
REMARK  6 active torsions:
REMARK  status: ('A' for Active; 'I' for Inactive)
REMARK    1  A    between atoms: N_1  and  C_2
REMARK    2  A    between atoms: C_3  and  C_4
REMARK    3  A    between atoms: C_6  and  O_7
REMARK    4  A    between atoms: N_18  and  C_19
REMARK    5  A    between atoms: C_19  and  C_20
REMARK    6  A    between atoms: C_20  and  O_21
REMARK                            x       y       z     vdW  Elec       q    Type
REMARK                         _______ _______ _______ _____ _____    ______ ____
ROOT
ATOM      1  C   UNL     1       4.706   5.964  17.303  0.00  0.00    +0.000 C 
ATOM      2  C   UNL     1       3.466   6.036  17.844  0.00  0.00    +0.000 C 
ATOM      3  C   UNL     1       2.922   4.661  17.742  0.00  0.00    +0.000 C 
ATOM      4  O   UNL     1       1.838   4.286  18.166  0.00  0.00    +0.000 OA
ATOM      5  C   UNL     1       3.914   3.768  17.016  0.00  0.00    +0.000 C 
ATOM      6  N   UNL     1       5.026   4.700  16.840  0.00  0.00    +0.000 N 
ENDROOT
BRANCH   2   7
ATOM      7  C   UNL     1       2.779   7.185  18.402  0.00  0.00    +0.000 A 
ATOM      8  N   UNL     1       2.617   8.269  17.633  0.00  0.00    +0.000 NA
ATOM      9  C   UNL     1       1.918   9.261  18.187  0.00  0.00    +0.000 A 
ATOM     10  C   UNL     1       1.363   9.252  19.460  0.00  0.00    +0.000 A 
ATOM     11  C   UNL     1       0.602  10.298  20.025  0.00  0.00    +0.000 A 
ATOM     12  C   UNL     1       0.092  10.172  21.313  0.00  0.00    +0.000 A 
ATOM     13  C   UNL     1       0.355   9.018  22.043  0.00  0.00    +0.000 A 
ATOM     14  C   UNL     1       1.115   7.992  21.471  0.00  0.00    +0.000 A 
ATOM     15  C   UNL     1       1.612   8.082  20.178  0.00  0.00    +0.000 A 
ATOM     16  N   UNL     1       2.302   7.056  19.662  0.00  0.00    +0.000 NA
BRANCH   9  17
ATOM     17  O   UNL     1       1.782  10.337  17.366  0.00  0.00    +0.000 OA
ATOM     18  H   UNL     1       1.652   9.886  16.511  0.00  0.00    +0.000 HD
ENDBRANCH   9  17
ENDBRANCH   2   7
BRANCH   1  19
ATOM     19  N   UNL     1       5.586   7.008  17.193  0.00  0.00    +0.000 N 
ATOM     20  H   UNL     1       5.545   7.618  18.013  0.00  0.00    +0.000 HD
ATOM     21  H   UNL     1       5.420   7.538  16.343  0.00  0.00    +0.000 HD
ENDBRANCH   1  19
BRANCH   6  22
ATOM     22  C   UNL     1       6.351   4.186  16.506  0.00  0.00    +0.000 C 
BRANCH  22  23
ATOM     23  C   UNL     1       6.726   4.451  15.042  0.00  0.00    +0.000 C 
BRANCH  23  24
ATOM     24  O   UNL     1       7.649   5.532  14.930  0.00  0.00    +0.000 OA
ATOM     25  H   UNL     1       7.396   6.002  14.116  0.00  0.00    +0.000 HD
ENDBRANCH  23  24
ENDBRANCH  22  23
ENDBRANCH   6  22
TORSDOF 6
ENDMDL
MODEL 3
REMARK VINA RESULT:      -7.1      1.316      1.386
REMARK  Name = 
REMARK  6 active torsions:
REMARK  status: ('A' for Active; 'I' for Inactive)
REMARK    1  A    between atoms: N_1  and  C_2
REMARK    2  A    between atoms: C_3  and  C_4
REMARK    3  A    between atoms: C_6  and  O_7
REMARK    4  A    between atoms: N_18  and  C_19
REMARK    5  A    between atoms: C_19  and  C_20
REMARK    6  A    between atoms: C_20  and  O_21
REMARK                            x       y       z     vdW  Elec       q    Type
REMARK                         _______ _______ _______ _____ _____    ______ ____
ROOT
ATOM      1  C   UNL     1       4.343   3.273  18.900  0.00  0.00    +0.000 C 
ATOM      2  C   UNL     1       4.091   3.623  17.616  0.00  0.00    +0.000 C 
ATOM      3  C   UNL     1       2.651   3.337  17.415  0.00  0.00    +0.000 C 
ATOM      4  O   UNL     1       2.011   3.561  16.398  0.00  0.00    +0.000 OA
ATOM      5  C   UNL     1       2.073   2.704  18.670  0.00  0.00    +0.000 C 
ATOM      6  N   UNL     1       3.233   2.769  19.556  0.00  0.00    +0.000 N 
ENDROOT
BRANCH   2   7
ATOM      7  C   UNL     1       5.001   4.156  16.620  0.00  0.00    +0.000 A 
ATOM      8  N   UNL     1       5.866   5.109  16.989  0.00  0.00    +0.000 NA
ATOM      9  C   UNL     1       6.716   5.504  16.041  0.00  0.00    +0.000 A 
ATOM     10  C   UNL     1       6.770   5.015  14.742  0.00  0.00    +0.000 A 
ATOM     11  C   UNL     1       7.694   5.423  13.755  0.00  0.00    +0.000 A 
ATOM     12  C   UNL     1       7.653   4.855  12.485  0.00  0.00    +0.000 A 
ATOM     13  C   UNL     1       6.684   3.901  12.194  0.00  0.00    +0.000 A 
ATOM     14  C   UNL     1       5.773   3.511  13.181  0.00  0.00    +0.000 A 
ATOM     15  C   UNL     1       5.810   4.043  14.463  0.00  0.00    +0.000 A 
ATOM     16  N   UNL     1       4.939   3.608  15.385  0.00  0.00    +0.000 NA
BRANCH   9  17
ATOM     17  O   UNL     1       7.572   6.472  16.466  0.00  0.00    +0.000 OA
ATOM     18  H   UNL     1       8.388   5.948  16.571  0.00  0.00    +0.000 HD
ENDBRANCH   9  17
ENDBRANCH   2   7
BRANCH   1  19
ATOM     19  N   UNL     1       5.556   3.377  19.529  0.00  0.00    +0.000 N 
ATOM     20  H   UNL     1       6.325   3.158  18.891  0.00  0.00    +0.000 HD
ATOM     21  H   UNL     1       5.593   2.783  20.352  0.00  0.00    +0.000 HD
ENDBRANCH   1  19
BRANCH   6  22
ATOM     22  C   UNL     1       3.052   2.603  20.995  0.00  0.00    +0.000 C 
BRANCH  22  23
ATOM     23  C   UNL     1       2.074   3.630  21.580  0.00  0.00    +0.000 C 
BRANCH  23  24
ATOM     24  O   UNL     1       2.470   4.963  21.261  0.00  0.00    +0.000 OA
ATOM     25  H   UNL     1       3.009   4.883  20.454  0.00  0.00    +0.000 HD
ENDBRANCH  23  24
ENDBRANCH  22  23
ENDBRANCH   6  22
TORSDOF 6
ENDMDL
MODEL 4
REMARK VINA RESULT:      -7.0      4.008      7.073
REMARK  Name = 
REMARK  6 active torsions:
REMARK  status: ('A' for Active; 'I' for Inactive)
REMARK    1  A    between atoms: N_1  and  C_2
REMARK    2  A    between atoms: C_3  and  C_4
REMARK    3  A    between atoms: C_6  and  O_7
REMARK    4  A    between atoms: N_18  and  C_19
REMARK    5  A    between atoms: C_19  and  C_20
REMARK    6  A    between atoms: C_20  and  O_21
REMARK                            x       y       z     vdW  Elec       q    Type
REMARK                         _______ _______ _______ _____ _____    ______ ____
ROOT
ATOM      1  C   UNL     1       2.871   4.880  19.935  0.00  0.00    +0.000 C 
ATOM      2  C   UNL     1       3.106   6.057  19.307  0.00  0.00    +0.000 C 
ATOM      3  C   UNL     1       4.292   5.806  18.453  0.00  0.00    +0.000 C 
ATOM      4  O   UNL     1       4.800   6.606  17.680  0.00  0.00    +0.000 OA
ATOM      5  C   UNL     1       4.803   4.394  18.685  0.00  0.00    +0.000 C 
ATOM      6  N   UNL     1       3.783   3.893  19.604  0.00  0.00    +0.000 N 
ENDROOT
BRANCH   2   7
ATOM      7  C   UNL     1       2.389   7.311  19.421  0.00  0.00    +0.000 A 
ATOM      8  N   UNL     1       2.328   8.113  18.349  0.00  0.00    +0.000 NA
ATOM      9  C   UNL     1       1.596   9.217  18.506  0.00  0.00    +0.000 A 
ATOM     10  C   UNL     1       0.914   9.584  19.658  0.00  0.00    +0.000 A 
ATOM     11  C   UNL     1       0.120  10.743  19.802  0.00  0.00    +0.000 A 
ATOM     12  C   UNL     1      -0.522  11.004  21.008  0.00  0.00    +0.000 A 
ATOM     13  C   UNL     1      -0.357  10.125  22.074  0.00  0.00    +0.000 A 
ATOM     14  C   UNL     1       0.437   8.984  21.918  0.00  0.00    +0.000 A 
ATOM     15  C   UNL     1       1.065   8.688  20.716  0.00  0.00    +0.000 A 
ATOM     16  N   UNL     1       1.784   7.561  20.605  0.00  0.00    +0.000 NA
BRANCH   9  17
ATOM     17  O   UNL     1       1.566   9.995  17.390  0.00  0.00    +0.000 OA
ATOM     18  H   UNL     1       0.972   9.465  16.826  0.00  0.00    +0.000 HD
ENDBRANCH   9  17
ENDBRANCH   2   7
BRANCH   1  19
ATOM     19  N   UNL     1       1.856   4.642  20.823  0.00  0.00    +0.000 N 
ATOM     20  H   UNL     1       1.062   4.184  20.367  0.00  0.00    +0.000 HD
ATOM     21  H   UNL     1       1.561   5.499  21.280  0.00  0.00    +0.000 HD
ENDBRANCH   1  19
BRANCH   6  22
ATOM     22  C   UNL     1       3.656   2.455  19.825  0.00  0.00    +0.000 C 
BRANCH  22  23
ATOM     23  C   UNL     1       3.284   1.701  18.541  0.00  0.00    +0.000 C 
BRANCH  23  24
ATOM     24  O   UNL     1       4.139   0.578  18.335  0.00  0.00    +0.000 OA
ATOM     25  H   UNL     1       4.837   0.894  17.735  0.00  0.00    +0.000 HD
ENDBRANCH  23  24
ENDBRANCH  22  23
ENDBRANCH   6  22
TORSDOF 6
ENDMDL
MODEL 5
REMARK VINA RESULT:      -7.0      3.454      6.999
REMARK  Name = 
REMARK  6 active torsions:
REMARK  status: ('A' for Active; 'I' for Inactive)
REMARK    1  A    between atoms: N_1  and  C_2
REMARK    2  A    between atoms: C_3  and  C_4
REMARK    3  A    between atoms: C_6  and  O_7
REMARK    4  A    between atoms: N_18  and  C_19
REMARK    5  A    between atoms: C_19  and  C_20
REMARK    6  A    between atoms: C_20  and  O_21
REMARK                            x       y       z     vdW  Elec       q    Type
REMARK                         _______ _______ _______ _____ _____    ______ ____
ROOT
ATOM      1  C   UNL     1       4.617   5.982  17.096  0.00  0.00    +0.000 C 
ATOM      2  C   UNL     1       3.459   6.026  17.798  0.00  0.00    +0.000 C 
ATOM      3  C   UNL     1       3.003   4.617  17.876  0.00  0.00    +0.000 C 
ATOM      4  O   UNL     1       2.015   4.216  18.474  0.00  0.00    +0.000 OA
ATOM      5  C   UNL     1       3.947   3.727  17.085  0.00  0.00    +0.000 C 
ATOM      6  N   UNL     1       4.958   4.705  16.687  0.00  0.00    +0.000 N 
ENDROOT
BRANCH   2   7
ATOM      7  C   UNL     1       2.776   7.175  18.361  0.00  0.00    +0.000 A 
ATOM      8  N   UNL     1       2.642   8.273  17.605  0.00  0.00    +0.000 NA
ATOM      9  C   UNL     1       1.945   9.264  18.161  0.00  0.00    +0.000 A 
ATOM     10  C   UNL     1       1.367   9.244  19.423  0.00  0.00    +0.000 A 
ATOM     11  C   UNL     1       0.608  10.291  19.990  0.00  0.00    +0.000 A 
ATOM     12  C   UNL     1       0.072  10.153  21.266  0.00  0.00    +0.000 A 
ATOM     13  C   UNL     1       0.307   8.984  21.983  0.00  0.00    +0.000 A 
ATOM     14  C   UNL     1       1.065   7.957  21.410  0.00  0.00    +0.000 A 
ATOM     15  C   UNL     1       1.588   8.061  20.128  0.00  0.00    +0.000 A 
ATOM     16  N   UNL     1       2.275   7.033  19.609  0.00  0.00    +0.000 NA
BRANCH   9  17
ATOM     17  O   UNL     1       1.839  10.354  17.354  0.00  0.00    +0.000 OA
ATOM     18  H   UNL     1       0.895  10.569  17.476  0.00  0.00    +0.000 HD
ENDBRANCH   9  17
ENDBRANCH   2   7
BRANCH   1  19
ATOM     19  N   UNL     1       5.400   7.062  16.787  0.00  0.00    +0.000 N 
ATOM     20  H   UNL     1       6.392   6.854  16.925  0.00  0.00    +0.000 HD
ATOM     21  H   UNL     1       5.127   7.879  17.325  0.00  0.00    +0.000 HD
ENDBRANCH   1  19
BRANCH   6  22
ATOM     22  C   UNL     1       6.259   4.243  16.210  0.00  0.00    +0.000 C 
BRANCH  22  23
ATOM     23  C   UNL     1       7.380   4.519  17.220  0.00  0.00    +0.000 C 
BRANCH  23  24
ATOM     24  O   UNL     1       6.987   4.159  18.543  0.00  0.00    +0.000 OA
ATOM     25  H   UNL     1       7.788   3.793  18.958  0.00  0.00    +0.000 HD
ENDBRANCH  23  24
ENDBRANCH  22  23
ENDBRANCH   6  22
TORSDOF 6
ENDMDL
MODEL 6
REMARK VINA RESULT:      -6.9      3.676      6.766
REMARK  Name = 
REMARK  6 active torsions:
REMARK  status: ('A' for Active; 'I' for Inactive)
REMARK    1  A    between atoms: N_1  and  C_2
REMARK    2  A    between atoms: C_3  and  C_4
REMARK    3  A    between atoms: C_6  and  O_7
REMARK    4  A    between atoms: N_18  and  C_19
REMARK    5  A    between atoms: C_19  and  C_20
REMARK    6  A    between atoms: C_20  and  O_21
REMARK                            x       y       z     vdW  Elec       q    Type
REMARK                         _______ _______ _______ _____ _____    ______ ____
ROOT
ATOM      1  C   UNL     1       2.782   4.702  18.501  0.00  0.00    +0.000 C 
ATOM      2  C   UNL     1       3.171   5.979  18.277  0.00  0.00    +0.000 C 
ATOM      3  C   UNL     1       4.406   5.868  17.464  0.00  0.00    +0.000 C 
ATOM      4  O   UNL     1       5.048   6.802  17.004  0.00  0.00    +0.000 OA
ATOM      5  C   UNL     1       4.775   4.405  17.288  0.00  0.00    +0.000 C 
ATOM      6  N   UNL     1       3.636   3.766  17.945  0.00  0.00    +0.000 N 
ENDROOT
BRANCH   2   7
ATOM      7  C   UNL     1       2.552   7.213  18.720  0.00  0.00    +0.000 A 
ATOM      8  N   UNL     1       2.435   8.221  17.845  0.00  0.00    +0.000 NA
ATOM      9  C   UNL     1       1.797   9.299  18.302  0.00  0.00    +0.000 A 
ATOM     10  C   UNL     1       1.261   9.449  19.574  0.00  0.00    +0.000 A 
ATOM     11  C   UNL     1       0.562  10.587  20.035  0.00  0.00    +0.000 A 
ATOM     12  C   UNL     1       0.065  10.620  21.334  0.00  0.00    +0.000 A 
ATOM     13  C   UNL     1       0.278   9.533  22.176  0.00  0.00    +0.000 A 
ATOM     14  C   UNL     1       0.976   8.416  21.705  0.00  0.00    +0.000 A 
ATOM     15  C   UNL     1       1.459   8.348  20.406  0.00  0.00    +0.000 A 
ATOM     16  N   UNL     1       2.088   7.239  19.991  0.00  0.00    +0.000 NA
BRANCH   9  17
ATOM     17  O   UNL     1       1.706  10.292  17.376  0.00  0.00    +0.000 OA
ATOM     18  H   UNL     1       2.626  10.313  17.053  0.00  0.00    +0.000 HD
ENDBRANCH   9  17
ENDBRANCH   2   7
BRANCH   1  19
ATOM     19  N   UNL     1       1.673   4.321  19.208  0.00  0.00    +0.000 N 
ATOM     20  H   UNL     1       1.459   4.990  19.953  0.00  0.00    +0.000 HD
ATOM     21  H   UNL     1       1.783   3.386  19.588  0.00  0.00    +0.000 HD
ENDBRANCH   1  19
BRANCH   6  22
ATOM     22  C   UNL     1       3.370   2.349  17.710  0.00  0.00    +0.000 C 
BRANCH  22  23
ATOM     23  C   UNL     1       3.744   1.479  18.917  0.00  0.00    +0.000 C 
BRANCH  23  24
ATOM     24  O   UNL     1       4.890   1.995  19.592  0.00  0.00    +0.000 OA
ATOM     25  H   UNL     1       4.640   2.895  19.868  0.00  0.00    +0.000 HD
ENDBRANCH  23  24
ENDBRANCH  22  23
ENDBRANCH   6  22
TORSDOF 6
ENDMDL
MODEL 7
REMARK VINA RESULT:      -6.9      3.514      4.826
REMARK  Name = 
REMARK  6 active torsions:
REMARK  status: ('A' for Active; 'I' for Inactive)
REMARK    1  A    between atoms: N_1  and  C_2
REMARK    2  A    between atoms: C_3  and  C_4
REMARK    3  A    between atoms: C_6  and  O_7
REMARK    4  A    between atoms: N_18  and  C_19
REMARK    5  A    between atoms: C_19  and  C_20
REMARK    6  A    between atoms: C_20  and  O_21
REMARK                            x       y       z     vdW  Elec       q    Type
REMARK                         _______ _______ _______ _____ _____    ______ ____
ROOT
ATOM      1  C   UNL     1       1.850   7.398  20.212  0.00  0.00    +0.000 C 
ATOM      2  C   UNL     1       2.313   7.427  18.939  0.00  0.00    +0.000 C 
ATOM      3  C   UNL     1       1.918   8.757  18.417  0.00  0.00    +0.000 C 
ATOM      4  O   UNL     1       2.192   9.204  17.312  0.00  0.00    +0.000 OA
ATOM      5  C   UNL     1       1.101   9.498  19.462  0.00  0.00    +0.000 C 
ATOM      6  N   UNL     1       1.177   8.552  20.574  0.00  0.00    +0.000 N 
ENDROOT
BRANCH   2   7
ATOM      7  C   UNL     1       3.033   6.404  18.206  0.00  0.00    +0.000 A 
ATOM      8  N   UNL     1       2.427   5.230  17.985  0.00  0.00    +0.000 NA
ATOM      9  C   UNL     1       3.121   4.362  17.247  0.00  0.00    +0.000 A 
ATOM     10  C   UNL     1       4.382   4.578  16.709  0.00  0.00    +0.000 A 
ATOM     11  C   UNL     1       5.094   3.660  15.906  0.00  0.00    +0.000 A 
ATOM     12  C   UNL     1       6.354   3.992  15.417  0.00  0.00    +0.000 A 
ATOM     13  C   UNL     1       6.909   5.225  15.742  0.00  0.00    +0.000 A 
ATOM     14  C   UNL     1       6.193   6.122  16.542  0.00  0.00    +0.000 A 
ATOM     15  C   UNL     1       4.924   5.825  17.020  0.00  0.00    +0.000 A 
ATOM     16  N   UNL     1       4.263   6.733  17.751  0.00  0.00    +0.000 NA
BRANCH   9  17
ATOM     17  O   UNL     1       2.462   3.187  17.053  0.00  0.00    +0.000 OA
ATOM     18  H   UNL     1       2.860   2.646  17.760  0.00  0.00    +0.000 HD
ENDBRANCH   9  17
ENDBRANCH   2   7
BRANCH   1  19
ATOM     19  N   UNL     1       1.996   6.354  21.087  0.00  0.00    +0.000 N 
ATOM     20  H   UNL     1       2.436   5.548  20.634  0.00  0.00    +0.000 HD
ATOM     21  H   UNL     1       1.105   6.093  21.497  0.00  0.00    +0.000 HD
ENDBRANCH   1  19
BRANCH   6  22
ATOM     22  C   UNL     1       0.839   8.996  21.923  0.00  0.00    +0.000 C 
BRANCH  22  23
ATOM     23  C   UNL     1      -0.168  10.153  21.919  0.00  0.00    +0.000 C 
BRANCH  23  24
ATOM     24  O   UNL     1      -0.291  10.738  23.214  0.00  0.00    +0.000 OA
ATOM     25  H   UNL     1       0.596  10.671  23.610  0.00  0.00    +0.000 HD
ENDBRANCH  23  24
ENDBRANCH  22  23
ENDBRANCH   6  22
TORSDOF 6
ENDMDL
MODEL 8
REMARK VINA RESULT:      -6.9      1.209      1.271
REMARK  Name = 
REMARK  6 active torsions:
REMARK  status: ('A' for Active; 'I' for Inactive)
REMARK    1  A    between atoms: N_1  and  C_2
REMARK    2  A    between atoms: C_3  and  C_4
REMARK    3  A    between atoms: C_6  and  O_7
REMARK    4  A    between atoms: N_18  and  C_19
REMARK    5  A    between atoms: C_19  and  C_20
REMARK    6  A    between atoms: C_20  and  O_21
REMARK                            x       y       z     vdW  Elec       q    Type
REMARK                         _______ _______ _______ _____ _____    ______ ____
ROOT
ATOM      1  C   UNL     1       3.727   4.117  19.325  0.00  0.00    +0.000 C 
ATOM      2  C   UNL     1       3.934   5.154  18.478  0.00  0.00    +0.000 C 
ATOM      3  C   UNL     1       3.011   6.218  18.941  0.00  0.00    +0.000 C 
ATOM      4  O   UNL     1       2.923   7.344  18.473  0.00  0.00    +0.000 OA
ATOM      5  C   UNL     1       2.167   5.701  20.094  0.00  0.00    +0.000 C 
ATOM      6  N   UNL     1       2.757   4.376  20.277  0.00  0.00    +0.000 N 
ENDROOT
BRANCH   2   7
ATOM      7  C   UNL     1       4.841   5.245  17.350  0.00  0.00    +0.000 A 
ATOM      8  N   UNL     1       5.904   6.054  17.448  0.00  0.00    +0.000 NA
ATOM      9  C   UNL     1       6.730   6.037  16.401  0.00  0.00    +0.000 A 
ATOM     10  C   UNL     1       6.576   5.267  15.256  0.00  0.00    +0.000 A 
ATOM     11  C   UNL     1       7.473   5.238  14.166  0.00  0.00    +0.000 A 
ATOM     12  C   UNL     1       7.213   4.419  13.071  0.00  0.00    +0.000 A 
ATOM     13  C   UNL     1       6.056   3.648  13.054  0.00  0.00    +0.000 A 
ATOM     14  C   UNL     1       5.174   3.692  14.139  0.00  0.00    +0.000 A 
ATOM     15  C   UNL     1       5.424   4.480  15.254  0.00  0.00    +0.000 A 
ATOM     16  N   UNL     1       4.568   4.457  16.285  0.00  0.00    +0.000 NA
BRANCH   9  17
ATOM     17  O   UNL     1       7.792   6.875  16.551  0.00  0.00    +0.000 OA
ATOM     18  H   UNL     1       8.498   6.227  16.733  0.00  0.00    +0.000 HD
ENDBRANCH   9  17
ENDBRANCH   2   7
BRANCH   1  19
ATOM     19  N   UNL     1       4.377   2.912  19.279  0.00  0.00    +0.000 N 
ATOM     20  H   UNL     1       5.067   2.890  18.524  0.00  0.00    +0.000 HD
ATOM     21  H   UNL     1       3.719   2.145  19.185  0.00  0.00    +0.000 HD
ENDBRANCH   1  19
BRANCH   6  22
ATOM     22  C   UNL     1       2.508   3.641  21.513  0.00  0.00    +0.000 C 
BRANCH  22  23
ATOM     23  C   UNL     1       1.429   2.564  21.343  0.00  0.00    +0.000 C 
BRANCH  23  24
ATOM     24  O   UNL     1       0.418   2.983  20.428  0.00  0.00    +0.000 OA
ATOM     25  H   UNL     1      -0.170   2.214  20.325  0.00  0.00    +0.000 HD
ENDBRANCH  23  24
ENDBRANCH  22  23
ENDBRANCH   6  22
TORSDOF 6
ENDMDL
MODEL 9
REMARK VINA RESULT:      -6.7      4.363      7.542
REMARK  Name = 
REMARK  6 active torsions:
REMARK  status: ('A' for Active; 'I' for Inactive)
REMARK    1  A    between atoms: N_1  and  C_2
REMARK    2  A    between atoms: C_3  and  C_4
REMARK    3  A    between atoms: C_6  and  O_7
REMARK    4  A    between atoms: N_18  and  C_19
REMARK    5  A    between atoms: C_19  and  C_20
REMARK    6  A    between atoms: C_20  and  O_21
REMARK                            x       y       z     vdW  Elec       q    Type
REMARK                         _______ _______ _______ _____ _____    ______ ____
ROOT
ATOM      1  C   UNL     1       2.476   5.340  19.679  0.00  0.00    +0.000 C 
ATOM      2  C   UNL     1       2.623   6.592  19.183  0.00  0.00    +0.000 C 
ATOM      3  C   UNL     1       3.667   6.471  18.138  0.00  0.00    +0.000 C 
ATOM      4  O   UNL     1       4.060   7.372  17.410  0.00  0.00    +0.000 OA
ATOM      5  C   UNL     1       4.199   5.048  18.104  0.00  0.00    +0.000 C 
ATOM      6  N   UNL     1       3.324   4.418  19.090  0.00  0.00    +0.000 N 
ENDROOT
BRANCH   2   7
ATOM      7  C   UNL     1       1.937   7.811  19.565  0.00  0.00    +0.000 A 
ATOM      8  N   UNL     1       1.746   8.756  18.634  0.00  0.00    +0.000 NA
ATOM      9  C   UNL     1       1.051   9.819  19.039  0.00  0.00    +0.000 A 
ATOM     10  C   UNL     1       0.526  10.013  20.309  0.00  0.00    +0.000 A 
ATOM     11  C   UNL     1      -0.233  11.133  20.716  0.00  0.00    +0.000 A 
ATOM     12  C   UNL     1      -0.712  11.213  22.020  0.00  0.00    +0.000 A 
ATOM     13  C   UNL     1      -0.420  10.194  22.919  0.00  0.00    +0.000 A 
ATOM     14  C   UNL     1       0.337   9.094  22.503  0.00  0.00    +0.000 A 
ATOM     15  C   UNL     1       0.803   8.977  21.201  0.00  0.00    +0.000 A 
ATOM     16  N   UNL     1       1.491   7.885  20.840  0.00  0.00    +0.000 NA
BRANCH   9  17
ATOM     17  O   UNL     1       0.886  10.748  18.058  0.00  0.00    +0.000 OA
ATOM     18  H   UNL     1       1.652  10.539  17.491  0.00  0.00    +0.000 HD
ENDBRANCH   9  17
ENDBRANCH   2   7
BRANCH   1  19
ATOM     19  N   UNL     1       1.602   4.974  20.668  0.00  0.00    +0.000 N 
ATOM     20  H   UNL     1       1.257   4.021  20.526  0.00  0.00    +0.000 HD
ATOM     21  H   UNL     1       0.829   5.629  20.734  0.00  0.00    +0.000 HD
ENDBRANCH   1  19
BRANCH   6  22
ATOM     22  C   UNL     1       3.222   2.962  19.137  0.00  0.00    +0.000 C 
BRANCH  22  23
ATOM     23  C   UNL     1       3.995   2.362  20.319  0.00  0.00    +0.000 C 
BRANCH  23  24
ATOM     24  O   UNL     1       5.218   1.766  19.889  0.00  0.00    +0.000 OA
ATOM     25  H   UNL     1       5.640   2.432  19.318  0.00  0.00    +0.000 HD
ENDBRANCH  23  24
ENDBRANCH  22  23
ENDBRANCH   6  22
TORSDOF 6
ENDMDL
