MODEL 1
REMARK VINA RESULT:      -7.5      0.000      0.000
REMARK  Name = 
REMARK  12 active torsions:
REMARK  status: ('A' for Active; 'I' for Inactive)
REMARK    1  A    between atoms: C_1  and  O_2
REMARK    2  A    between atoms: O_2  and  C_3
REMARK    3  A    between atoms: C_5  and  C_6
REMARK    4  A    between atoms: C_6  and  N_7
REMARK    5  A    between atoms: N_7  and  C_8
REMARK    6  A    between atoms: N_7  and  C_9
REMARK    7  A    between atoms: N_7  and  C_10
REMARK    8  A    between atoms: C_10  and  C_11
REMARK    9  A    between atoms: C_11  and  C_12
REMARK   10  A    between atoms: C_12  and  N_13
REMARK   11  A    between atoms: C_29  and  O_30
REMARK   12  A    between atoms: O_30  and  C_31
REMARK                            x       y       z     vdW  Elec       q    Type
REMARK                         _______ _______ _______ _____ _____    ______ ____
ROOT
ATOM      1  C   UNL     1       2.755   8.226  18.168  0.00  0.00    +0.000 C 
ENDROOT
BRANCH   1   2
ATOM      2  C   UNL     1       1.360   8.786  17.890  0.00  0.00    +0.000 C 
BRANCH   2   3
ATOM      3  N   UNL     1       0.833   9.688  19.024  0.00  0.00    +0.000 N 
ATOM      4  C   UNL     1       1.044  11.168  18.704  0.00  0.00    +0.000 C 
ATOM      5  C   UNL     1       1.538   9.358  20.341  0.00  0.00    +0.000 C 
BRANCH   3   6
ATOM      6  C   UNL     1      -0.685   9.414  19.248  0.00  0.00    +0.000 C 
BRANCH   6   9
ATOM      7  C   UNL     1      -2.647  10.644  16.206  0.00  0.00    +0.000 A 
ATOM      8  C   UNL     1      -1.695   9.999  16.998  0.00  0.00    +0.000 A 
ATOM      9  C   UNL     1      -1.670  10.160  18.385  0.00  0.00    +0.000 A 
ATOM     10  C   UNL     1      -2.632  10.998  18.966  0.00  0.00    +0.000 A 
ATOM     11  C   UNL     1      -3.598  11.652  18.186  0.00  0.00    +0.000 A 
ATOM     12  C   UNL     1      -3.596  11.485  16.806  0.00  0.00    +0.000 A 
BRANCH   7  14
ATOM     13  C   UNL     1      -3.750  10.056  14.177  0.00  0.00    +0.000 C 
ATOM     14  O   UNL     1      -2.547  10.373  14.871  0.00  0.00    +0.000 OA
ENDBRANCH   7  14
BRANCH  11  15
ATOM     15  O   UNL     1      -4.474  12.411  18.911  0.00  0.00    +0.000 OA
ATOM     16  C   UNL     1      -5.774  11.871  19.142  0.00  0.00    +0.000 C 
ENDBRANCH  11  15
ENDBRANCH   6   9
ENDBRANCH   3   6
ENDBRANCH   2   3
ENDBRANCH   1   2
BRANCH   1  17
ATOM     17  C   UNL     1       2.812   6.734  17.808  0.00  0.00    +0.000 C 
BRANCH  17  18
ATOM     18  N   UNL     1       3.582   5.932  18.817  0.00  0.00    +0.000 N 
ATOM     19  C   UNL     1       2.731   4.833  19.207  0.00  0.00    +0.000 A 
ATOM     20  C   UNL     1       1.610   5.088  20.025  0.00  0.00    +0.000 A 
ATOM     21  C   UNL     1       0.756   4.058  20.422  0.00  0.00    +0.000 A 
ATOM     22  C   UNL     1       1.046   2.742  20.073  0.00  0.00    +0.000 A 
ATOM     23  C   UNL     1       2.152   2.470  19.269  0.00  0.00    +0.000 A 
ATOM     24  C   UNL     1       2.961   3.508  18.787  0.00  0.00    +0.000 A 
ATOM     25  S   UNL     1       4.125   3.097  17.496  0.00  0.00    +0.000 S 
ATOM     26  C   UNL     1       5.058   4.596  17.346  0.00  0.00    +0.000 A 
ATOM     27  C   UNL     1       6.014   4.697  16.328  0.00  0.00    +0.000 A 
ATOM     28  C   UNL     1       6.883   5.794  16.292  0.00  0.00    +0.000 A 
ATOM     29  C   UNL     1       6.870   6.710  17.342  0.00  0.00    +0.000 A 
ATOM     30 CL   UNL     1       8.018   7.986  17.370  0.00  0.00    +0.000 Cl
ATOM     31  C   UNL     1       5.880   6.648  18.308  0.00  0.00    +0.000 A 
ATOM     32  C   UNL     1       4.870   5.675  18.213  0.00  0.00    +0.000 A 
ENDBRANCH  17  18
ENDBRANCH   1  17
TORSDOF 8
ENDMDL
MODEL 2
REMARK VINA RESULT:      -7.5      1.392      1.729
REMARK  Name = 
REMARK  12 active torsions:
REMARK  status: ('A' for Active; 'I' for Inactive)
REMARK    1  A    between atoms: C_1  and  O_2
REMARK    2  A    between atoms: O_2  and  C_3
REMARK    3  A    between atoms: C_5  and  C_6
REMARK    4  A    between atoms: C_6  and  N_7
REMARK    5  A    between atoms: N_7  and  C_8
REMARK    6  A    between atoms: N_7  and  C_9
REMARK    7  A    between atoms: N_7  and  C_10
REMARK    8  A    between atoms: C_10  and  C_11
REMARK    9  A    between atoms: C_11  and  C_12
REMARK   10  A    between atoms: C_12  and  N_13
REMARK   11  A    between atoms: C_29  and  O_30
REMARK   12  A    between atoms: O_30  and  C_31
REMARK                            x       y       z     vdW  Elec       q    Type
REMARK                         _______ _______ _______ _____ _____    ______ ____
ROOT
ATOM      1  C   UNL     1       2.029   7.205  20.270  0.00  0.00    +0.000 C 
ENDROOT
BRANCH   1   2
ATOM      2  C   UNL     1       1.501   8.601  19.939  0.00  0.00    +0.000 C 
BRANCH   2   3
ATOM      3  N   UNL     1       0.815   9.288  21.138  0.00  0.00    +0.000 N 
ATOM      4  C   UNL     1       1.694   9.238  22.388  0.00  0.00    +0.000 C 
ATOM      5  C   UNL     1      -0.525   8.616  21.445  0.00  0.00    +0.000 C 
BRANCH   3   6
ATOM      6  C   UNL     1       0.500  10.771  20.780  0.00  0.00    +0.000 C 
BRANCH   6   9
ATOM      7  C   UNL     1      -1.908  10.617  17.813  0.00  0.00    +0.000 A 
ATOM      8  C   UNL     1      -0.793  10.412  18.629  0.00  0.00    +0.000 A 
ATOM      9  C   UNL     1      -0.671  11.042  19.869  0.00  0.00    +0.000 A 
ATOM     10  C   UNL     1      -1.705  11.898  20.274  0.00  0.00    +0.000 A 
ATOM     11  C   UNL     1      -2.832  12.114  19.470  0.00  0.00    +0.000 A 
ATOM     12  C   UNL     1      -2.927  11.484  18.234  0.00  0.00    +0.000 A 
BRANCH   7  14
ATOM     13  C   UNL     1      -2.819  10.298  15.635  0.00  0.00    +0.000 C 
ATOM     14  O   UNL     1      -1.883   9.918  16.639  0.00  0.00    +0.000 OA
ENDBRANCH   7  14
BRANCH  11  15
ATOM     15  O   UNL     1      -3.756  12.957  20.023  0.00  0.00    +0.000 OA
ATOM     16  C   UNL     1      -3.276  13.958  20.920  0.00  0.00    +0.000 C 
ENDBRANCH  11  15
ENDBRANCH   6   9
ENDBRANCH   3   6
ENDBRANCH   2   3
ENDBRANCH   1   2
BRANCH   1  17
ATOM     17  C   UNL     1       2.810   6.635  19.077  0.00  0.00    +0.000 C 
BRANCH  17  18
ATOM     18  N   UNL     1       3.726   5.514  19.477  0.00  0.00    +0.000 N 
ATOM     19  C   UNL     1       2.886   4.373  19.755  0.00  0.00    +0.000 A 
ATOM     20  C   UNL     1       2.101   4.368  20.927  0.00  0.00    +0.000 A 
ATOM     21  C   UNL     1       1.269   3.290  21.235  0.00  0.00    +0.000 A 
ATOM     22  C   UNL     1       1.260   2.164  20.417  0.00  0.00    +0.000 A 
ATOM     23  C   UNL     1       2.032   2.150  19.256  0.00  0.00    +0.000 A 
ATOM     24  C   UNL     1       2.798   3.265  18.890  0.00  0.00    +0.000 A 
ATOM     25  S   UNL     1       3.463   3.285  17.232  0.00  0.00    +0.000 S 
ATOM     26  C   UNL     1       4.506   4.717  17.267  0.00  0.00    +0.000 A 
ATOM     27  C   UNL     1       5.125   5.130  16.081  0.00  0.00    +0.000 A 
ATOM     28  C   UNL     1       6.086   6.147  16.113  0.00  0.00    +0.000 A 
ATOM     29  C   UNL     1       6.508   6.649  17.342  0.00  0.00    +0.000 A 
ATOM     30 CL   UNL     1       7.777   7.805  17.396  0.00  0.00    +0.000 Cl
ATOM     31  C   UNL     1       5.848   6.292  18.504  0.00  0.00    +0.000 A 
ATOM     32  C   UNL     1       4.731   5.440  18.441  0.00  0.00    +0.000 A 
ENDBRANCH  17  18
ENDBRANCH   1  17
TORSDOF 8
ENDMDL
MODEL 3
REMARK VINA RESULT:      -7.3      0.962      1.238
REMARK  Name = 
REMARK  12 active torsions:
REMARK  status: ('A' for Active; 'I' for Inactive)
REMARK    1  A    between atoms: C_1  and  O_2
REMARK    2  A    between atoms: O_2  and  C_3
REMARK    3  A    between atoms: C_5  and  C_6
REMARK    4  A    between atoms: C_6  and  N_7
REMARK    5  A    between atoms: N_7  and  C_8
REMARK    6  A    between atoms: N_7  and  C_9
REMARK    7  A    between atoms: N_7  and  C_10
REMARK    8  A    between atoms: C_10  and  C_11
REMARK    9  A    between atoms: C_11  and  C_12
REMARK   10  A    between atoms: C_12  and  N_13
REMARK   11  A    between atoms: C_29  and  O_30
REMARK   12  A    between atoms: O_30  and  C_31
REMARK                            x       y       z     vdW  Elec       q    Type
REMARK                         _______ _______ _______ _____ _____    ______ ____
ROOT
ATOM      1  C   UNL     1       2.542   8.073  18.385  0.00  0.00    +0.000 C 
ENDROOT
BRANCH   1   2
ATOM      2  C   UNL     1       1.986   8.260  19.797  0.00  0.00    +0.000 C 
BRANCH   2   3
ATOM      3  N   UNL     1       0.893   9.346  19.877  0.00  0.00    +0.000 N 
ATOM      4  C   UNL     1       1.356  10.545  20.704  0.00  0.00    +0.000 C 
ATOM      5  C   UNL     1      -0.383   8.775  20.499  0.00  0.00    +0.000 C 
BRANCH   3   6
ATOM      6  C   UNL     1       0.518   9.816  18.439  0.00  0.00    +0.000 C 
BRANCH   6   9
ATOM      7  C   UNL     1      -2.948  10.537  16.996  0.00  0.00    +0.000 A 
ATOM      8  C   UNL     1      -1.657  10.029  17.155  0.00  0.00    +0.000 A 
ATOM      9  C   UNL     1      -0.851  10.412  18.229  0.00  0.00    +0.000 A 
ATOM     10  C   UNL     1      -1.375  11.332  19.147  0.00  0.00    +0.000 A 
ATOM     11  C   UNL     1      -2.670  11.851  19.004  0.00  0.00    +0.000 A 
ATOM     12  C   UNL     1      -3.451  11.463  17.921  0.00  0.00    +0.000 A 
BRANCH   7  14
ATOM     13  C   UNL     1      -2.903  10.023  14.669  0.00  0.00    +0.000 C 
ATOM     14  O   UNL     1      -3.613  10.053  15.904  0.00  0.00    +0.000 OA
ENDBRANCH   7  14
BRANCH  11  15
ATOM     15  O   UNL     1      -3.035  12.716  19.998  0.00  0.00    +0.000 OA
ATOM     16  C   UNL     1      -1.997  13.464  20.630  0.00  0.00    +0.000 C 
ENDBRANCH  11  15
ENDBRANCH   6   9
ENDBRANCH   3   6
ENDBRANCH   2   3
ENDBRANCH   1   2
BRANCH   1  17
ATOM     17  C   UNL     1       2.559   6.583  18.013  0.00  0.00    +0.000 C 
BRANCH  17  18
ATOM     18  N   UNL     1       3.406   5.770  18.949  0.00  0.00    +0.000 N 
ATOM     19  C   UNL     1       2.618   4.623  19.330  0.00  0.00    +0.000 A 
ATOM     20  C   UNL     1       1.529   4.800  20.210  0.00  0.00    +0.000 A 
ATOM     21  C   UNL     1       0.734   3.721  20.601  0.00  0.00    +0.000 A 
ATOM     22  C   UNL     1       1.056   2.434  20.182  0.00  0.00    +0.000 A 
ATOM     23  C   UNL     1       2.130   2.239  19.315  0.00  0.00    +0.000 A 
ATOM     24  C   UNL     1       2.876   3.328  18.842  0.00  0.00    +0.000 A 
ATOM     25  S   UNL     1       3.990   3.017  17.481  0.00  0.00    +0.000 S 
ATOM     26  C   UNL     1       4.858   4.557  17.353  0.00  0.00    +0.000 A 
ATOM     27  C   UNL     1       5.759   4.738  16.296  0.00  0.00    +0.000 A 
ATOM     28  C   UNL     1       6.583   5.868  16.268  0.00  0.00    +0.000 A 
ATOM     29  C   UNL     1       6.587   6.738  17.356  0.00  0.00    +0.000 A 
ATOM     30 CL   UNL     1       7.687   8.056  17.386  0.00  0.00    +0.000 Cl
ATOM     31  C   UNL     1       5.649   6.597  18.364  0.00  0.00    +0.000 A 
ATOM     32  C   UNL     1       4.673   5.590  18.274  0.00  0.00    +0.000 A 
ENDBRANCH  17  18
ENDBRANCH   1  17
TORSDOF 8
ENDMDL
MODEL 4
REMARK VINA RESULT:      -7.3      1.508      2.746
REMARK  Name = 
REMARK  12 active torsions:
REMARK  status: ('A' for Active; 'I' for Inactive)
REMARK    1  A    between atoms: C_1  and  O_2
REMARK    2  A    between atoms: O_2  and  C_3
REMARK    3  A    between atoms: C_5  and  C_6
REMARK    4  A    between atoms: C_6  and  N_7
REMARK    5  A    between atoms: N_7  and  C_8
REMARK    6  A    between atoms: N_7  and  C_9
REMARK    7  A    between atoms: N_7  and  C_10
REMARK    8  A    between atoms: C_10  and  C_11
REMARK    9  A    between atoms: C_11  and  C_12
REMARK   10  A    between atoms: C_12  and  N_13
REMARK   11  A    between atoms: C_29  and  O_30
REMARK   12  A    between atoms: O_30  and  C_31
REMARK                            x       y       z     vdW  Elec       q    Type
REMARK                         _______ _______ _______ _____ _____    ______ ____
ROOT
ATOM      1  C   UNL     1       2.300   7.900  18.835  0.00  0.00    +0.000 C 
ENDROOT
BRANCH   1   2
ATOM      2  C   UNL     1       1.896   7.716  20.298  0.00  0.00    +0.000 C 
BRANCH   2   3
ATOM      3  N   UNL     1       0.960   8.830  20.811  0.00  0.00    +0.000 N 
ATOM      4  C   UNL     1       1.490   9.454  22.102  0.00  0.00    +0.000 C 
ATOM      5  C   UNL     1      -0.443   8.276  21.065  0.00  0.00    +0.000 C 
BRANCH   3   6
ATOM      6  C   UNL     1       0.814   9.934  19.720  0.00  0.00    +0.000 C 
BRANCH   6   9
ATOM      7  C   UNL     1      -2.071  12.310  20.524  0.00  0.00    +0.000 A 
ATOM      8  C   UNL     1      -0.886  11.579  20.630  0.00  0.00    +0.000 A 
ATOM      9  C   UNL     1      -0.496  10.675  19.640  0.00  0.00    +0.000 A 
ATOM     10  C   UNL     1      -1.337  10.517  18.529  0.00  0.00    +0.000 A 
ATOM     11  C   UNL     1      -2.529  11.244  18.405  0.00  0.00    +0.000 A 
ATOM     12  C   UNL     1      -2.902  12.130  19.410  0.00  0.00    +0.000 A 
BRANCH   7  14
ATOM     13  C   UNL     1      -2.102  12.651  22.883  0.00  0.00    +0.000 C 
ATOM     14  O   UNL     1      -2.302  13.162  21.568  0.00  0.00    +0.000 OA
ENDBRANCH   7  14
BRANCH  11  15
ATOM     15  O   UNL     1      -3.218  10.988  17.252  0.00  0.00    +0.000 OA
ATOM     16  C   UNL     1      -4.475  11.641  17.080  0.00  0.00    +0.000 C 
ENDBRANCH  11  15
ENDBRANCH   6   9
ENDBRANCH   3   6
ENDBRANCH   2   3
ENDBRANCH   1   2
BRANCH   1  17
ATOM     17  C   UNL     1       2.481   6.534  18.158  0.00  0.00    +0.000 C 
BRANCH  17  18
ATOM     18  N   UNL     1       3.372   5.618  18.947  0.00  0.00    +0.000 N 
ATOM     19  C   UNL     1       2.594   4.439  19.243  0.00  0.00    +0.000 A 
ATOM     20  C   UNL     1       1.559   4.520  20.198  0.00  0.00    +0.000 A 
ATOM     21  C   UNL     1       0.777   3.407  20.512  0.00  0.00    +0.000 A 
ATOM     22  C   UNL     1       1.061   2.174  19.934  0.00  0.00    +0.000 A 
ATOM     23  C   UNL     1       2.083   2.073  18.991  0.00  0.00    +0.000 A 
ATOM     24  C   UNL     1       2.812   3.205  18.600  0.00  0.00    +0.000 A 
ATOM     25  S   UNL     1       3.844   3.044  17.151  0.00  0.00    +0.000 S 
ATOM     26  C   UNL     1       4.719   4.585  17.146  0.00  0.00    +0.000 A 
ATOM     27  C   UNL     1       5.561   4.880  16.067  0.00  0.00    +0.000 A 
ATOM     28  C   UNL     1       6.394   6.003  16.117  0.00  0.00    +0.000 A 
ATOM     29  C   UNL     1       6.467   6.746  17.293  0.00  0.00    +0.000 A 
ATOM     30 CL   UNL     1       7.580   8.049  17.407  0.00  0.00    +0.000 Cl
ATOM     31  C   UNL     1       5.586   6.497  18.331  0.00  0.00    +0.000 A 
ATOM     32  C   UNL     1       4.596   5.510  18.185  0.00  0.00    +0.000 A 
ENDBRANCH  17  18
ENDBRANCH   1  17
TORSDOF 8
ENDMDL
MODEL 5
REMARK VINA RESULT:      -7.2      1.250      1.791
REMARK  Name = 
REMARK  12 active torsions:
REMARK  status: ('A' for Active; 'I' for Inactive)
REMARK    1  A    between atoms: C_1  and  O_2
REMARK    2  A    between atoms: O_2  and  C_3
REMARK    3  A    between atoms: C_5  and  C_6
REMARK    4  A    between atoms: C_6  and  N_7
REMARK    5  A    between atoms: N_7  and  C_8
REMARK    6  A    between atoms: N_7  and  C_9
REMARK    7  A    between atoms: N_7  and  C_10
REMARK    8  A    between atoms: C_10  and  C_11
REMARK    9  A    between atoms: C_11  and  C_12
REMARK   10  A    between atoms: C_12  and  N_13
REMARK   11  A    between atoms: C_29  and  O_30
REMARK   12  A    between atoms: O_30  and  C_31
REMARK                            x       y       z     vdW  Elec       q    Type
REMARK                         _______ _______ _______ _____ _____    ______ ____
ROOT
ATOM      1  C   UNL     1       2.345   7.782  18.974  0.00  0.00    +0.000 C 
ENDROOT
BRANCH   1   2
ATOM      2  C   UNL     1       2.012   8.912  18.000  0.00  0.00    +0.000 C 
BRANCH   2   3
ATOM      3  N   UNL     1       1.000   9.926  18.573  0.00  0.00    +0.000 N 
ATOM      4  C   UNL     1       1.597  11.331  18.645  0.00  0.00    +0.000 C 
ATOM      5  C   UNL     1       0.554   9.502  19.974  0.00  0.00    +0.000 C 
BRANCH   3   6
ATOM      6  C   UNL     1      -0.280   9.947  17.684  0.00  0.00    +0.000 C 
BRANCH   6   9
ATOM      7  C   UNL     1      -3.872  11.151  18.199  0.00  0.00    +0.000 A 
ATOM      8  C   UNL     1      -2.757  10.483  17.688  0.00  0.00    +0.000 A 
ATOM      9  C   UNL     1      -1.475  10.714  18.189  0.00  0.00    +0.000 A 
ATOM     10  C   UNL     1      -1.335  11.647  19.226  0.00  0.00    +0.000 A 
ATOM     11  C   UNL     1      -2.443  12.326  19.754  0.00  0.00    +0.000 A 
ATOM     12  C   UNL     1      -3.709  12.087  19.230  0.00  0.00    +0.000 A 
BRANCH   7  14
ATOM     13  C   UNL     1      -6.247  11.343  18.176  0.00  0.00    +0.000 C 
ATOM     14  O   UNL     1      -5.056  10.803  17.612  0.00  0.00    +0.000 OA
ENDBRANCH   7  14
BRANCH  11  15
ATOM     15  O   UNL     1      -2.135  13.182  20.774  0.00  0.00    +0.000 OA
ATOM     16  C   UNL     1      -1.535  14.429  20.426  0.00  0.00    +0.000 C 
ENDBRANCH  11  15
ENDBRANCH   6   9
ENDBRANCH   3   6
ENDBRANCH   2   3
ENDBRANCH   1   2
BRANCH   1  17
ATOM     17  C   UNL     1       2.738   6.513  18.203  0.00  0.00    +0.000 C 
BRANCH  17  18
ATOM     18  N   UNL     1       3.603   5.595  19.017  0.00  0.00    +0.000 N 
ATOM     19  C   UNL     1       2.787   4.455  19.361  0.00  0.00    +0.000 A 
ATOM     20  C   UNL     1       1.764   4.608  20.321  0.00  0.00    +0.000 A 
ATOM     21  C   UNL     1       0.946   3.536  20.681  0.00  0.00    +0.000 A 
ATOM     22  C   UNL     1       1.181   2.273  20.146  0.00  0.00    +0.000 A 
ATOM     23  C   UNL     1       2.189   2.102  19.199  0.00  0.00    +0.000 A 
ATOM     24  C   UNL     1       2.954   3.192  18.761  0.00  0.00    +0.000 A 
ATOM     25  S   UNL     1       3.966   2.944  17.311  0.00  0.00    +0.000 S 
ATOM     26  C   UNL     1       4.895   4.451  17.243  0.00  0.00    +0.000 A 
ATOM     27  C   UNL     1       5.737   4.677  16.147  0.00  0.00    +0.000 A 
ATOM     28  C   UNL     1       6.609   5.770  16.150  0.00  0.00    +0.000 A 
ATOM     29  C   UNL     1       6.721   6.551  17.298  0.00  0.00    +0.000 A 
ATOM     30 CL   UNL     1       7.880   7.816  17.355  0.00  0.00    +0.000 Cl
ATOM     31  C   UNL     1       5.841   6.372  18.351  0.00  0.00    +0.000 A 
ATOM     32  C   UNL     1       4.815   5.416  18.249  0.00  0.00    +0.000 A 
ENDBRANCH  17  18
ENDBRANCH   1  17
TORSDOF 8
ENDMDL
MODEL 6
REMARK VINA RESULT:      -7.1      2.416      3.636
REMARK  Name = 
REMARK  12 active torsions:
REMARK  status: ('A' for Active; 'I' for Inactive)
REMARK    1  A    between atoms: C_1  and  O_2
REMARK    2  A    between atoms: O_2  and  C_3
REMARK    3  A    between atoms: C_5  and  C_6
REMARK    4  A    between atoms: C_6  and  N_7
REMARK    5  A    between atoms: N_7  and  C_8
REMARK    6  A    between atoms: N_7  and  C_9
REMARK    7  A    between atoms: N_7  and  C_10
REMARK    8  A    between atoms: C_10  and  C_11
REMARK    9  A    between atoms: C_11  and  C_12
REMARK   10  A    between atoms: C_12  and  N_13
REMARK   11  A    between atoms: C_29  and  O_30
REMARK   12  A    between atoms: O_30  and  C_31
REMARK                            x       y       z     vdW  Elec       q    Type
REMARK                         _______ _______ _______ _____ _____    ______ ____
ROOT
ATOM      1  C   UNL     1       2.217   7.920  18.960  0.00  0.00    +0.000 C 
ENDROOT
BRANCH   1   2
ATOM      2  C   UNL     1       1.673   9.012  18.039  0.00  0.00    +0.000 C 
BRANCH   2   3
ATOM      3  N   UNL     1       0.787  10.037  18.775  0.00  0.00    +0.000 N 
ATOM      4  C   UNL     1       0.481   9.588  20.203  0.00  0.00    +0.000 C 
ATOM      5  C   UNL     1      -0.531  10.242  18.024  0.00  0.00    +0.000 C 
BRANCH   3   6
ATOM      6  C   UNL     1       1.504  11.421  18.805  0.00  0.00    +0.000 C 
BRANCH   6   9
ATOM      7  C   UNL     1      -0.382  13.624  21.297  0.00  0.00    +0.000 A 
ATOM      8  C   UNL     1       0.250  12.525  20.712  0.00  0.00    +0.000 A 
ATOM      9  C   UNL     1       0.763  12.584  19.415  0.00  0.00    +0.000 A 
ATOM     10  C   UNL     1       0.621  13.786  18.708  0.00  0.00    +0.000 A 
ATOM     11  C   UNL     1      -0.009  14.901  19.280  0.00  0.00    +0.000 A 
ATOM     12  C   UNL     1      -0.522  14.814  20.569  0.00  0.00    +0.000 A 
BRANCH   7  14
ATOM     13  C   UNL     1      -1.168  12.075  22.929  0.00  0.00    +0.000 C 
ATOM     14  O   UNL     1      -0.817  13.410  22.575  0.00  0.00    +0.000 OA
ENDBRANCH   7  14
BRANCH  11  15
ATOM     15  O   UNL     1      -0.043  15.999  18.465  0.00  0.00    +0.000 OA
ATOM     16  C   UNL     1      -0.973  17.030  18.792  0.00  0.00    +0.000 C 
ENDBRANCH  11  15
ENDBRANCH   6   9
ENDBRANCH   3   6
ENDBRANCH   2   3
ENDBRANCH   1   2
BRANCH   1  17
ATOM     17  C   UNL     1       2.711   6.724  18.132  0.00  0.00    +0.000 C 
BRANCH  17  18
ATOM     18  N   UNL     1       3.548   5.776  18.943  0.00  0.00    +0.000 N 
ATOM     19  C   UNL     1       2.710   4.641  19.247  0.00  0.00    +0.000 A 
ATOM     20  C   UNL     1       1.671   4.787  20.190  0.00  0.00    +0.000 A 
ATOM     21  C   UNL     1       0.832   3.719  20.512  0.00  0.00    +0.000 A 
ATOM     22  C   UNL     1       1.059   2.465  19.954  0.00  0.00    +0.000 A 
ATOM     23  C   UNL     1       2.083   2.300  19.022  0.00  0.00    +0.000 A 
ATOM     24  C   UNL     1       2.871   3.389  18.623  0.00  0.00    +0.000 A 
ATOM     25  S   UNL     1       3.907   3.157  17.186  0.00  0.00    +0.000 S 
ATOM     26  C   UNL     1       4.858   4.652  17.169  0.00  0.00    +0.000 A 
ATOM     27  C   UNL     1       5.723   4.889  16.094  0.00  0.00    +0.000 A 
ATOM     28  C   UNL     1       6.610   5.970  16.137  0.00  0.00    +0.000 A 
ATOM     29  C   UNL     1       6.711   6.724  17.304  0.00  0.00    +0.000 A 
ATOM     30 CL   UNL     1       7.886   7.971  17.410  0.00  0.00    +0.000 Cl
ATOM     31  C   UNL     1       5.809   6.534  18.336  0.00  0.00    +0.000 A 
ATOM     32  C   UNL     1       4.772   5.596  18.194  0.00  0.00    +0.000 A 
ENDBRANCH  17  18
ENDBRANCH   1  17
TORSDOF 8
ENDMDL
MODEL 7
REMARK VINA RESULT:      -7.1      2.591      4.206
REMARK  Name = 
REMARK  12 active torsions:
REMARK  status: ('A' for Active; 'I' for Inactive)
REMARK    1  A    between atoms: C_1  and  O_2
REMARK    2  A    between atoms: O_2  and  C_3
REMARK    3  A    between atoms: C_5  and  C_6
REMARK    4  A    between atoms: C_6  and  N_7
REMARK    5  A    between atoms: N_7  and  C_8
REMARK    6  A    between atoms: N_7  and  C_9
REMARK    7  A    between atoms: N_7  and  C_10
REMARK    8  A    between atoms: C_10  and  C_11
REMARK    9  A    between atoms: C_11  and  C_12
REMARK   10  A    between atoms: C_12  and  N_13
REMARK   11  A    between atoms: C_29  and  O_30
REMARK   12  A    between atoms: O_30  and  C_31
REMARK                            x       y       z     vdW  Elec       q    Type
REMARK                         _______ _______ _______ _____ _____    ______ ____
ROOT
ATOM      1  C   UNL     1       2.582   8.028  18.591  0.00  0.00    +0.000 C 
ENDROOT
BRANCH   1   2
ATOM      2  C   UNL     1       1.403   8.756  17.946  0.00  0.00    +0.000 C 
BRANCH   2   3
ATOM      3  N   UNL     1       0.977  10.021  18.719  0.00  0.00    +0.000 N 
ATOM      4  C   UNL     1       0.825   9.737  20.213  0.00  0.00    +0.000 C 
ATOM      5  C   UNL     1      -0.349  10.558  18.177  0.00  0.00    +0.000 C 
BRANCH   3   6
ATOM      6  C   UNL     1       2.036  11.145  18.505  0.00  0.00    +0.000 C 
BRANCH   6   9
ATOM      7  C   UNL     1       1.097  13.892  20.993  0.00  0.00    +0.000 A 
ATOM      8  C   UNL     1       1.298  12.636  20.418  0.00  0.00    +0.000 A 
ATOM      9  C   UNL     1       1.755  12.499  19.106  0.00  0.00    +0.000 A 
ATOM     10  C   UNL     1       2.005  13.668  18.374  0.00  0.00    +0.000 A 
ATOM     11  C   UNL     1       1.811  14.938  18.935  0.00  0.00    +0.000 A 
ATOM     12  C   UNL     1       1.344  15.049  20.240  0.00  0.00    +0.000 A 
BRANCH   7  14
ATOM     13  C   UNL     1      -0.687  13.451  22.511  0.00  0.00    +0.000 C 
ATOM     14  O   UNL     1       0.661  13.856  22.288  0.00  0.00    +0.000 OA
ENDBRANCH   7  14
BRANCH  11  15
ATOM     15  O   UNL     1       2.123  15.970  18.095  0.00  0.00    +0.000 OA
ATOM     16  C   UNL     1       3.396  15.930  17.451  0.00  0.00    +0.000 C 
ENDBRANCH  11  15
ENDBRANCH   6   9
ENDBRANCH   3   6
ENDBRANCH   2   3
ENDBRANCH   1   2
BRANCH   1  17
ATOM     17  C   UNL     1       2.728   6.619  17.996  0.00  0.00    +0.000 C 
BRANCH  17  18
ATOM     18  N   UNL     1       3.547   5.712  18.870  0.00  0.00    +0.000 N 
ATOM     19  C   UNL     1       2.702   4.592  19.209  0.00  0.00    +0.000 A 
ATOM     20  C   UNL     1       1.643   4.782  20.121  0.00  0.00    +0.000 A 
ATOM     21  C   UNL     1       0.796   3.729  20.474  0.00  0.00    +0.000 A 
ATOM     22  C   UNL     1       1.037   2.450  19.982  0.00  0.00    +0.000 A 
ATOM     23  C   UNL     1       2.082   2.242  19.082  0.00  0.00    +0.000 A 
ATOM     24  C   UNL     1       2.878   3.312  18.650  0.00  0.00    +0.000 A 
ATOM     25  S   UNL     1       3.947   3.013  17.250  0.00  0.00    +0.000 S 
ATOM     26  C   UNL     1       4.897   4.507  17.182  0.00  0.00    +0.000 A 
ATOM     27  C   UNL     1       5.786   4.694  16.117  0.00  0.00    +0.000 A 
ATOM     28  C   UNL     1       6.672   5.777  16.128  0.00  0.00    +0.000 A 
ATOM     29  C   UNL     1       6.746   6.587  17.260  0.00  0.00    +0.000 A 
ATOM     30 CL   UNL     1       7.918   7.839  17.333  0.00  0.00    +0.000 Cl
ATOM     31  C   UNL     1       5.820   6.445  18.279  0.00  0.00    +0.000 A 
ATOM     32  C   UNL     1       4.787   5.499  18.159  0.00  0.00    +0.000 A 
ENDBRANCH  17  18
ENDBRANCH   1  17
TORSDOF 8
ENDMDL
MODEL 8
REMARK VINA RESULT:      -7.1      2.449      3.843
REMARK  Name = 
REMARK  12 active torsions:
REMARK  status: ('A' for Active; 'I' for Inactive)
REMARK    1  A    between atoms: C_1  and  O_2
REMARK    2  A    between atoms: O_2  and  C_3
REMARK    3  A    between atoms: C_5  and  C_6
REMARK    4  A    between atoms: C_6  and  N_7
REMARK    5  A    between atoms: N_7  and  C_8
REMARK    6  A    between atoms: N_7  and  C_9
REMARK    7  A    between atoms: N_7  and  C_10
REMARK    8  A    between atoms: C_10  and  C_11
REMARK    9  A    between atoms: C_11  and  C_12
REMARK   10  A    between atoms: C_12  and  N_13
REMARK   11  A    between atoms: C_29  and  O_30
REMARK   12  A    between atoms: O_30  and  C_31
REMARK                            x       y       z     vdW  Elec       q    Type
REMARK                         _______ _______ _______ _____ _____    ______ ____
ROOT
ATOM      1  C   UNL     1       2.617   8.125  18.596  0.00  0.00    +0.000 C 
ENDROOT
BRANCH   1   2
ATOM      2  C   UNL     1       1.579   8.918  17.802  0.00  0.00    +0.000 C 
BRANCH   2   3
ATOM      3  N   UNL     1       0.818   9.948  18.662  0.00  0.00    +0.000 N 
ATOM      4  C   UNL     1       0.741   9.508  20.124  0.00  0.00    +0.000 C 
ATOM      5  C   UNL     1      -0.601  10.149  18.127  0.00  0.00    +0.000 C 
BRANCH   3   6
ATOM      6  C   UNL     1       1.529  11.332  18.571  0.00  0.00    +0.000 C 
BRANCH   6   9
ATOM      7  C   UNL     1       1.674  13.990  21.315  0.00  0.00    +0.000 A 
ATOM      8  C   UNL     1       2.038  12.960  20.446  0.00  0.00    +0.000 A 
ATOM      9  C   UNL     1       1.122  12.400  19.554  0.00  0.00    +0.000 A 
ATOM     10  C   UNL     1      -0.187  12.901  19.558  0.00  0.00    +0.000 A 
ATOM     11  C   UNL     1      -0.571  13.938  20.421  0.00  0.00    +0.000 A 
ATOM     12  C   UNL     1       0.357  14.472  21.309  0.00  0.00    +0.000 A 
BRANCH   7  14
ATOM     13  C   UNL     1       4.020  14.222  21.660  0.00  0.00    +0.000 C 
ATOM     14  O   UNL     1       2.688  14.439  22.114  0.00  0.00    +0.000 OA
ENDBRANCH   7  14
BRANCH  11  15
ATOM     15  O   UNL     1      -1.875  14.324  20.280  0.00  0.00    +0.000 OA
ATOM     16  C   UNL     1      -2.445  15.103  21.330  0.00  0.00    +0.000 C 
ENDBRANCH  11  15
ENDBRANCH   6   9
ENDBRANCH   3   6
ENDBRANCH   2   3
ENDBRANCH   1   2
BRANCH   1  17
ATOM     17  C   UNL     1       2.753   6.706  18.025  0.00  0.00    +0.000 C 
BRANCH  17  18
ATOM     18  N   UNL     1       3.570   5.810  18.912  0.00  0.00    +0.000 N 
ATOM     19  C   UNL     1       2.732   4.683  19.245  0.00  0.00    +0.000 A 
ATOM     20  C   UNL     1       1.660   4.865  20.143  0.00  0.00    +0.000 A 
ATOM     21  C   UNL     1       0.820   3.806  20.490  0.00  0.00    +0.000 A 
ATOM     22  C   UNL     1       1.079   2.527  20.005  0.00  0.00    +0.000 A 
ATOM     23  C   UNL     1       2.136   2.326  19.119  0.00  0.00    +0.000 A 
ATOM     24  C   UNL     1       2.927   3.402  18.692  0.00  0.00    +0.000 A 
ATOM     25  S   UNL     1       4.015   3.109  17.305  0.00  0.00    +0.000 S 
ATOM     26  C   UNL     1       4.951   4.612  17.243  0.00  0.00    +0.000 A 
ATOM     27  C   UNL     1       5.851   4.804  16.188  0.00  0.00    +0.000 A 
ATOM     28  C   UNL     1       6.726   5.895  16.206  0.00  0.00    +0.000 A 
ATOM     29  C   UNL     1       6.779   6.710  17.335  0.00  0.00    +0.000 A 
ATOM     30 CL   UNL     1       7.938   7.973  17.418  0.00  0.00    +0.000 Cl
ATOM     31  C   UNL     1       5.843   6.562  18.344  0.00  0.00    +0.000 A 
ATOM     32  C   UNL     1       4.821   5.606  18.216  0.00  0.00    +0.000 A 
ENDBRANCH  17  18
ENDBRANCH   1  17
TORSDOF 8
ENDMDL
MODEL 9
REMARK VINA RESULT:      -7.0      2.134      3.142
REMARK  Name = 
REMARK  12 active torsions:
REMARK  status: ('A' for Active; 'I' for Inactive)
REMARK    1  A    between atoms: C_1  and  O_2
REMARK    2  A    between atoms: O_2  and  C_3
REMARK    3  A    between atoms: C_5  and  C_6
REMARK    4  A    between atoms: C_6  and  N_7
REMARK    5  A    between atoms: N_7  and  C_8
REMARK    6  A    between atoms: N_7  and  C_9
REMARK    7  A    between atoms: N_7  and  C_10
REMARK    8  A    between atoms: C_10  and  C_11
REMARK    9  A    between atoms: C_11  and  C_12
REMARK   10  A    between atoms: C_12  and  N_13
REMARK   11  A    between atoms: C_29  and  O_30
REMARK   12  A    between atoms: O_30  and  C_31
REMARK                            x       y       z     vdW  Elec       q    Type
REMARK                         _______ _______ _______ _____ _____    ______ ____
ROOT
ATOM      1  C   UNL     1       2.853   8.048  18.082  0.00  0.00    +0.000 C 
ENDROOT
BRANCH   1   2
ATOM      2  C   UNL     1       1.535   8.722  17.700  0.00  0.00    +0.000 C 
BRANCH   2   3
ATOM      3  N   UNL     1       1.167   9.899  18.627  0.00  0.00    +0.000 N 
ATOM      4  C   UNL     1       2.147  11.061  18.470  0.00  0.00    +0.000 C 
ATOM      5  C   UNL     1       1.160   9.447  20.089  0.00  0.00    +0.000 C 
BRANCH   3   6
ATOM      6  C   UNL     1      -0.278  10.386  18.304  0.00  0.00    +0.000 C 
BRANCH   6   9
ATOM      7  C   UNL     1      -1.976  12.735  20.797  0.00  0.00    +0.000 A 
ATOM      8  C   UNL     1      -1.573  11.577  20.129  0.00  0.00    +0.000 A 
ATOM      9  C   UNL     1      -0.769  11.636  18.989  0.00  0.00    +0.000 A 
ATOM     10  C   UNL     1      -0.378  12.901  18.527  0.00  0.00    +0.000 A 
ATOM     11  C   UNL     1      -0.771  14.074  19.187  0.00  0.00    +0.000 A 
ATOM     12  C   UNL     1      -1.582  13.990  20.314  0.00  0.00    +0.000 A 
BRANCH   7  14
ATOM     13  C   UNL     1      -3.242  13.647  22.598  0.00  0.00    +0.000 C 
ATOM     14  O   UNL     1      -2.748  12.507  21.902  0.00  0.00    +0.000 OA
ENDBRANCH   7  14
BRANCH  11  15
ATOM     15  O   UNL     1      -0.285  15.220  18.621  0.00  0.00    +0.000 OA
ATOM     16  C   UNL     1       0.891  15.788  19.196  0.00  0.00    +0.000 C 
ENDBRANCH  11  15
ENDBRANCH   6   9
ENDBRANCH   3   6
ENDBRANCH   2   3
ENDBRANCH   1   2
BRANCH   1  17
ATOM     17  C   UNL     1       2.760   6.532  17.856  0.00  0.00    +0.000 C 
BRANCH  17  18
ATOM     18  N   UNL     1       3.569   5.755  18.854  0.00  0.00    +0.000 N 
ATOM     19  C   UNL     1       2.744   4.653  19.288  0.00  0.00    +0.000 A 
ATOM     20  C   UNL     1       1.645   4.909  20.134  0.00  0.00    +0.000 A 
ATOM     21  C   UNL     1       0.816   3.875  20.573  0.00  0.00    +0.000 A 
ATOM     22  C   UNL     1       1.111   2.558  20.237  0.00  0.00    +0.000 A 
ATOM     23  C   UNL     1       2.195   2.285  19.404  0.00  0.00    +0.000 A 
ATOM     24  C   UNL     1       2.978   3.325  18.882  0.00  0.00    +0.000 A 
ATOM     25  S   UNL     1       4.108   2.906  17.564  0.00  0.00    +0.000 S 
ATOM     26  C   UNL     1       5.018   4.413  17.362  0.00  0.00    +0.000 A 
ATOM     27  C   UNL     1       5.942   4.508  16.315  0.00  0.00    +0.000 A 
ATOM     28  C   UNL     1       6.796   5.614  16.235  0.00  0.00    +0.000 A 
ATOM     29  C   UNL     1       6.803   6.547  17.270  0.00  0.00    +0.000 A 
ATOM     30 CL   UNL     1       7.935   7.837  17.244  0.00  0.00    +0.000 Cl
ATOM     31  C   UNL     1       5.843   6.490  18.266  0.00  0.00    +0.000 A 
ATOM     32  C   UNL     1       4.842   5.504  18.217  0.00  0.00    +0.000 A 
ENDBRANCH  17  18
ENDBRANCH   1  17
TORSDOF 8
ENDMDL
