MODEL 1
REMARK VINA RESULT:      -6.6      0.000      0.000
REMARK  Name = 
REMARK  3 active torsions:
REMARK  status: ('A' for Active; 'I' for Inactive)
REMARK    1  A    between atoms: C_1  and  C_2
REMARK    2  A    between atoms: N_7  and  C_8
REMARK    3  A    between atoms: C_9  and  C_10
REMARK                            x       y       z     vdW  Elec       q    Type
REMARK                         _______ _______ _______ _____ _____    ______ ____
ROOT
ATOM      1  C   UNL     1       2.313   3.520  21.317  0.00  0.00    +0.000 C 
ATOM      2  C   UNL     1       3.253   3.406  20.109  0.00  0.00    +0.000 C 
ATOM      3  C   UNL     1       2.514   2.666  19.019  0.00  0.00    +0.000 C 
ATOM      4  O   UNL     1       2.682   1.458  18.836  0.00  0.00    +0.000 OA
ATOM      5  C   UNL     1       1.472   3.427  18.236  0.00  0.00    +0.000 C 
ATOM      6  C   UNL     1       1.950   4.829  17.882  0.00  0.00    +0.000 C 
ATOM      7  N   UNL     1       2.573   5.519  19.014  0.00  0.00    +0.000 NA
ATOM      8  C   UNL     1       2.881   6.910  18.681  0.00  0.00    +0.000 C 
ATOM      9  C   UNL     1       3.725   4.783  19.587  0.00  0.00    +0.000 C 
ENDROOT
BRANCH   9  10
ATOM     10  C   UNL     1       4.971   4.738  18.686  0.00  0.00    +0.000 A 
ATOM     11  C   UNL     1       6.168   5.315  19.152  0.00  0.00    +0.000 A 
ATOM     12  C   UNL     1       7.303   5.394  18.340  0.00  0.00    +0.000 A 
ATOM     13  C   UNL     1       7.270   4.887  17.044  0.00  0.00    +0.000 A 
ATOM     14  C   UNL     1       6.109   4.285  16.573  0.00  0.00    +0.000 A 
ATOM     15  C   UNL     1       4.974   4.208  17.385  0.00  0.00    +0.000 A 
ENDBRANCH   9  10
TORSDOF 1
ENDMDL
MODEL 2
REMARK VINA RESULT:      -6.5      0.371      1.295
REMARK  Name = 
REMARK  3 active torsions:
REMARK  status: ('A' for Active; 'I' for Inactive)
REMARK    1  A    between atoms: C_1  and  C_2
REMARK    2  A    between atoms: N_7  and  C_8
REMARK    3  A    between atoms: C_9  and  C_10
REMARK                            x       y       z     vdW  Elec       q    Type
REMARK                         _______ _______ _______ _____ _____    ______ ____
ROOT
ATOM      1  C   UNL     1       2.578   2.947  21.189  0.00  0.00    +0.000 C 
ATOM      2  C   UNL     1       3.527   3.081  19.990  0.00  0.00    +0.000 C 
ATOM      3  C   UNL     1       2.893   2.365  18.820  0.00  0.00    +0.000 C 
ATOM      4  O   UNL     1       3.220   1.214  18.519  0.00  0.00    +0.000 OA
ATOM      5  C   UNL     1       1.761   3.059  18.103  0.00  0.00    +0.000 C 
ATOM      6  C   UNL     1       2.050   4.540  17.898  0.00  0.00    +0.000 C 
ATOM      7  N   UNL     1       2.575   5.187  19.103  0.00  0.00    +0.000 NA
ATOM      8  C   UNL     1       2.697   6.633  18.917  0.00  0.00    +0.000 C 
ATOM      9  C   UNL     1       3.813   4.554  19.616  0.00  0.00    +0.000 C 
ENDROOT
BRANCH   9  10
ATOM     10  C   UNL     1       5.055   4.765  18.734  0.00  0.00    +0.000 A 
ATOM     11  C   UNL     1       5.043   4.275  17.414  0.00  0.00    +0.000 A 
ATOM     12  C   UNL     1       6.176   4.347  16.599  0.00  0.00    +0.000 A 
ATOM     13  C   UNL     1       7.346   4.925  17.082  0.00  0.00    +0.000 A 
ATOM     14  C   UNL     1       7.374   5.444  18.371  0.00  0.00    +0.000 A 
ATOM     15  C   UNL     1       6.241   5.369  19.186  0.00  0.00    +0.000 A 
ENDBRANCH   9  10
TORSDOF 1
ENDMDL
MODEL 3
REMARK VINA RESULT:      -6.4      2.215      4.823
REMARK  Name = 
REMARK  3 active torsions:
REMARK  status: ('A' for Active; 'I' for Inactive)
REMARK    1  A    between atoms: C_1  and  C_2
REMARK    2  A    between atoms: N_7  and  C_8
REMARK    3  A    between atoms: C_9  and  C_10
REMARK                            x       y       z     vdW  Elec       q    Type
REMARK                         _______ _______ _______ _____ _____    ______ ____
ROOT
ATOM      1  C   UNL     1       6.585   5.180  14.676  0.00  0.00    +0.000 C 
ATOM      2  C   UNL     1       6.219   4.482  15.992  0.00  0.00    +0.000 C 
ATOM      3  C   UNL     1       7.293   4.813  17.002  0.00  0.00    +0.000 C 
ATOM      4  O   UNL     1       8.216   4.029  17.236  0.00  0.00    +0.000 OA
ATOM      5  C   UNL     1       7.267   6.185  17.630  0.00  0.00    +0.000 C 
ATOM      6  C   UNL     1       5.851   6.604  18.004  0.00  0.00    +0.000 C 
ATOM      7  N   UNL     1       4.881   6.337  16.939  0.00  0.00    +0.000 NA
ATOM      8  C   UNL     1       3.567   6.888  17.271  0.00  0.00    +0.000 C 
ATOM      9  C   UNL     1       4.834   4.912  16.532  0.00  0.00    +0.000 C 
ENDROOT
BRANCH   9  10
ATOM     10  C   UNL     1       4.228   3.964  17.581  0.00  0.00    +0.000 A 
ATOM     11  C   UNL     1       3.014   3.313  17.288  0.00  0.00    +0.000 A 
ATOM     12  C   UNL     1       2.365   2.521  18.239  0.00  0.00    +0.000 A 
ATOM     13  C   UNL     1       2.923   2.350  19.502  0.00  0.00    +0.000 A 
ATOM     14  C   UNL     1       4.136   2.957  19.804  0.00  0.00    +0.000 A 
ATOM     15  C   UNL     1       4.784   3.751  18.854  0.00  0.00    +0.000 A 
ENDBRANCH   9  10
TORSDOF 1
ENDMDL
MODEL 4
REMARK VINA RESULT:      -6.3      1.691      2.712
REMARK  Name = 
REMARK  3 active torsions:
REMARK  status: ('A' for Active; 'I' for Inactive)
REMARK    1  A    between atoms: C_1  and  C_2
REMARK    2  A    between atoms: N_7  and  C_8
REMARK    3  A    between atoms: C_9  and  C_10
REMARK                            x       y       z     vdW  Elec       q    Type
REMARK                         _______ _______ _______ _____ _____    ______ ____
ROOT
ATOM      1  C   UNL     1       2.860   2.113  19.240  0.00  0.00    +0.000 C 
ATOM      2  C   UNL     1       3.132   3.026  18.037  0.00  0.00    +0.000 C 
ATOM      3  C   UNL     1       2.067   4.097  18.023  0.00  0.00    +0.000 C 
ATOM      4  O   UNL     1       1.073   4.004  17.297  0.00  0.00    +0.000 OA
ATOM      5  C   UNL     1       2.197   5.230  19.012  0.00  0.00    +0.000 C 
ATOM      6  C   UNL     1       3.634   5.723  19.114  0.00  0.00    +0.000 C 
ATOM      7  N   UNL     1       4.603   4.629  19.218  0.00  0.00    +0.000 NA
ATOM      8  C   UNL     1       5.951   5.139  19.467  0.00  0.00    +0.000 C 
ATOM      9  C   UNL     1       4.535   3.676  18.084  0.00  0.00    +0.000 C 
ENDROOT
BRANCH   9  10
ATOM     10  C   UNL     1       5.030   4.239  16.742  0.00  0.00    +0.000 A 
ATOM     11  C   UNL     1       5.723   3.386  15.861  0.00  0.00    +0.000 A 
ATOM     12  C   UNL     1       6.284   3.866  14.674  0.00  0.00    +0.000 A 
ATOM     13  C   UNL     1       6.154   5.209  14.334  0.00  0.00    +0.000 A 
ATOM     14  C   UNL     1       5.449   6.064  15.172  0.00  0.00    +0.000 A 
ATOM     15  C   UNL     1       4.889   5.584  16.360  0.00  0.00    +0.000 A 
ENDBRANCH   9  10
TORSDOF 1
ENDMDL
MODEL 5
REMARK VINA RESULT:      -6.2      1.542      2.305
REMARK  Name = 
REMARK  3 active torsions:
REMARK  status: ('A' for Active; 'I' for Inactive)
REMARK    1  A    between atoms: C_1  and  C_2
REMARK    2  A    between atoms: N_7  and  C_8
REMARK    3  A    between atoms: C_9  and  C_10
REMARK                            x       y       z     vdW  Elec       q    Type
REMARK                         _______ _______ _______ _____ _____    ______ ____
ROOT
ATOM      1  C   UNL     1       2.314   2.872  21.473  0.00  0.00    +0.000 C 
ATOM      2  C   UNL     1       3.435   3.395  20.563  0.00  0.00    +0.000 C 
ATOM      3  C   UNL     1       4.145   2.198  19.975  0.00  0.00    +0.000 C 
ATOM      4  O   UNL     1       5.197   1.775  20.459  0.00  0.00    +0.000 OA
ATOM      5  C   UNL     1       3.464   1.463  18.846  0.00  0.00    +0.000 C 
ATOM      6  C   UNL     1       2.842   2.427  17.844  0.00  0.00    +0.000 C 
ATOM      7  N   UNL     1       2.092   3.508  18.487  0.00  0.00    +0.000 NA
ATOM      8  C   UNL     1       1.385   4.322  17.498  0.00  0.00    +0.000 C 
ATOM      9  C   UNL     1       2.909   4.308  19.431  0.00  0.00    +0.000 C 
ENDROOT
BRANCH   9  10
ATOM     10  C   UNL     1       3.978   5.191  18.766  0.00  0.00    +0.000 A 
ATOM     11  C   UNL     1       3.565   6.232  17.912  0.00  0.00    +0.000 A 
ATOM     12  C   UNL     1       4.490   7.001  17.201  0.00  0.00    +0.000 A 
ATOM     13  C   UNL     1       5.853   6.755  17.338  0.00  0.00    +0.000 A 
ATOM     14  C   UNL     1       6.286   5.753  18.199  0.00  0.00    +0.000 A 
ATOM     15  C   UNL     1       5.360   4.983  18.908  0.00  0.00    +0.000 A 
ENDBRANCH   9  10
TORSDOF 1
ENDMDL
MODEL 6
REMARK VINA RESULT:      -6.2      1.525      2.035
REMARK  Name = 
REMARK  3 active torsions:
REMARK  status: ('A' for Active; 'I' for Inactive)
REMARK    1  A    between atoms: C_1  and  C_2
REMARK    2  A    between atoms: N_7  and  C_8
REMARK    3  A    between atoms: C_9  and  C_10
REMARK                            x       y       z     vdW  Elec       q    Type
REMARK                         _______ _______ _______ _____ _____    ______ ____
ROOT
ATOM      1  C   UNL     1       2.377   2.981  21.463  0.00  0.00    +0.000 C 
ATOM      2  C   UNL     1       3.500   3.409  20.509  0.00  0.00    +0.000 C 
ATOM      3  C   UNL     1       4.107   2.157  19.920  0.00  0.00    +0.000 C 
ATOM      4  O   UNL     1       5.143   1.670  20.379  0.00  0.00    +0.000 OA
ATOM      5  C   UNL     1       3.340   1.453  18.827  0.00  0.00    +0.000 C 
ATOM      6  C   UNL     1       2.753   2.441  17.828  0.00  0.00    +0.000 C 
ATOM      7  N   UNL     1       2.100   3.582  18.474  0.00  0.00    +0.000 NA
ATOM      8  C   UNL     1       1.419   4.427  17.494  0.00  0.00    +0.000 C 
ATOM      9  C   UNL     1       3.001   4.338  19.377  0.00  0.00    +0.000 C 
ENDROOT
BRANCH   9  10
ATOM     10  C   UNL     1       4.106   5.134  18.662  0.00  0.00    +0.000 A 
ATOM     11  C   UNL     1       5.449   4.900  19.015  0.00  0.00    +0.000 A 
ATOM     12  C   UNL     1       6.487   5.664  18.474  0.00  0.00    +0.000 A 
ATOM     13  C   UNL     1       6.208   6.671  17.556  0.00  0.00    +0.000 A 
ATOM     14  C   UNL     1       4.892   6.900  17.168  0.00  0.00    +0.000 A 
ATOM     15  C   UNL     1       3.854   6.138  17.711  0.00  0.00    +0.000 A 
ENDBRANCH   9  10
TORSDOF 1
ENDMDL
MODEL 7
REMARK VINA RESULT:      -6.2      2.001      4.542
REMARK  Name = 
REMARK  3 active torsions:
REMARK  status: ('A' for Active; 'I' for Inactive)
REMARK    1  A    between atoms: C_1  and  C_2
REMARK    2  A    between atoms: N_7  and  C_8
REMARK    3  A    between atoms: C_9  and  C_10
REMARK                            x       y       z     vdW  Elec       q    Type
REMARK                         _______ _______ _______ _____ _____    ______ ____
ROOT
ATOM      1  C   UNL     1       5.127   6.602  15.721  0.00  0.00    +0.000 C 
ATOM      2  C   UNL     1       4.832   5.263  16.411  0.00  0.00    +0.000 C 
ATOM      3  C   UNL     1       6.090   4.828  17.125  0.00  0.00    +0.000 C 
ATOM      4  O   UNL     1       6.864   4.011  16.621  0.00  0.00    +0.000 OA
ATOM      5  C   UNL     1       6.431   5.513  18.426  0.00  0.00    +0.000 C 
ATOM      6  C   UNL     1       5.199   5.700  19.302  0.00  0.00    +0.000 C 
ATOM      7  N   UNL     1       4.046   6.212  18.557  0.00  0.00    +0.000 NA
ATOM      8  C   UNL     1       2.933   6.522  19.454  0.00  0.00    +0.000 C 
ATOM      9  C   UNL     1       3.658   5.353  17.413  0.00  0.00    +0.000 C 
ENDROOT
BRANCH   9  10
ATOM     10  C   UNL     1       3.041   4.001  17.806  0.00  0.00    +0.000 A 
ATOM     11  C   UNL     1       1.660   3.936  18.075  0.00  0.00    +0.000 A 
ATOM     12  C   UNL     1       1.062   2.759  18.534  0.00  0.00    +0.000 A 
ATOM     13  C   UNL     1       1.830   1.614  18.723  0.00  0.00    +0.000 A 
ATOM     14  C   UNL     1       3.190   1.645  18.435  0.00  0.00    +0.000 A 
ATOM     15  C   UNL     1       3.787   2.823  17.978  0.00  0.00    +0.000 A 
ENDBRANCH   9  10
TORSDOF 1
ENDMDL
MODEL 8
REMARK VINA RESULT:      -6.1      2.189      4.655
REMARK  Name = 
REMARK  3 active torsions:
REMARK  status: ('A' for Active; 'I' for Inactive)
REMARK    1  A    between atoms: C_1  and  C_2
REMARK    2  A    between atoms: N_7  and  C_8
REMARK    3  A    between atoms: C_9  and  C_10
REMARK                            x       y       z     vdW  Elec       q    Type
REMARK                         _______ _______ _______ _____ _____    ______ ____
ROOT
ATOM      1  C   UNL     1       6.365   5.036  14.599  0.00  0.00    +0.000 C 
ATOM      2  C   UNL     1       6.036   4.515  16.004  0.00  0.00    +0.000 C 
ATOM      3  C   UNL     1       7.179   4.894  16.915  0.00  0.00    +0.000 C 
ATOM      4  O   UNL     1       8.071   4.088  17.194  0.00  0.00    +0.000 OA
ATOM      5  C   UNL     1       7.261   6.327  17.381  0.00  0.00    +0.000 C 
ATOM      6  C   UNL     1       5.893   6.869  17.771  0.00  0.00    +0.000 C 
ATOM      7  N   UNL     1       4.853   6.542  16.793  0.00  0.00    +0.000 NA
ATOM      8  C   UNL     1       3.590   7.204  17.121  0.00  0.00    +0.000 C 
ATOM      9  C   UNL     1       4.708   5.085  16.557  0.00  0.00    +0.000 C 
ENDROOT
BRANCH   9  10
ATOM     10  C   UNL     1       4.110   4.300  17.736  0.00  0.00    +0.000 A 
ATOM     11  C   UNL     1       4.983   3.696  18.663  0.00  0.00    +0.000 A 
ATOM     12  C   UNL     1       4.501   2.886  19.695  0.00  0.00    +0.000 A 
ATOM     13  C   UNL     1       3.133   2.672  19.833  0.00  0.00    +0.000 A 
ATOM     14  C   UNL     1       2.251   3.282  18.950  0.00  0.00    +0.000 A 
ATOM     15  C   UNL     1       2.732   4.090  17.916  0.00  0.00    +0.000 A 
ENDBRANCH   9  10
TORSDOF 1
ENDMDL
MODEL 9
REMARK VINA RESULT:      -6.1      2.098      4.385
REMARK  Name = 
REMARK  3 active torsions:
REMARK  status: ('A' for Active; 'I' for Inactive)
REMARK    1  A    between atoms: C_1  and  C_2
REMARK    2  A    between atoms: N_7  and  C_8
REMARK    3  A    between atoms: C_9  and  C_10
REMARK                            x       y       z     vdW  Elec       q    Type
REMARK                         _______ _______ _______ _____ _____    ______ ____
ROOT
ATOM      1  C   UNL     1       5.248   4.094  19.297  0.00  0.00    +0.000 C 
ATOM      2  C   UNL     1       4.363   5.219  18.743  0.00  0.00    +0.000 C 
ATOM      3  C   UNL     1       3.950   4.832  17.343  0.00  0.00    +0.000 C 
ATOM      4  O   UNL     1       4.543   5.272  16.355  0.00  0.00    +0.000 OA
ATOM      5  C   UNL     1       2.863   3.795  17.192  0.00  0.00    +0.000 C 
ATOM      6  C   UNL     1       1.728   4.025  18.181  0.00  0.00    +0.000 C 
ATOM      7  N   UNL     1       2.204   4.303  19.537  0.00  0.00    +0.000 NA
ATOM      8  C   UNL     1       1.092   4.368  20.486  0.00  0.00    +0.000 C 
ATOM      9  C   UNL     1       3.109   5.475  19.613  0.00  0.00    +0.000 C 
ENDROOT
BRANCH   9  10
ATOM     10  C   UNL     1       2.424   6.831  19.372  0.00  0.00    +0.000 A 
ATOM     11  C   UNL     1       2.498   7.413  18.092  0.00  0.00    +0.000 A 
ATOM     12  C   UNL     1       1.984   8.688  17.840  0.00  0.00    +0.000 A 
ATOM     13  C   UNL     1       1.371   9.407  18.862  0.00  0.00    +0.000 A 
ATOM     14  C   UNL     1       1.259   8.841  20.127  0.00  0.00    +0.000 A 
ATOM     15  C   UNL     1       1.775   7.567  20.378  0.00  0.00    +0.000 A 
ENDBRANCH   9  10
TORSDOF 1
ENDMDL
