MODEL 1
REMARK VINA RESULT:      -9.4      0.000      0.000
REMARK  Name = 
REMARK  9 active torsions:
REMARK  status: ('A' for Active; 'I' for Inactive)
REMARK    1  A    between atoms: C_1  and  C_2
REMARK    2  A    between atoms: C_2  and  C_3
REMARK    3  A    between atoms: C_2  and  C_4
REMARK    4  A    between atoms: C_2  and  C_5
REMARK    5  A    between atoms: C_8  and  O_9
REMARK    6  A    between atoms: O_9  and  C_10
REMARK    7  A    between atoms: C_17  and  C_18
REMARK    8  A    between atoms: C_21  and  O_22
REMARK    9  A    between atoms: O_22  and  C_23
REMARK                            x       y       z     vdW  Elec       q    Type
REMARK                         _______ _______ _______ _____ _____    ______ ____
ROOT
ATOM      1  C   UNL     1       2.354   4.918  19.775  0.00  0.00    +0.000 A 
ATOM      2  C   UNL     1       1.185   4.566  20.371  0.00  0.00    +0.000 A 
ATOM      3  N   UNL     1       0.544   3.346  20.233  0.00  0.00    +0.000 NA
ATOM      4  C   UNL     1       1.072   2.488  19.406  0.00  0.00    +0.000 A 
ATOM      5  C   UNL     1       2.255   2.799  18.670  0.00  0.00    +0.000 A 
ATOM      6  N   UNL     1       2.848   2.071  17.762  0.00  0.00    +0.000 NA
ATOM      7  N   UNL     1       3.930   2.795  17.334  0.00  0.00    +0.000 NA
ATOM      8  C   UNL     1       3.999   3.935  18.018  0.00  0.00    +0.000 A 
ATOM      9  N   UNL     1       2.900   3.996  18.867  0.00  0.00    +0.000 N 
ENDROOT
BRANCH   8  10
ATOM     10  C   UNL     1       5.054   4.928  17.810  0.00  0.00    +0.000 A 
ATOM     11  C   UNL     1       4.814   6.014  16.952  0.00  0.00    +0.000 A 
ATOM     12  C   UNL     1       5.804   6.972  16.710  0.00  0.00    +0.000 A 
ATOM     13  C   UNL     1       7.045   6.875  17.337  0.00  0.00    +0.000 A 
ATOM     14  C   UNL     1       7.316   5.773  18.146  0.00  0.00    +0.000 A 
ATOM     15  C   UNL     1       6.332   4.799  18.360  0.00  0.00    +0.000 A 
BRANCH  13  16
ATOM     16  O   UNL     1       7.927   7.880  17.054  0.00  0.00    +0.000 OA
BRANCH  16  17
ATOM     17  C   UNL     1       8.078   8.851  18.077  0.00  0.00    +0.000 C 
ATOM     18  F   UNL     1       8.970   8.394  18.990  0.00  0.00    +0.000 F 
ATOM     19  F   UNL     1       8.629   9.953  17.511  0.00  0.00    +0.000 F 
ENDBRANCH  16  17
ENDBRANCH  13  16
ENDBRANCH   8  10
BRANCH   1  20
ATOM     20  O   UNL     1       2.985   6.139  20.005  0.00  0.00    +0.000 OA
BRANCH  20  24
ATOM     21  C   UNL     1       0.679   9.614  19.395  0.00  0.00    +0.000 A 
ATOM     22  C   UNL     1       0.743   9.015  20.660  0.00  0.00    +0.000 A 
ATOM     23  C   UNL     1       1.545   7.897  20.896  0.00  0.00    +0.000 A 
ATOM     24  C   UNL     1       2.255   7.303  19.852  0.00  0.00    +0.000 A 
ATOM     25  C   UNL     1       2.258   7.910  18.601  0.00  0.00    +0.000 A 
ATOM     26  C   UNL     1       1.477   9.055  18.377  0.00  0.00    +0.000 A 
BRANCH  21  28
ATOM     27  C   UNL     1      -0.999  11.318  20.371  0.00  0.00    +0.000 C 
ATOM     28  C   UNL     1      -0.202  10.850  19.129  0.00  0.00    +0.000 C 
ATOM     29  C   UNL     1      -1.236  10.550  18.023  0.00  0.00    +0.000 C 
ATOM     30  C   UNL     1       0.695  12.023  18.687  0.00  0.00    +0.000 C 
ENDBRANCH  21  28
ENDBRANCH  20  24
ENDBRANCH   1  20
TORSDOF 6
ENDMDL
MODEL 2
REMARK VINA RESULT:      -9.4      0.245      1.218
REMARK  Name = 
REMARK  9 active torsions:
REMARK  status: ('A' for Active; 'I' for Inactive)
REMARK    1  A    between atoms: C_1  and  C_2
REMARK    2  A    between atoms: C_2  and  C_3
REMARK    3  A    between atoms: C_2  and  C_4
REMARK    4  A    between atoms: C_2  and  C_5
REMARK    5  A    between atoms: C_8  and  O_9
REMARK    6  A    between atoms: O_9  and  C_10
REMARK    7  A    between atoms: C_17  and  C_18
REMARK    8  A    between atoms: C_21  and  O_22
REMARK    9  A    between atoms: O_22  and  C_23
REMARK                            x       y       z     vdW  Elec       q    Type
REMARK                         _______ _______ _______ _____ _____    ______ ____
ROOT
ATOM      1  C   UNL     1       2.398   4.756  19.831  0.00  0.00    +0.000 A 
ATOM      2  C   UNL     1       1.249   4.357  20.434  0.00  0.00    +0.000 A 
ATOM      3  N   UNL     1       0.635   3.127  20.266  0.00  0.00    +0.000 NA
ATOM      4  C   UNL     1       1.169   2.310  19.403  0.00  0.00    +0.000 A 
ATOM      5  C   UNL     1       2.332   2.673  18.658  0.00  0.00    +0.000 A 
ATOM      6  N   UNL     1       2.926   1.989  17.718  0.00  0.00    +0.000 NA
ATOM      7  N   UNL     1       3.983   2.753  17.296  0.00  0.00    +0.000 NA
ATOM      8  C   UNL     1       4.037   3.871  18.016  0.00  0.00    +0.000 A 
ATOM      9  N   UNL     1       2.952   3.878  18.884  0.00  0.00    +0.000 N 
ENDROOT
BRANCH   8  10
ATOM     10  C   UNL     1       5.064   4.897  17.825  0.00  0.00    +0.000 A 
ATOM     11  C   UNL     1       4.890   5.862  16.819  0.00  0.00    +0.000 A 
ATOM     12  C   UNL     1       5.860   6.844  16.590  0.00  0.00    +0.000 A 
ATOM     13  C   UNL     1       7.011   6.893  17.374  0.00  0.00    +0.000 A 
ATOM     14  C   UNL     1       7.223   5.907  18.336  0.00  0.00    +0.000 A 
ATOM     15  C   UNL     1       6.264   4.907  18.541  0.00  0.00    +0.000 A 
BRANCH  13  16
ATOM     16  O   UNL     1       7.876   7.910  17.085  0.00  0.00    +0.000 OA
BRANCH  16  17
ATOM     17  C   UNL     1       7.997   8.899  18.094  0.00  0.00    +0.000 C 
ATOM     18  F   UNL     1       9.004   8.553  18.933  0.00  0.00    +0.000 F 
ATOM     19  F   UNL     1       8.373  10.053  17.488  0.00  0.00    +0.000 F 
ENDBRANCH  16  17
ENDBRANCH  13  16
ENDBRANCH   8  10
BRANCH   1  20
ATOM     20  O   UNL     1       3.005   5.985  20.091  0.00  0.00    +0.000 OA
BRANCH  20  24
ATOM     21  C   UNL     1       0.925   9.591  19.426  0.00  0.00    +0.000 A 
ATOM     22  C   UNL     1       1.642   8.980  18.389  0.00  0.00    +0.000 A 
ATOM     23  C   UNL     1       2.290   7.757  18.573  0.00  0.00    +0.000 A 
ATOM     24  C   UNL     1       2.298   7.143  19.825  0.00  0.00    +0.000 A 
ATOM     25  C   UNL     1       1.547   7.695  20.857  0.00  0.00    +0.000 A 
ATOM     26  C   UNL     1       0.867   8.907  20.658  0.00  0.00    +0.000 A 
BRANCH  21  28
ATOM     27  C   UNL     1       1.128  12.056  18.684  0.00  0.00    +0.000 C 
ATOM     28  C   UNL     1       0.205  10.938  19.228  0.00  0.00    +0.000 C 
ATOM     29  C   UNL     1      -0.370  11.447  20.567  0.00  0.00    +0.000 C 
ATOM     30  C   UNL     1      -0.942  10.753  18.216  0.00  0.00    +0.000 C 
ENDBRANCH  21  28
ENDBRANCH  20  24
ENDBRANCH   1  20
TORSDOF 6
ENDMDL
MODEL 3
REMARK VINA RESULT:      -9.3      0.177      1.251
REMARK  Name = 
REMARK  9 active torsions:
REMARK  status: ('A' for Active; 'I' for Inactive)
REMARK    1  A    between atoms: C_1  and  C_2
REMARK    2  A    between atoms: C_2  and  C_3
REMARK    3  A    between atoms: C_2  and  C_4
REMARK    4  A    between atoms: C_2  and  C_5
REMARK    5  A    between atoms: C_8  and  O_9
REMARK    6  A    between atoms: O_9  and  C_10
REMARK    7  A    between atoms: C_17  and  C_18
REMARK    8  A    between atoms: C_21  and  O_22
REMARK    9  A    between atoms: O_22  and  C_23
REMARK                            x       y       z     vdW  Elec       q    Type
REMARK                         _______ _______ _______ _____ _____    ______ ____
ROOT
ATOM      1  C   UNL     1       2.441   4.879  19.859  0.00  0.00    +0.000 A 
ATOM      2  C   UNL     1       1.331   4.486  20.536  0.00  0.00    +0.000 A 
ATOM      3  N   UNL     1       0.744   3.233  20.465  0.00  0.00    +0.000 NA
ATOM      4  C   UNL     1       1.262   2.382  19.625  0.00  0.00    +0.000 A 
ATOM      5  C   UNL     1       2.380   2.731  18.808  0.00  0.00    +0.000 A 
ATOM      6  N   UNL     1       2.950   2.011  17.881  0.00  0.00    +0.000 NA
ATOM      7  N   UNL     1       3.966   2.775  17.370  0.00  0.00    +0.000 NA
ATOM      8  C   UNL     1       4.021   3.933  18.023  0.00  0.00    +0.000 A 
ATOM      9  N   UNL     1       2.976   3.963  18.939  0.00  0.00    +0.000 N 
ENDROOT
BRANCH   8  10
ATOM     10  C   UNL     1       5.010   4.971  17.728  0.00  0.00    +0.000 A 
ATOM     11  C   UNL     1       6.232   4.971  18.422  0.00  0.00    +0.000 A 
ATOM     12  C   UNL     1       7.193   5.959  18.184  0.00  0.00    +0.000 A 
ATOM     13  C   UNL     1       6.962   6.953  17.236  0.00  0.00    +0.000 A 
ATOM     14  C   UNL     1       5.732   6.998  16.582  0.00  0.00    +0.000 A 
ATOM     15  C   UNL     1       4.760   6.025  16.846  0.00  0.00    +0.000 A 
BRANCH  13  16
ATOM     16  O   UNL     1       7.979   7.848  17.062  0.00  0.00    +0.000 OA
BRANCH  16  17
ATOM     17  C   UNL     1       8.096   8.827  18.082  0.00  0.00    +0.000 C 
ATOM     18  F   UNL     1       8.964   8.381  19.023  0.00  0.00    +0.000 F 
ATOM     19  F   UNL     1       8.658   9.928  17.524  0.00  0.00    +0.000 F 
ENDBRANCH  16  17
ENDBRANCH  13  16
ENDBRANCH   8  10
BRANCH   1  20
ATOM     20  O   UNL     1       3.024   6.135  20.023  0.00  0.00    +0.000 OA
BRANCH  20  24
ATOM     21  C   UNL     1       0.778   9.644  19.384  0.00  0.00    +0.000 A 
ATOM     22  C   UNL     1       1.464   9.034  18.325  0.00  0.00    +0.000 A 
ATOM     23  C   UNL     1       2.167   7.842  18.503  0.00  0.00    +0.000 A 
ATOM     24  C   UNL     1       2.262   7.259  19.767  0.00  0.00    +0.000 A 
ATOM     25  C   UNL     1       1.543   7.808  20.824  0.00  0.00    +0.000 A 
ATOM     26  C   UNL     1       0.808   8.989  20.632  0.00  0.00    +0.000 A 
BRANCH  21  28
ATOM     27  C   UNL     1      -0.679  11.468  20.487  0.00  0.00    +0.000 C 
ATOM     28  C   UNL     1      -0.002  10.958  19.192  0.00  0.00    +0.000 C 
ATOM     29  C   UNL     1      -1.122  10.775  18.145  0.00  0.00    +0.000 C 
ATOM     30  C   UNL     1       0.969  12.056  18.715  0.00  0.00    +0.000 C 
ENDBRANCH  21  28
ENDBRANCH  20  24
ENDBRANCH   1  20
TORSDOF 6
ENDMDL
MODEL 4
REMARK VINA RESULT:      -9.2      0.195      1.187
REMARK  Name = 
REMARK  9 active torsions:
REMARK  status: ('A' for Active; 'I' for Inactive)
REMARK    1  A    between atoms: C_1  and  C_2
REMARK    2  A    between atoms: C_2  and  C_3
REMARK    3  A    between atoms: C_2  and  C_4
REMARK    4  A    between atoms: C_2  and  C_5
REMARK    5  A    between atoms: C_8  and  O_9
REMARK    6  A    between atoms: O_9  and  C_10
REMARK    7  A    between atoms: C_17  and  C_18
REMARK    8  A    between atoms: C_21  and  O_22
REMARK    9  A    between atoms: O_22  and  C_23
REMARK                            x       y       z     vdW  Elec       q    Type
REMARK                         _______ _______ _______ _____ _____    ______ ____
ROOT
ATOM      1  C   UNL     1       2.411   4.907  19.922  0.00  0.00    +0.000 A 
ATOM      2  C   UNL     1       1.314   4.529  20.627  0.00  0.00    +0.000 A 
ATOM      3  N   UNL     1       0.691   3.294  20.549  0.00  0.00    +0.000 NA
ATOM      4  C   UNL     1       1.156   2.449  19.674  0.00  0.00    +0.000 A 
ATOM      5  C   UNL     1       2.256   2.785  18.828  0.00  0.00    +0.000 A 
ATOM      6  N   UNL     1       2.775   2.071  17.866  0.00  0.00    +0.000 NA
ATOM      7  N   UNL     1       3.794   2.819  17.337  0.00  0.00    +0.000 NA
ATOM      8  C   UNL     1       3.902   3.961  18.013  0.00  0.00    +0.000 A 
ATOM      9  N   UNL     1       2.889   3.997  18.964  0.00  0.00    +0.000 N 
ENDROOT
BRANCH   8  10
ATOM     10  C   UNL     1       4.910   4.978  17.707  0.00  0.00    +0.000 A 
ATOM     11  C   UNL     1       6.045   5.088  18.528  0.00  0.00    +0.000 A 
ATOM     12  C   UNL     1       7.018   6.062  18.282  0.00  0.00    +0.000 A 
ATOM     13  C   UNL     1       6.886   6.931  17.200  0.00  0.00    +0.000 A 
ATOM     14  C   UNL     1       5.738   6.871  16.413  0.00  0.00    +0.000 A 
ATOM     15  C   UNL     1       4.751   5.914  16.682  0.00  0.00    +0.000 A 
BRANCH  13  16
ATOM     16  O   UNL     1       7.909   7.822  17.035  0.00  0.00    +0.000 OA
BRANCH  16  17
ATOM     17  C   UNL     1       8.054   8.769  18.080  0.00  0.00    +0.000 C 
ATOM     18  F   UNL     1       8.981   8.317  18.960  0.00  0.00    +0.000 F 
ATOM     19  F   UNL     1       8.556   9.904  17.532  0.00  0.00    +0.000 F 
ENDBRANCH  16  17
ENDBRANCH  13  16
ENDBRANCH   8  10
BRANCH   1  20
ATOM     20  O   UNL     1       3.034   6.143  20.093  0.00  0.00    +0.000 OA
BRANCH  20  24
ATOM     21  C   UNL     1       0.678   9.571  19.411  0.00  0.00    +0.000 A 
ATOM     22  C   UNL     1       0.743   8.992  20.686  0.00  0.00    +0.000 A 
ATOM     23  C   UNL     1       1.561   7.892  20.946  0.00  0.00    +0.000 A 
ATOM     24  C   UNL     1       2.287   7.292  19.916  0.00  0.00    +0.000 A 
ATOM     25  C   UNL     1       2.288   7.879  18.655  0.00  0.00    +0.000 A 
ATOM     26  C   UNL     1       1.491   9.007  18.407  0.00  0.00    +0.000 A 
BRANCH  21  28
ATOM     27  C   UNL     1      -1.258  10.534  17.999  0.00  0.00    +0.000 C 
ATOM     28  C   UNL     1      -0.221  10.788  19.120  0.00  0.00    +0.000 C 
ATOM     29  C   UNL     1       0.632  11.995  18.675  0.00  0.00    +0.000 C 
ATOM     30  C   UNL     1      -1.001  11.155  20.397  0.00  0.00    +0.000 C 
ENDBRANCH  21  28
ENDBRANCH  20  24
ENDBRANCH   1  20
TORSDOF 6
ENDMDL
MODEL 5
REMARK VINA RESULT:      -9.1      0.467      1.349
REMARK  Name = 
REMARK  9 active torsions:
REMARK  status: ('A' for Active; 'I' for Inactive)
REMARK    1  A    between atoms: C_1  and  C_2
REMARK    2  A    between atoms: C_2  and  C_3
REMARK    3  A    between atoms: C_2  and  C_4
REMARK    4  A    between atoms: C_2  and  C_5
REMARK    5  A    between atoms: C_8  and  O_9
REMARK    6  A    between atoms: O_9  and  C_10
REMARK    7  A    between atoms: C_17  and  C_18
REMARK    8  A    between atoms: C_21  and  O_22
REMARK    9  A    between atoms: O_22  and  C_23
REMARK                            x       y       z     vdW  Elec       q    Type
REMARK                         _______ _______ _______ _____ _____    ______ ____
ROOT
ATOM      1  C   UNL     1       2.400   4.881  19.788  0.00  0.00    +0.000 A 
ATOM      2  C   UNL     1       1.282   4.586  20.499  0.00  0.00    +0.000 A 
ATOM      3  N   UNL     1       0.623   3.368  20.499  0.00  0.00    +0.000 NA
ATOM      4  C   UNL     1       1.076   2.449  19.695  0.00  0.00    +0.000 A 
ATOM      5  C   UNL     1       2.197   2.692  18.845  0.00  0.00    +0.000 A 
ATOM      6  N   UNL     1       2.709   1.896  17.946  0.00  0.00    +0.000 NA
ATOM      7  N   UNL     1       3.757   2.574  17.382  0.00  0.00    +0.000 NA
ATOM      8  C   UNL     1       3.890   3.758  17.977  0.00  0.00    +0.000 A 
ATOM      9  N   UNL     1       2.865   3.891  18.906  0.00  0.00    +0.000 N 
ENDROOT
BRANCH   8  10
ATOM     10  C   UNL     1       4.932   4.721  17.616  0.00  0.00    +0.000 A 
ATOM     11  C   UNL     1       6.168   4.674  18.282  0.00  0.00    +0.000 A 
ATOM     12  C   UNL     1       7.181   5.592  17.982  0.00  0.00    +0.000 A 
ATOM     13  C   UNL     1       6.985   6.558  16.997  0.00  0.00    +0.000 A 
ATOM     14  C   UNL     1       5.744   6.652  16.370  0.00  0.00    +0.000 A 
ATOM     15  C   UNL     1       4.722   5.751  16.696  0.00  0.00    +0.000 A 
BRANCH  13  16
ATOM     16  O   UNL     1       8.049   7.383  16.763  0.00  0.00    +0.000 OA
BRANCH  16  17
ATOM     17  C   UNL     1       8.138   8.506  17.625  0.00  0.00    +0.000 C 
ATOM     18  F   UNL     1       6.886   8.933  17.923  0.00  0.00    +0.000 F 
ATOM     19  F   UNL     1       8.693   8.082  18.788  0.00  0.00    +0.000 F 
ENDBRANCH  16  17
ENDBRANCH  13  16
ENDBRANCH   8  10
BRANCH   1  20
ATOM     20  O   UNL     1       3.057   6.107  19.880  0.00  0.00    +0.000 OA
BRANCH  20  24
ATOM     21  C   UNL     1       0.719   9.573  19.341  0.00  0.00    +0.000 A 
ATOM     22  C   UNL     1       0.819   8.969  20.602  0.00  0.00    +0.000 A 
ATOM     23  C   UNL     1       1.632   7.855  20.814  0.00  0.00    +0.000 A 
ATOM     24  C   UNL     1       2.318   7.267  19.750  0.00  0.00    +0.000 A 
ATOM     25  C   UNL     1       2.285   7.878  18.501  0.00  0.00    +0.000 A 
ATOM     26  C   UNL     1       1.493   9.020  18.301  0.00  0.00    +0.000 A 
BRANCH  21  28
ATOM     27  C   UNL     1       0.612  12.059  18.653  0.00  0.00    +0.000 C 
ATOM     28  C   UNL     1      -0.175  10.805  19.102  0.00  0.00    +0.000 C 
ATOM     29  C   UNL     1      -0.925  11.187  20.396  0.00  0.00    +0.000 C 
ATOM     30  C   UNL     1      -1.197  10.479  17.996  0.00  0.00    +0.000 C 
ENDBRANCH  21  28
ENDBRANCH  20  24
ENDBRANCH   1  20
TORSDOF 6
ENDMDL
MODEL 6
REMARK VINA RESULT:      -9.1      0.541      1.355
REMARK  Name = 
REMARK  9 active torsions:
REMARK  status: ('A' for Active; 'I' for Inactive)
REMARK    1  A    between atoms: C_1  and  C_2
REMARK    2  A    between atoms: C_2  and  C_3
REMARK    3  A    between atoms: C_2  and  C_4
REMARK    4  A    between atoms: C_2  and  C_5
REMARK    5  A    between atoms: C_8  and  O_9
REMARK    6  A    between atoms: O_9  and  C_10
REMARK    7  A    between atoms: C_17  and  C_18
REMARK    8  A    between atoms: C_21  and  O_22
REMARK    9  A    between atoms: O_22  and  C_23
REMARK                            x       y       z     vdW  Elec       q    Type
REMARK                         _______ _______ _______ _____ _____    ______ ____
ROOT
ATOM      1  C   UNL     1       2.378   4.759  19.760  0.00  0.00    +0.000 A 
ATOM      2  C   UNL     1       1.220   4.461  20.404  0.00  0.00    +0.000 A 
ATOM      3  N   UNL     1       0.553   3.249  20.345  0.00  0.00    +0.000 NA
ATOM      4  C   UNL     1       1.042   2.341  19.549  0.00  0.00    +0.000 A 
ATOM      5  C   UNL     1       2.209   2.590  18.766  0.00  0.00    +0.000 A 
ATOM      6  N   UNL     1       2.763   1.806  17.881  0.00  0.00    +0.000 NA
ATOM      7  N   UNL     1       3.846   2.485  17.389  0.00  0.00    +0.000 NA
ATOM      8  C   UNL     1       3.956   3.657  18.011  0.00  0.00    +0.000 A 
ATOM      9  N   UNL     1       2.882   3.782  18.885  0.00  0.00    +0.000 N 
ENDROOT
BRANCH   8  10
ATOM     10  C   UNL     1       5.023   4.617  17.726  0.00  0.00    +0.000 A 
ATOM     11  C   UNL     1       4.855   5.536  16.676  0.00  0.00    +0.000 A 
ATOM     12  C   UNL     1       5.862   6.454  16.358  0.00  0.00    +0.000 A 
ATOM     13  C   UNL     1       7.044   6.486  17.095  0.00  0.00    +0.000 A 
ATOM     14  C   UNL     1       7.247   5.543  18.101  0.00  0.00    +0.000 A 
ATOM     15  C   UNL     1       6.249   4.605  18.395  0.00  0.00    +0.000 A 
BRANCH  13  16
ATOM     16  O   UNL     1       7.945   7.442  16.719  0.00  0.00    +0.000 OA
BRANCH  16  17
ATOM     17  C   UNL     1       8.071   8.533  17.616  0.00  0.00    +0.000 C 
ATOM     18  F   UNL     1       6.834   8.937  17.995  0.00  0.00    +0.000 F 
ATOM     19  F   UNL     1       8.690   8.071  18.731  0.00  0.00    +0.000 F 
ENDBRANCH  16  17
ENDBRANCH  13  16
ENDBRANCH   8  10
BRANCH   1  20
ATOM     20  O   UNL     1       3.038   5.978  19.911  0.00  0.00    +0.000 OA
BRANCH  20  24
ATOM     21  C   UNL     1       0.976   9.614  19.372  0.00  0.00    +0.000 A 
ATOM     22  C   UNL     1       1.622   8.995  18.294  0.00  0.00    +0.000 A 
ATOM     23  C   UNL     1       2.262   7.763  18.439  0.00  0.00    +0.000 A 
ATOM     24  C   UNL     1       2.334   7.146  19.688  0.00  0.00    +0.000 A 
ATOM     25  C   UNL     1       1.653   7.708  20.763  0.00  0.00    +0.000 A 
ATOM     26  C   UNL     1       0.981   8.930  20.604  0.00  0.00    +0.000 A 
BRANCH  21  28
ATOM     27  C   UNL     1      -0.940  10.930  18.248  0.00  0.00    +0.000 C 
ATOM     28  C   UNL     1       0.265  10.973  19.217  0.00  0.00    +0.000 C 
ATOM     29  C   UNL     1       1.242  12.035  18.669  0.00  0.00    +0.000 C 
ATOM     30  C   UNL     1      -0.263  11.425  20.593  0.00  0.00    +0.000 C 
ENDBRANCH  21  28
ENDBRANCH  20  24
ENDBRANCH   1  20
TORSDOF 6
ENDMDL
MODEL 7
REMARK VINA RESULT:      -8.4      1.267      1.376
REMARK  Name = 
REMARK  9 active torsions:
REMARK  status: ('A' for Active; 'I' for Inactive)
REMARK    1  A    between atoms: C_1  and  C_2
REMARK    2  A    between atoms: C_2  and  C_3
REMARK    3  A    between atoms: C_2  and  C_4
REMARK    4  A    between atoms: C_2  and  C_5
REMARK    5  A    between atoms: C_8  and  O_9
REMARK    6  A    between atoms: O_9  and  C_10
REMARK    7  A    between atoms: C_17  and  C_18
REMARK    8  A    between atoms: C_21  and  O_22
REMARK    9  A    between atoms: O_22  and  C_23
REMARK                            x       y       z     vdW  Elec       q    Type
REMARK                         _______ _______ _______ _____ _____    ______ ____
ROOT
ATOM      1  C   UNL     1       2.525   4.773  18.354  0.00  0.00    +0.000 A 
ATOM      2  C   UNL     1       1.275   4.242  18.374  0.00  0.00    +0.000 A 
ATOM      3  N   UNL     1       0.926   3.021  18.927  0.00  0.00    +0.000 NA
ATOM      4  C   UNL     1       1.891   2.290  19.408  0.00  0.00    +0.000 A 
ATOM      5  C   UNL     1       3.250   2.726  19.358  0.00  0.00    +0.000 A 
ATOM      6  N   UNL     1       4.316   2.072  19.732  0.00  0.00    +0.000 NA
ATOM      7  N   UNL     1       5.382   2.894  19.476  0.00  0.00    +0.000 NA
ATOM      8  C   UNL     1       4.942   4.051  18.986  0.00  0.00    +0.000 A 
ATOM      9  N   UNL     1       3.561   3.965  18.851  0.00  0.00    +0.000 N 
ENDROOT
BRANCH   8  10
ATOM     10  C   UNL     1       5.831   5.156  18.622  0.00  0.00    +0.000 A 
ATOM     11  C   UNL     1       5.529   5.936  17.494  0.00  0.00    +0.000 A 
ATOM     12  C   UNL     1       6.367   6.986  17.102  0.00  0.00    +0.000 A 
ATOM     13  C   UNL     1       7.509   7.288  17.840  0.00  0.00    +0.000 A 
ATOM     14  C   UNL     1       7.851   6.486  18.927  0.00  0.00    +0.000 A 
ATOM     15  C   UNL     1       7.027   5.417  19.298  0.00  0.00    +0.000 A 
BRANCH  13  16
ATOM     16  O   UNL     1       8.238   8.351  17.385  0.00  0.00    +0.000 OA
BRANCH  16  17
ATOM     17  C   UNL     1       8.309   9.453  18.275  0.00  0.00    +0.000 C 
ATOM     18  F   UNL     1       9.467   9.380  18.976  0.00  0.00    +0.000 F 
ATOM     19  F   UNL     1       8.380  10.578  17.520  0.00  0.00    +0.000 F 
ENDBRANCH  16  17
ENDBRANCH  13  16
ENDBRANCH   8  10
BRANCH   1  20
ATOM     20  O   UNL     1       2.803   6.038  17.839  0.00  0.00    +0.000 OA
BRANCH  20  24
ATOM     21  C   UNL     1       1.086   9.414  19.690  0.00  0.00    +0.000 A 
ATOM     22  C   UNL     1       1.484   8.308  20.453  0.00  0.00    +0.000 A 
ATOM     23  C   UNL     1       2.106   7.205  19.867  0.00  0.00    +0.000 A 
ATOM     24  C   UNL     1       2.285   7.145  18.484  0.00  0.00    +0.000 A 
ATOM     25  C   UNL     1       1.955   8.252  17.709  0.00  0.00    +0.000 A 
ATOM     26  C   UNL     1       1.361   9.375  18.308  0.00  0.00    +0.000 A 
BRANCH  21  28
ATOM     27  C   UNL     1       0.191  10.493  21.858  0.00  0.00    +0.000 C 
ATOM     28  C   UNL     1       0.402  10.636  20.332  0.00  0.00    +0.000 C 
ATOM     29  C   UNL     1      -0.991  10.867  19.708  0.00  0.00    +0.000 C 
ATOM     30  C   UNL     1       1.279  11.883  20.101  0.00  0.00    +0.000 C 
ENDBRANCH  21  28
ENDBRANCH  20  24
ENDBRANCH   1  20
TORSDOF 6
ENDMDL
MODEL 8
REMARK VINA RESULT:      -8.3      1.061      1.082
REMARK  Name = 
REMARK  9 active torsions:
REMARK  status: ('A' for Active; 'I' for Inactive)
REMARK    1  A    between atoms: C_1  and  C_2
REMARK    2  A    between atoms: C_2  and  C_3
REMARK    3  A    between atoms: C_2  and  C_4
REMARK    4  A    between atoms: C_2  and  C_5
REMARK    5  A    between atoms: C_8  and  O_9
REMARK    6  A    between atoms: O_9  and  C_10
REMARK    7  A    between atoms: C_17  and  C_18
REMARK    8  A    between atoms: C_21  and  O_22
REMARK    9  A    between atoms: O_22  and  C_23
REMARK                            x       y       z     vdW  Elec       q    Type
REMARK                         _______ _______ _______ _____ _____    ______ ____
ROOT
ATOM      1  C   UNL     1       2.534   5.691  19.821  0.00  0.00    +0.000 A 
ATOM      2  C   UNL     1       1.272   5.414  20.237  0.00  0.00    +0.000 A 
ATOM      3  N   UNL     1       0.791   4.160  20.575  0.00  0.00    +0.000 NA
ATOM      4  C   UNL     1       1.599   3.151  20.413  0.00  0.00    +0.000 A 
ATOM      5  C   UNL     1       2.919   3.332  19.902  0.00  0.00    +0.000 A 
ATOM      6  N   UNL     1       3.804   2.413  19.622  0.00  0.00    +0.000 NA
ATOM      7  N   UNL     1       4.907   3.071  19.147  0.00  0.00    +0.000 NA
ATOM      8  C   UNL     1       4.689   4.384  19.182  0.00  0.00    +0.000 A 
ATOM      9  N   UNL     1       3.389   4.594  19.626  0.00  0.00    +0.000 N 
ENDROOT
BRANCH   8  10
ATOM     10  C   UNL     1       5.683   5.371  18.755  0.00  0.00    +0.000 A 
ATOM     11  C   UNL     1       5.382   6.225  17.681  0.00  0.00    +0.000 A 
ATOM     12  C   UNL     1       6.314   7.166  17.229  0.00  0.00    +0.000 A 
ATOM     13  C   UNL     1       7.554   7.284  17.853  0.00  0.00    +0.000 A 
ATOM     14  C   UNL     1       7.887   6.404  18.881  0.00  0.00    +0.000 A 
ATOM     15  C   UNL     1       6.963   5.443  19.310  0.00  0.00    +0.000 A 
BRANCH  13  16
ATOM     16  O   UNL     1       8.374   8.255  17.351  0.00  0.00    +0.000 OA
BRANCH  16  17
ATOM     17  C   UNL     1       8.430   9.448  18.116  0.00  0.00    +0.000 C 
ATOM     18  F   UNL     1       9.106   9.202  19.266  0.00  0.00    +0.000 F 
ATOM     19  F   UNL     1       9.167  10.345  17.414  0.00  0.00    +0.000 F 
ENDBRANCH  16  17
ENDBRANCH  13  16
ENDBRANCH   8  10
BRANCH   1  20
ATOM     20  O   UNL     1       2.979   6.986  19.558  0.00  0.00    +0.000 OA
BRANCH  20  24
ATOM     21  C   UNL     1       0.069  10.021  19.258  0.00  0.00    +0.000 A 
ATOM     22  C   UNL     1       0.354   9.426  20.495  0.00  0.00    +0.000 A 
ATOM     23  C   UNL     1       1.353   8.461  20.625  0.00  0.00    +0.000 A 
ATOM     24  C   UNL     1       2.051   8.009  19.505  0.00  0.00    +0.000 A 
ATOM     25  C   UNL     1       1.831   8.622  18.276  0.00  0.00    +0.000 A 
ATOM     26  C   UNL     1       0.850   9.618  18.156  0.00  0.00    +0.000 A 
BRANCH  21  28
ATOM     27  C   UNL     1      -1.604  11.577  20.462  0.00  0.00    +0.000 C 
ATOM     28  C   UNL     1      -1.030  11.090  19.109  0.00  0.00    +0.000 C 
ATOM     29  C   UNL     1      -2.218  10.534  18.294  0.00  0.00    +0.000 C 
ATOM     30  C   UNL     1      -0.444  12.318  18.386  0.00  0.00    +0.000 C 
ENDBRANCH  21  28
ENDBRANCH  20  24
ENDBRANCH   1  20
TORSDOF 6
ENDMDL
MODEL 9
REMARK VINA RESULT:      -8.2      1.253      1.776
REMARK  Name = 
REMARK  9 active torsions:
REMARK  status: ('A' for Active; 'I' for Inactive)
REMARK    1  A    between atoms: C_1  and  C_2
REMARK    2  A    between atoms: C_2  and  C_3
REMARK    3  A    between atoms: C_2  and  C_4
REMARK    4  A    between atoms: C_2  and  C_5
REMARK    5  A    between atoms: C_8  and  O_9
REMARK    6  A    between atoms: O_9  and  C_10
REMARK    7  A    between atoms: C_17  and  C_18
REMARK    8  A    between atoms: C_21  and  O_22
REMARK    9  A    between atoms: O_22  and  C_23
REMARK                            x       y       z     vdW  Elec       q    Type
REMARK                         _______ _______ _______ _____ _____    ______ ____
ROOT
ATOM      1  C   UNL     1       2.446   4.914  18.474  0.00  0.00    +0.000 A 
ATOM      2  C   UNL     1       1.200   4.386  18.582  0.00  0.00    +0.000 A 
ATOM      3  N   UNL     1       0.885   3.176  19.178  0.00  0.00    +0.000 NA
ATOM      4  C   UNL     1       1.878   2.452  19.611  0.00  0.00    +0.000 A 
ATOM      5  C   UNL     1       3.231   2.885  19.468  0.00  0.00    +0.000 A 
ATOM      6  N   UNL     1       4.318   2.236  19.786  0.00  0.00    +0.000 NA
ATOM      7  N   UNL     1       5.366   3.052  19.449  0.00  0.00    +0.000 NA
ATOM      8  C   UNL     1       4.897   4.200  18.966  0.00  0.00    +0.000 A 
ATOM      9  N   UNL     1       3.511   4.115  18.920  0.00  0.00    +0.000 N 
ENDROOT
BRANCH   8  10
ATOM     10  C   UNL     1       5.763   5.296  18.528  0.00  0.00    +0.000 A 
ATOM     11  C   UNL     1       6.977   5.521  19.199  0.00  0.00    +0.000 A 
ATOM     12  C   UNL     1       7.821   6.572  18.824  0.00  0.00    +0.000 A 
ATOM     13  C   UNL     1       7.478   7.405  17.761  0.00  0.00    +0.000 A 
ATOM     14  C   UNL     1       6.251   7.229  17.125  0.00  0.00    +0.000 A 
ATOM     15  C   UNL     1       5.395   6.195  17.523  0.00  0.00    +0.000 A 
BRANCH  13  16
ATOM     16  O   UNL     1       8.388   8.379  17.461  0.00  0.00    +0.000 OA
BRANCH  16  17
ATOM     17  C   UNL     1       8.402   9.481  18.354  0.00  0.00    +0.000 C 
ATOM     18  F   UNL     1       9.389   9.298  19.264  0.00  0.00    +0.000 F 
ATOM     19  F   UNL     1       8.735  10.582  17.633  0.00  0.00    +0.000 F 
ENDBRANCH  16  17
ENDBRANCH  13  16
ENDBRANCH   8  10
BRANCH   1  20
ATOM     20  O   UNL     1       2.692   6.170  17.920  0.00  0.00    +0.000 OA
BRANCH  20  24
ATOM     21  C   UNL     1       0.969   9.567  19.726  0.00  0.00    +0.000 A 
ATOM     22  C   UNL     1       1.415   8.493  20.508  0.00  0.00    +0.000 A 
ATOM     23  C   UNL     1       2.040   7.384  19.934  0.00  0.00    +0.000 A 
ATOM     24  C   UNL     1       2.173   7.286  18.548  0.00  0.00    +0.000 A 
ATOM     25  C   UNL     1       1.794   8.361  17.752  0.00  0.00    +0.000 A 
ATOM     26  C   UNL     1       1.198   9.490  18.337  0.00  0.00    +0.000 A 
BRANCH  21  28
ATOM     27  C   UNL     1      -0.870  11.364  19.492  0.00  0.00    +0.000 C 
ATOM     28  C   UNL     1       0.282  10.794  20.354  0.00  0.00    +0.000 C 
ATOM     29  C   UNL     1       1.298  11.939  20.555  0.00  0.00    +0.000 C 
ATOM     30  C   UNL     1      -0.314  10.395  21.718  0.00  0.00    +0.000 C 
ENDBRANCH  21  28
ENDBRANCH  20  24
ENDBRANCH   1  20
TORSDOF 6
ENDMDL
