MODEL 1
REMARK VINA RESULT:      -7.5      0.000      0.000
REMARK  Name = 
REMARK  11 active torsions:
REMARK  status: ('A' for Active; 'I' for Inactive)
REMARK    1  A    between atoms: C_1  and  C_2
REMARK    2  A    between atoms: C_2  and  C_3
REMARK    3  A    between atoms: C_3  and  C_4
REMARK    4  A    between atoms: C_4  and  C_5
REMARK    5  A    between atoms: C_5  and  C_6
REMARK    6  A    between atoms: C_6  and  C_7
REMARK    7  A    between atoms: C_7  and  C_8
REMARK    8  A    between atoms: C_8  and  C_9
REMARK    9  A    between atoms: C_9  and  N_10
REMARK   10  A    between atoms: C_15  and  O_16
REMARK   11  A    between atoms: C_17  and  O_18
REMARK                            x       y       z     vdW  Elec       q    Type
REMARK                         _______ _______ _______ _____ _____    ______ ____
ROOT
ATOM      1  N   UNL     1       6.009   4.539  17.563  0.00  0.00    +0.000 NA
ATOM      2  C   UNL     1       5.489   5.768  18.180  0.00  0.00    +0.000 C 
ATOM      3  C   UNL     1       4.600   5.477  19.400  0.00  0.00    +0.000 C 
ATOM      4  C   UNL     1       3.536   4.455  19.102  0.00  0.00    +0.000 A 
ATOM      5  C   UNL     1       2.383   4.368  19.898  0.00  0.00    +0.000 A 
ATOM      6  C   UNL     1       1.412   3.414  19.588  0.00  0.00    +0.000 A 
ATOM      7  C   UNL     1       1.594   2.548  18.513  0.00  0.00    +0.000 A 
ATOM      8  C   UNL     1       2.736   2.610  17.742  0.00  0.00    +0.000 A 
ATOM      9  C   UNL     1       3.726   3.568  18.024  0.00  0.00    +0.000 A 
ATOM     10  C   UNL     1       4.895   3.692  17.084  0.00  0.00    +0.000 C 
ENDROOT
BRANCH   6  11
ATOM     11  O   UNL     1       0.254   3.302  20.306  0.00  0.00    +0.000 OA
ATOM     12  H   UNL     1      -0.485   3.295  19.676  0.00  0.00    +0.000 HD
ENDBRANCH   6  11
BRANCH   7  13
ATOM     13  O   UNL     1       0.628   1.636  18.191  0.00  0.00    +0.000 OA
ATOM     14  H   UNL     1       0.764   1.460  17.245  0.00  0.00    +0.000 HD
ENDBRANCH   7  13
BRANCH   1  15
ATOM     15  C   UNL     1       6.927   4.847  16.449  0.00  0.00    +0.000 C 
BRANCH  15  16
ATOM     16  C   UNL     1       6.219   5.093  15.113  0.00  0.00    +0.000 C 
BRANCH  16  17
ATOM     17  C   UNL     1       6.525   4.054  14.041  0.00  0.00    +0.000 C 
BRANCH  17  18
ATOM     18  C   UNL     1       5.336   3.997  13.087  0.00  0.00    +0.000 C 
BRANCH  18  19
ATOM     19  C   UNL     1       5.623   3.065  11.929  0.00  0.00    +0.000 C 
BRANCH  19  20
ATOM     20  C   UNL     1       4.329   2.686  11.221  0.00  0.00    +0.000 C 
BRANCH  20  21
ATOM     21  C   UNL     1       3.606   3.950  10.780  0.00  0.00    +0.000 C 
BRANCH  21  23
ATOM     22  C   UNL     1       2.248   5.033   8.992  0.00  0.00    +0.000 C 
ATOM     23  C   UNL     1       2.862   3.730   9.471  0.00  0.00    +0.000 C 
ENDBRANCH  21  23
ENDBRANCH  20  21
ENDBRANCH  19  20
ENDBRANCH  18  19
ENDBRANCH  17  18
ENDBRANCH  16  17
ENDBRANCH  15  16
ENDBRANCH   1  15
TORSDOF 10
ENDMDL
MODEL 2
REMARK VINA RESULT:      -7.2      4.416      6.846
REMARK  Name = 
REMARK  11 active torsions:
REMARK  status: ('A' for Active; 'I' for Inactive)
REMARK    1  A    between atoms: C_1  and  C_2
REMARK    2  A    between atoms: C_2  and  C_3
REMARK    3  A    between atoms: C_3  and  C_4
REMARK    4  A    between atoms: C_4  and  C_5
REMARK    5  A    between atoms: C_5  and  C_6
REMARK    6  A    between atoms: C_6  and  C_7
REMARK    7  A    between atoms: C_7  and  C_8
REMARK    8  A    between atoms: C_8  and  C_9
REMARK    9  A    between atoms: C_9  and  N_10
REMARK   10  A    between atoms: C_15  and  O_16
REMARK   11  A    between atoms: C_17  and  O_18
REMARK                            x       y       z     vdW  Elec       q    Type
REMARK                         _______ _______ _______ _____ _____    ______ ____
ROOT
ATOM      1  N   UNL     1       2.693   6.210  19.102  0.00  0.00    +0.000 NA
ATOM      2  C   UNL     1       2.859   7.464  18.350  0.00  0.00    +0.000 C 
ATOM      3  C   UNL     1       3.470   7.231  16.958  0.00  0.00    +0.000 C 
ATOM      4  C   UNL     1       4.717   6.391  17.013  0.00  0.00    +0.000 A 
ATOM      5  C   UNL     1       5.649   6.423  15.964  0.00  0.00    +0.000 A 
ATOM      6  C   UNL     1       6.799   5.637  16.050  0.00  0.00    +0.000 A 
ATOM      7  C   UNL     1       7.010   4.818  17.156  0.00  0.00    +0.000 A 
ATOM      8  C   UNL     1       6.086   4.761  18.179  0.00  0.00    +0.000 A 
ATOM      9  C   UNL     1       4.923   5.550  18.123  0.00  0.00    +0.000 A 
ATOM     10  C   UNL     1       4.005   5.560  19.315  0.00  0.00    +0.000 C 
ENDROOT
BRANCH   6  11
ATOM     11  O   UNL     1       7.759   5.650  15.077  0.00  0.00    +0.000 OA
ATOM     12  H   UNL     1       8.602   5.888  15.495  0.00  0.00    +0.000 HD
ENDBRANCH   6  11
BRANCH   7  13
ATOM     13  O   UNL     1       8.151   4.073  17.255  0.00  0.00    +0.000 OA
ATOM     14  H   UNL     1       8.707   4.560  17.886  0.00  0.00    +0.000 HD
ENDBRANCH   7  13
BRANCH   1  15
ATOM     15  C   UNL     1       2.027   6.448  20.398  0.00  0.00    +0.000 C 
BRANCH  15  16
ATOM     16  C   UNL     1       1.703   5.167  21.171  0.00  0.00    +0.000 C 
BRANCH  16  17
ATOM     17  C   UNL     1       0.819   4.184  20.412  0.00  0.00    +0.000 C 
BRANCH  17  18
ATOM     18  C   UNL     1       1.325   2.775  20.701  0.00  0.00    +0.000 C 
BRANCH  18  19
ATOM     19  C   UNL     1       2.730   2.816  21.265  0.00  0.00    +0.000 C 
BRANCH  19  20
ATOM     20  C   UNL     1       3.718   2.229  20.266  0.00  0.00    +0.000 C 
BRANCH  20  21
ATOM     21  C   UNL     1       2.957   1.654  19.081  0.00  0.00    +0.000 C 
BRANCH  21  23
ATOM     22  C   UNL     1       2.425   3.120  17.136  0.00  0.00    +0.000 C 
ATOM     23  C   UNL     1       3.473   2.221  17.767  0.00  0.00    +0.000 C 
ENDBRANCH  21  23
ENDBRANCH  20  21
ENDBRANCH  19  20
ENDBRANCH  18  19
ENDBRANCH  17  18
ENDBRANCH  16  17
ENDBRANCH  15  16
ENDBRANCH   1  15
TORSDOF 10
ENDMDL
MODEL 3
REMARK VINA RESULT:      -7.2      4.446      7.090
REMARK  Name = 
REMARK  11 active torsions:
REMARK  status: ('A' for Active; 'I' for Inactive)
REMARK    1  A    between atoms: C_1  and  C_2
REMARK    2  A    between atoms: C_2  and  C_3
REMARK    3  A    between atoms: C_3  and  C_4
REMARK    4  A    between atoms: C_4  and  C_5
REMARK    5  A    between atoms: C_5  and  C_6
REMARK    6  A    between atoms: C_6  and  C_7
REMARK    7  A    between atoms: C_7  and  C_8
REMARK    8  A    between atoms: C_8  and  C_9
REMARK    9  A    between atoms: C_9  and  N_10
REMARK   10  A    between atoms: C_15  and  O_16
REMARK   11  A    between atoms: C_17  and  O_18
REMARK                            x       y       z     vdW  Elec       q    Type
REMARK                         _______ _______ _______ _____ _____    ______ ____
ROOT
ATOM      1  N   UNL     1       3.777   2.709  18.688  0.00  0.00    +0.000 NA
ATOM      2  C   UNL     1       3.214   3.386  17.510  0.00  0.00    +0.000 C 
ATOM      3  C   UNL     1       4.303   3.871  16.540  0.00  0.00    +0.000 C 
ATOM      4  C   UNL     1       5.377   4.664  17.235  0.00  0.00    +0.000 A 
ATOM      5  C   UNL     1       6.198   5.545  16.514  0.00  0.00    +0.000 A 
ATOM      6  C   UNL     1       7.178   6.271  17.191  0.00  0.00    +0.000 A 
ATOM      7  C   UNL     1       7.352   6.110  18.563  0.00  0.00    +0.000 A 
ATOM      8  C   UNL     1       6.567   5.227  19.274  0.00  0.00    +0.000 A 
ATOM      9  C   UNL     1       5.564   4.490  18.620  0.00  0.00    +0.000 A 
ATOM     10  C   UNL     1       4.643   3.636  19.449  0.00  0.00    +0.000 C 
ENDROOT
BRANCH   6  11
ATOM     11  O   UNL     1       7.986   7.168  16.549  0.00  0.00    +0.000 OA
ATOM     12  H   UNL     1       7.419   7.859  16.168  0.00  0.00    +0.000 HD
ENDBRANCH   6  11
BRANCH   7  13
ATOM     13  O   UNL     1       8.291   6.845  19.230  0.00  0.00    +0.000 OA
ATOM     14  H   UNL     1       8.769   6.196  19.772  0.00  0.00    +0.000 HD
ENDBRANCH   7  13
BRANCH   1  15
ATOM     15  C   UNL     1       2.712   2.178  19.560  0.00  0.00    +0.000 C 
BRANCH  15  16
ATOM     16  C   UNL     1       2.735   2.747  20.982  0.00  0.00    +0.000 C 
BRANCH  16  17
ATOM     17  C   UNL     1       1.544   3.635  21.322  0.00  0.00    +0.000 C 
BRANCH  17  18
ATOM     18  C   UNL     1       1.405   4.678  20.218  0.00  0.00    +0.000 C 
BRANCH  18  19
ATOM     19  C   UNL     1       1.344   6.073  20.805  0.00  0.00    +0.000 C 
BRANCH  19  20
ATOM     20  C   UNL     1       2.299   7.000  20.067  0.00  0.00    +0.000 C 
BRANCH  20  21
ATOM     21  C   UNL     1       2.472   6.512  18.636  0.00  0.00    +0.000 C 
BRANCH  21  23
ATOM     22  C   UNL     1       2.200   8.894  17.955  0.00  0.00    +0.000 C 
ATOM     23  C   UNL     1       2.995   7.620  17.735  0.00  0.00    +0.000 C 
ENDBRANCH  21  23
ENDBRANCH  20  21
ENDBRANCH  19  20
ENDBRANCH  18  19
ENDBRANCH  17  18
ENDBRANCH  16  17
ENDBRANCH  15  16
ENDBRANCH   1  15
TORSDOF 10
ENDMDL
MODEL 4
REMARK VINA RESULT:      -7.0      1.324      2.272
REMARK  Name = 
REMARK  11 active torsions:
REMARK  status: ('A' for Active; 'I' for Inactive)
REMARK    1  A    between atoms: C_1  and  C_2
REMARK    2  A    between atoms: C_2  and  C_3
REMARK    3  A    between atoms: C_3  and  C_4
REMARK    4  A    between atoms: C_4  and  C_5
REMARK    5  A    between atoms: C_5  and  C_6
REMARK    6  A    between atoms: C_6  and  C_7
REMARK    7  A    between atoms: C_7  and  C_8
REMARK    8  A    between atoms: C_8  and  C_9
REMARK    9  A    between atoms: C_9  and  N_10
REMARK   10  A    between atoms: C_15  and  O_16
REMARK   11  A    between atoms: C_17  and  O_18
REMARK                            x       y       z     vdW  Elec       q    Type
REMARK                         _______ _______ _______ _____ _____    ______ ____
ROOT
ATOM      1  N   UNL     1       4.959   5.179  16.066  0.00  0.00    +0.000 NA
ATOM      2  C   UNL     1       4.932   3.743  16.386  0.00  0.00    +0.000 C 
ATOM      3  C   UNL     1       3.550   3.282  16.878  0.00  0.00    +0.000 C 
ATOM      4  C   UNL     1       3.014   4.155  17.980  0.00  0.00    +0.000 A 
ATOM      5  C   UNL     1       2.018   3.683  18.849  0.00  0.00    +0.000 A 
ATOM      6  C   UNL     1       1.549   4.516  19.865  0.00  0.00    +0.000 A 
ATOM      7  C   UNL     1       2.051   5.808  20.004  0.00  0.00    +0.000 A 
ATOM      8  C   UNL     1       3.010   6.289  19.138  0.00  0.00    +0.000 A 
ATOM      9  C   UNL     1       3.509   5.467  18.111  0.00  0.00    +0.000 A 
ATOM     10  C   UNL     1       4.646   5.980  17.270  0.00  0.00    +0.000 C 
ENDROOT
BRANCH   6  11
ATOM     11  O   UNL     1       0.604   4.101  20.762  0.00  0.00    +0.000 OA
ATOM     12  H   UNL     1      -0.135   4.730  20.726  0.00  0.00    +0.000 HD
ENDBRANCH   6  11
BRANCH   7  13
ATOM     13  O   UNL     1       1.614   6.612  21.019  0.00  0.00    +0.000 OA
ATOM     14  H   UNL     1       1.501   6.012  21.775  0.00  0.00    +0.000 HD
ENDBRANCH   7  13
BRANCH   1  15
ATOM     15  C   UNL     1       6.269   5.580  15.515  0.00  0.00    +0.000 C 
BRANCH  15  16
ATOM     16  C   UNL     1       6.960   4.481  14.701  0.00  0.00    +0.000 C 
BRANCH  16  17
ATOM     17  C   UNL     1       7.008   4.750  13.201  0.00  0.00    +0.000 C 
BRANCH  17  18
ATOM     18  C   UNL     1       6.466   3.518  12.484  0.00  0.00    +0.000 C 
BRANCH  18  19
ATOM     19  C   UNL     1       4.953   3.550  12.434  0.00  0.00    +0.000 C 
BRANCH  19  20
ATOM     20  C   UNL     1       4.460   3.130  11.056  0.00  0.00    +0.000 C 
BRANCH  20  21
ATOM     21  C   UNL     1       3.219   3.933  10.697  0.00  0.00    +0.000 C 
BRANCH  21  23
ATOM     22  C   UNL     1       2.104   5.147   8.827  0.00  0.00    +0.000 C 
ATOM     23  C   UNL     1       3.015   3.988   9.191  0.00  0.00    +0.000 C 
ENDBRANCH  21  23
ENDBRANCH  20  21
ENDBRANCH  19  20
ENDBRANCH  18  19
ENDBRANCH  17  18
ENDBRANCH  16  17
ENDBRANCH  15  16
ENDBRANCH   1  15
TORSDOF 10
ENDMDL
MODEL 5
REMARK VINA RESULT:      -6.9      3.907      7.185
REMARK  Name = 
REMARK  11 active torsions:
REMARK  status: ('A' for Active; 'I' for Inactive)
REMARK    1  A    between atoms: C_1  and  C_2
REMARK    2  A    between atoms: C_2  and  C_3
REMARK    3  A    between atoms: C_3  and  C_4
REMARK    4  A    between atoms: C_4  and  C_5
REMARK    5  A    between atoms: C_5  and  C_6
REMARK    6  A    between atoms: C_6  and  C_7
REMARK    7  A    between atoms: C_7  and  C_8
REMARK    8  A    between atoms: C_8  and  C_9
REMARK    9  A    between atoms: C_9  and  N_10
REMARK   10  A    between atoms: C_15  and  O_16
REMARK   11  A    between atoms: C_17  and  O_18
REMARK                            x       y       z     vdW  Elec       q    Type
REMARK                         _______ _______ _______ _____ _____    ______ ____
ROOT
ATOM      1  N   UNL     1       6.116   5.190  17.968  0.00  0.00    +0.000 NA
ATOM      2  C   UNL     1       5.919   4.287  16.824  0.00  0.00    +0.000 C 
ATOM      3  C   UNL     1       4.436   4.138  16.448  0.00  0.00    +0.000 C 
ATOM      4  C   UNL     1       3.575   3.803  17.636  0.00  0.00    +0.000 A 
ATOM      5  C   UNL     1       2.316   3.208  17.464  0.00  0.00    +0.000 A 
ATOM      6  C   UNL     1       1.546   2.903  18.587  0.00  0.00    +0.000 A 
ATOM      7  C   UNL     1       2.016   3.202  19.864  0.00  0.00    +0.000 A 
ATOM      8  C   UNL     1       3.240   3.811  20.040  0.00  0.00    +0.000 A 
ATOM      9  C   UNL     1       4.042   4.120  18.927  0.00  0.00    +0.000 A 
ATOM     10  C   UNL     1       5.425   4.663  19.165  0.00  0.00    +0.000 C 
ENDROOT
BRANCH   6  11
ATOM     11  O   UNL     1       0.327   2.293  18.485  0.00  0.00    +0.000 OA
ATOM     12  H   UNL     1      -0.344   2.987  18.388  0.00  0.00    +0.000 HD
ENDBRANCH   6  11
BRANCH   7  13
ATOM     13  O   UNL     1       1.276   2.875  20.965  0.00  0.00    +0.000 OA
ATOM     14  H   UNL     1       0.798   2.069  20.707  0.00  0.00    +0.000 HD
ENDBRANCH   7  13
BRANCH   1  15
ATOM     15  C   UNL     1       7.551   5.384  18.255  0.00  0.00    +0.000 C 
BRANCH  15  16
ATOM     16  C   UNL     1       7.925   6.832  18.589  0.00  0.00    +0.000 C 
BRANCH  16  17
ATOM     17  C   UNL     1       7.916   7.773  17.391  0.00  0.00    +0.000 C 
BRANCH  17  18
ATOM     18  C   UNL     1       7.793   9.200  17.914  0.00  0.00    +0.000 C 
BRANCH  18  19
ATOM     19  C   UNL     1       8.972   9.550  18.798  0.00  0.00    +0.000 C 
BRANCH  19  20
ATOM     20  C   UNL     1       9.588  10.871  18.361  0.00  0.00    +0.000 C 
BRANCH  20  21
ATOM     21  C   UNL     1       9.421  11.899  19.470  0.00  0.00    +0.000 C 
BRANCH  21  23
ATOM     22  C   UNL     1      11.882  11.900  19.869  0.00  0.00    +0.000 C 
ATOM     23  C   UNL     1      10.516  11.763  20.517  0.00  0.00    +0.000 C 
ENDBRANCH  21  23
ENDBRANCH  20  21
ENDBRANCH  19  20
ENDBRANCH  18  19
ENDBRANCH  17  18
ENDBRANCH  16  17
ENDBRANCH  15  16
ENDBRANCH   1  15
TORSDOF 10
ENDMDL
MODEL 6
REMARK VINA RESULT:      -6.8      1.279      1.417
REMARK  Name = 
REMARK  11 active torsions:
REMARK  status: ('A' for Active; 'I' for Inactive)
REMARK    1  A    between atoms: C_1  and  C_2
REMARK    2  A    between atoms: C_2  and  C_3
REMARK    3  A    between atoms: C_3  and  C_4
REMARK    4  A    between atoms: C_4  and  C_5
REMARK    5  A    between atoms: C_5  and  C_6
REMARK    6  A    between atoms: C_6  and  C_7
REMARK    7  A    between atoms: C_7  and  C_8
REMARK    8  A    between atoms: C_8  and  C_9
REMARK    9  A    between atoms: C_9  and  N_10
REMARK   10  A    between atoms: C_15  and  O_16
REMARK   11  A    between atoms: C_17  and  O_18
REMARK                            x       y       z     vdW  Elec       q    Type
REMARK                         _______ _______ _______ _____ _____    ______ ____
ROOT
ATOM      1  N   UNL     1       6.124   5.454  16.944  0.00  0.00    +0.000 NA
ATOM      2  C   UNL     1       5.056   6.324  16.430  0.00  0.00    +0.000 C 
ATOM      3  C   UNL     1       4.108   6.802  17.542  0.00  0.00    +0.000 C 
ATOM      4  C   UNL     1       3.604   5.667  18.393  0.00  0.00    +0.000 A 
ATOM      5  C   UNL     1       2.432   5.806  19.151  0.00  0.00    +0.000 A 
ATOM      6  C   UNL     1       1.989   4.731  19.923  0.00  0.00    +0.000 A 
ATOM      7  C   UNL     1       2.712   3.541  19.954  0.00  0.00    +0.000 A 
ATOM      8  C   UNL     1       3.879   3.406  19.232  0.00  0.00    +0.000 A 
ATOM      9  C   UNL     1       4.343   4.469  18.437  0.00  0.00    +0.000 A 
ATOM     10  C   UNL     1       5.547   4.240  17.563  0.00  0.00    +0.000 C 
ENDROOT
BRANCH   6  11
ATOM     11  O   UNL     1       0.837   4.794  20.658  0.00  0.00    +0.000 OA
ATOM     12  H   UNL     1       1.067   4.623  21.585  0.00  0.00    +0.000 HD
ENDBRANCH   6  11
BRANCH   7  13
ATOM     13  O   UNL     1       2.260   2.479  20.685  0.00  0.00    +0.000 OA
ATOM     14  H   UNL     1       2.877   1.758  20.475  0.00  0.00    +0.000 HD
ENDBRANCH   7  13
BRANCH   1  15
ATOM     15  C   UNL     1       7.069   5.077  15.874  0.00  0.00    +0.000 C 
BRANCH  15  16
ATOM     16  C   UNL     1       6.503   5.247  14.461  0.00  0.00    +0.000 C 
BRANCH  16  17
ATOM     17  C   UNL     1       6.662   4.020  13.571  0.00  0.00    +0.000 C 
BRANCH  17  18
ATOM     18  C   UNL     1       5.280   3.625  13.062  0.00  0.00    +0.000 C 
BRANCH  18  19
ATOM     19  C   UNL     1       5.357   3.127  11.634  0.00  0.00    +0.000 C 
BRANCH  19  20
ATOM     20  C   UNL     1       3.963   2.822  11.104  0.00  0.00    +0.000 C 
BRANCH  20  21
ATOM     21  C   UNL     1       3.306   4.113  10.637  0.00  0.00    +0.000 C 
BRANCH  21  23
ATOM     22  C   UNL     1       2.097   5.254   8.780  0.00  0.00    +0.000 C 
ATOM     23  C   UNL     1       2.893   4.024   9.177  0.00  0.00    +0.000 C 
ENDBRANCH  21  23
ENDBRANCH  20  21
ENDBRANCH  19  20
ENDBRANCH  18  19
ENDBRANCH  17  18
ENDBRANCH  16  17
ENDBRANCH  15  16
ENDBRANCH   1  15
TORSDOF 10
ENDMDL
MODEL 7
REMARK VINA RESULT:      -6.7      3.821      6.868
REMARK  Name = 
REMARK  11 active torsions:
REMARK  status: ('A' for Active; 'I' for Inactive)
REMARK    1  A    between atoms: C_1  and  C_2
REMARK    2  A    between atoms: C_2  and  C_3
REMARK    3  A    between atoms: C_3  and  C_4
REMARK    4  A    between atoms: C_4  and  C_5
REMARK    5  A    between atoms: C_5  and  C_6
REMARK    6  A    between atoms: C_6  and  C_7
REMARK    7  A    between atoms: C_7  and  C_8
REMARK    8  A    between atoms: C_8  and  C_9
REMARK    9  A    between atoms: C_9  and  N_10
REMARK   10  A    between atoms: C_15  and  O_16
REMARK   11  A    between atoms: C_17  and  O_18
REMARK                            x       y       z     vdW  Elec       q    Type
REMARK                         _______ _______ _______ _____ _____    ______ ____
ROOT
ATOM      1  N   UNL     1       3.707   3.214  18.588  0.00  0.00    +0.000 NA
ATOM      2  C   UNL     1       4.944   3.553  19.308  0.00  0.00    +0.000 C 
ATOM      3  C   UNL     1       5.693   4.729  18.659  0.00  0.00    +0.000 C 
ATOM      4  C   UNL     1       5.890   4.536  17.180  0.00  0.00    +0.000 A 
ATOM      5  C   UNL     1       6.892   5.237  16.493  0.00  0.00    +0.000 A 
ATOM      6  C   UNL     1       7.053   5.029  15.123  0.00  0.00    +0.000 A 
ATOM      7  C   UNL     1       6.217   4.147  14.442  0.00  0.00    +0.000 A 
ATOM      8  C   UNL     1       5.213   3.474  15.105  0.00  0.00    +0.000 A 
ATOM      9  C   UNL     1       5.034   3.657  16.488  0.00  0.00    +0.000 A 
ATOM     10  C   UNL     1       4.015   2.808  17.199  0.00  0.00    +0.000 C 
ENDROOT
BRANCH   6  11
ATOM     11  O   UNL     1       8.033   5.658  14.406  0.00  0.00    +0.000 OA
ATOM     12  H   UNL     1       8.704   5.971  15.033  0.00  0.00    +0.000 HD
ENDBRANCH   6  11
BRANCH   7  13
ATOM     13  O   UNL     1       6.396   3.919  13.107  0.00  0.00    +0.000 OA
ATOM     14  H   UNL     1       5.501   3.960  12.730  0.00  0.00    +0.000 HD
ENDBRANCH   7  13
BRANCH   1  15
ATOM     15  C   UNL     1       2.964   2.141  19.277  0.00  0.00    +0.000 C 
BRANCH  15  16
ATOM     16  C   UNL     1       1.442   2.311  19.227  0.00  0.00    +0.000 C 
BRANCH  16  17
ATOM     17  C   UNL     1       0.870   3.160  20.356  0.00  0.00    +0.000 C 
BRANCH  17  18
ATOM     18  C   UNL     1       0.946   4.623  19.930  0.00  0.00    +0.000 C 
BRANCH  18  19
ATOM     19  C   UNL     1       1.865   5.401  20.849  0.00  0.00    +0.000 C 
BRANCH  19  20
ATOM     20  C   UNL     1       2.615   6.470  20.067  0.00  0.00    +0.000 C 
BRANCH  20  21
ATOM     21  C   UNL     1       2.360   6.280  18.579  0.00  0.00    +0.000 C 
BRANCH  21  23
ATOM     22  C   UNL     1       2.191   8.633  17.775  0.00  0.00    +0.000 C 
ATOM     23  C   UNL     1       3.033   7.370  17.761  0.00  0.00    +0.000 C 
ENDBRANCH  21  23
ENDBRANCH  20  21
ENDBRANCH  19  20
ENDBRANCH  18  19
ENDBRANCH  17  18
ENDBRANCH  16  17
ENDBRANCH  15  16
ENDBRANCH   1  15
TORSDOF 10
ENDMDL
MODEL 8
REMARK VINA RESULT:      -6.7      3.949      7.252
REMARK  Name = 
REMARK  11 active torsions:
REMARK  status: ('A' for Active; 'I' for Inactive)
REMARK    1  A    between atoms: C_1  and  C_2
REMARK    2  A    between atoms: C_2  and  C_3
REMARK    3  A    between atoms: C_3  and  C_4
REMARK    4  A    between atoms: C_4  and  C_5
REMARK    5  A    between atoms: C_5  and  C_6
REMARK    6  A    between atoms: C_6  and  C_7
REMARK    7  A    between atoms: C_7  and  C_8
REMARK    8  A    between atoms: C_8  and  C_9
REMARK    9  A    between atoms: C_9  and  N_10
REMARK   10  A    between atoms: C_15  and  O_16
REMARK   11  A    between atoms: C_17  and  O_18
REMARK                            x       y       z     vdW  Elec       q    Type
REMARK                         _______ _______ _______ _____ _____    ______ ____
ROOT
ATOM      1  N   UNL     1       5.236   6.107  16.778  0.00  0.00    +0.000 NA
ATOM      2  C   UNL     1       5.765   4.754  16.545  0.00  0.00    +0.000 C 
ATOM      3  C   UNL     1       4.652   3.735  16.251  0.00  0.00    +0.000 C 
ATOM      4  C   UNL     1       3.548   3.783  17.273  0.00  0.00    +0.000 A 
ATOM      5  C   UNL     1       2.687   2.689  17.449  0.00  0.00    +0.000 A 
ATOM      6  C   UNL     1       1.678   2.764  18.411  0.00  0.00    +0.000 A 
ATOM      7  C   UNL     1       1.517   3.918  19.174  0.00  0.00    +0.000 A 
ATOM      8  C   UNL     1       2.343   5.007  18.989  0.00  0.00    +0.000 A 
ATOM      9  C   UNL     1       3.374   4.956  18.034  0.00  0.00    +0.000 A 
ATOM     10  C   UNL     1       4.334   6.112  17.951  0.00  0.00    +0.000 C 
ENDROOT
BRANCH   6  11
ATOM     11  O   UNL     1       0.830   1.719  18.652  0.00  0.00    +0.000 OA
ATOM     12  H   UNL     1       1.244   1.149  19.320  0.00  0.00    +0.000 HD
ENDBRANCH   6  11
BRANCH   7  13
ATOM     13  O   UNL     1       0.550   3.978  20.137  0.00  0.00    +0.000 OA
ATOM     14  H   UNL     1       0.845   3.353  20.820  0.00  0.00    +0.000 HD
ENDBRANCH   7  13
BRANCH   1  15
ATOM     15  C   UNL     1       6.327   7.082  16.972  0.00  0.00    +0.000 C 
BRANCH  15  16
ATOM     16  C   UNL     1       7.397   6.622  17.967  0.00  0.00    +0.000 C 
BRANCH  16  17
ATOM     17  C   UNL     1       8.347   7.726  18.419  0.00  0.00    +0.000 C 
BRANCH  17  18
ATOM     18  C   UNL     1       7.873   9.037  17.802  0.00  0.00    +0.000 C 
BRANCH  18  19
ATOM     19  C   UNL     1       8.867  10.147  18.074  0.00  0.00    +0.000 C 
BRANCH  19  20
ATOM     20  C   UNL     1       9.254  10.162  19.546  0.00  0.00    +0.000 C 
BRANCH  20  21
ATOM     21  C   UNL     1      10.310  11.232  19.781  0.00  0.00    +0.000 C 
BRANCH  21  23
ATOM     22  C   UNL     1      10.282  13.574  20.632  0.00  0.00    +0.000 C 
ATOM     23  C   UNL     1       9.736  12.626  19.580  0.00  0.00    +0.000 C 
ENDBRANCH  21  23
ENDBRANCH  20  21
ENDBRANCH  19  20
ENDBRANCH  18  19
ENDBRANCH  17  18
ENDBRANCH  16  17
ENDBRANCH  15  16
ENDBRANCH   1  15
TORSDOF 10
ENDMDL
MODEL 9
REMARK VINA RESULT:      -6.7      4.725      7.813
REMARK  Name = 
REMARK  11 active torsions:
REMARK  status: ('A' for Active; 'I' for Inactive)
REMARK    1  A    between atoms: C_1  and  C_2
REMARK    2  A    between atoms: C_2  and  C_3
REMARK    3  A    between atoms: C_3  and  C_4
REMARK    4  A    between atoms: C_4  and  C_5
REMARK    5  A    between atoms: C_5  and  C_6
REMARK    6  A    between atoms: C_6  and  C_7
REMARK    7  A    between atoms: C_7  and  C_8
REMARK    8  A    between atoms: C_8  and  C_9
REMARK    9  A    between atoms: C_9  and  N_10
REMARK   10  A    between atoms: C_15  and  O_16
REMARK   11  A    between atoms: C_17  and  O_18
REMARK                            x       y       z     vdW  Elec       q    Type
REMARK                         _______ _______ _______ _____ _____    ______ ____
ROOT
ATOM      1  N   UNL     1       6.043   6.246  17.989  0.00  0.00    +0.000 NA
ATOM      2  C   UNL     1       5.002   6.937  17.212  0.00  0.00    +0.000 C 
ATOM      3  C   UNL     1       3.593   6.681  17.770  0.00  0.00    +0.000 C 
ATOM      4  C   UNL     1       3.316   5.217  17.980  0.00  0.00    +0.000 A 
ATOM      5  C   UNL     1       1.999   4.740  18.055  0.00  0.00    +0.000 A 
ATOM      6  C   UNL     1       1.778   3.375  18.242  0.00  0.00    +0.000 A 
ATOM      7  C   UNL     1       2.853   2.499  18.371  0.00  0.00    +0.000 A 
ATOM      8  C   UNL     1       4.151   2.964  18.324  0.00  0.00    +0.000 A 
ATOM      9  C   UNL     1       4.403   4.333  18.126  0.00  0.00    +0.000 A 
ATOM     10  C   UNL     1       5.828   4.783  17.950  0.00  0.00    +0.000 C 
ENDROOT
BRANCH   6  11
ATOM     11  O   UNL     1       0.518   2.846  18.291  0.00  0.00    +0.000 OA
ATOM     12  H   UNL     1       0.244   2.650  17.381  0.00  0.00    +0.000 HD
ENDBRANCH   6  11
BRANCH   7  13
ATOM     13  O   UNL     1       2.637   1.158  18.522  0.00  0.00    +0.000 OA
ATOM     14  H   UNL     1       2.397   1.054  19.458  0.00  0.00    +0.000 HD
ENDBRANCH   7  13
BRANCH   1  15
ATOM     15  C   UNL     1       7.392   6.575  17.487  0.00  0.00    +0.000 C 
BRANCH  15  16
ATOM     16  C   UNL     1       7.692   8.076  17.458  0.00  0.00    +0.000 C 
BRANCH  16  17
ATOM     17  C   UNL     1       8.510   8.574  18.644  0.00  0.00    +0.000 C 
BRANCH  17  18
ATOM     18  C   UNL     1       8.770  10.064  18.445  0.00  0.00    +0.000 C 
BRANCH  18  19
ATOM     19  C   UNL     1       9.586  10.623  19.592  0.00  0.00    +0.000 C 
BRANCH  19  20
ATOM     20  C   UNL     1      10.770  11.418  19.061  0.00  0.00    +0.000 C 
BRANCH  20  21
ATOM     21  C   UNL     1      11.299  12.331  20.157  0.00  0.00    +0.000 C 
BRANCH  21  23
ATOM     22  C   UNL     1      10.733  14.666  20.822  0.00  0.00    +0.000 C 
ATOM     23  C   UNL     1      10.206  13.249  20.684  0.00  0.00    +0.000 C 
ENDBRANCH  21  23
ENDBRANCH  20  21
ENDBRANCH  19  20
ENDBRANCH  18  19
ENDBRANCH  17  18
ENDBRANCH  16  17
ENDBRANCH  15  16
ENDBRANCH   1  15
TORSDOF 10
ENDMDL
