MODEL 1
REMARK VINA RESULT:      -7.4      0.000      0.000
REMARK  Name = 
REMARK  6 active torsions:
REMARK  status: ('A' for Active; 'I' for Inactive)
REMARK    1  A    between atoms: N_6  and  C_7
REMARK    2  A    between atoms: C_9  and  C_10
REMARK    3  A    between atoms: C_10  and  O_11
REMARK    4  A    between atoms: C_12  and  O_13
REMARK    5  A    between atoms: C_17  and  C_18
REMARK    6  A    between atoms: C_18  and  C_19
REMARK                            x       y       z     vdW  Elec       q    Type
REMARK                         _______ _______ _______ _____ _____    ______ ____
ROOT
ATOM      1  O   UNL     1       7.663   5.687  15.372  0.00  0.00    +0.000 OA
ATOM      2  C   UNL     1       6.860   5.381  16.250  0.00  0.00    +0.000 A 
ATOM      3  N   UNL     1       7.076   5.670  17.567  0.00  0.00    +0.000 N 
ATOM      4  C   UNL     1       6.442   5.067  18.622  0.00  0.00    +0.000 A 
ATOM      5  O   UNL     1       6.848   5.217  19.769  0.00  0.00    +0.000 OA
ATOM      6  N   UNL     1       5.362   4.265  18.288  0.00  0.00    +0.000 N 
ATOM      7  C   UNL     1       4.938   4.140  16.983  0.00  0.00    +0.000 A 
ATOM      8  C   UNL     1       5.606   4.652  15.942  0.00  0.00    +0.000 A 
ATOM      9  H   UNL     1       7.925   6.166  17.786  0.00  0.00    +0.000 HD
ENDROOT
BRANCH   6  10
ATOM     10  C   UNL     1       4.682   3.564  19.377  0.00  0.00    +0.000 C 
ATOM     11  O   UNL     1       4.256   2.248  18.943  0.00  0.00    +0.000 OA
ATOM     12  C   UNL     1       2.856   2.099  19.253  0.00  0.00    +0.000 C 
ATOM     13  C   UNL     1       2.558   3.129  20.343  0.00  0.00    +0.000 C 
ATOM     14  C   UNL     1       3.470   4.283  19.973  0.00  0.00    +0.000 C 
ATOM     15  F   UNL     1       2.851   5.050  19.034  0.00  0.00    +0.000 F 
BRANCH  13  16
ATOM     16  O   UNL     1       2.912   2.631  21.643  0.00  0.00    +0.000 OA
ATOM     17  H   UNL     1       3.150   3.380  22.219  0.00  0.00    +0.000 HD
ENDBRANCH  13  16
BRANCH  12  18
ATOM     18  C   UNL     1       2.028   2.288  17.979  0.00  0.00    +0.000 C 
BRANCH  18  19
ATOM     19  O   UNL     1       0.694   2.658  18.290  0.00  0.00    +0.000 OA
ATOM     20  H   UNL     1       0.406   3.285  17.602  0.00  0.00    +0.000 HD
ENDBRANCH  18  19
ENDBRANCH  12  18
ENDBRANCH   6  10
BRANCH   8  21
ATOM     21  C   UNL     1       5.229   4.525  14.488  0.00  0.00    +0.000 C 
BRANCH  21  22
ATOM     22  C   UNL     1       6.156   3.674  13.624  0.00  0.00    +0.000 C 
ATOM     23  F   UNL     1       5.516   3.322  12.475  0.00  0.00    +0.000 F 
ENDBRANCH  21  22
ENDBRANCH   8  21
TORSDOF 6
ENDMDL
MODEL 2
REMARK VINA RESULT:      -7.2      2.094      2.580
REMARK  Name = 
REMARK  6 active torsions:
REMARK  status: ('A' for Active; 'I' for Inactive)
REMARK    1  A    between atoms: N_6  and  C_7
REMARK    2  A    between atoms: C_9  and  C_10
REMARK    3  A    between atoms: C_10  and  O_11
REMARK    4  A    between atoms: C_12  and  O_13
REMARK    5  A    between atoms: C_17  and  C_18
REMARK    6  A    between atoms: C_18  and  C_19
REMARK                            x       y       z     vdW  Elec       q    Type
REMARK                         _______ _______ _______ _____ _____    ______ ____
ROOT
ATOM      1  O   UNL     1       6.576   7.173  16.376  0.00  0.00    +0.000 OA
ATOM      2  C   UNL     1       5.575   6.566  16.750  0.00  0.00    +0.000 A 
ATOM      3  N   UNL     1       4.461   7.210  17.208  0.00  0.00    +0.000 N 
ATOM      4  C   UNL     1       3.474   6.637  17.965  0.00  0.00    +0.000 A 
ATOM      5  O   UNL     1       2.629   7.328  18.525  0.00  0.00    +0.000 OA
ATOM      6  N   UNL     1       3.533   5.257  18.076  0.00  0.00    +0.000 N 
ATOM      7  C   UNL     1       4.496   4.525  17.415  0.00  0.00    +0.000 A 
ATOM      8  C   UNL     1       5.515   5.085  16.751  0.00  0.00    +0.000 A 
ATOM      9  H   UNL     1       4.492   8.217  17.211  0.00  0.00    +0.000 HD
ENDROOT
BRANCH   6  10
ATOM     10  C   UNL     1       2.525   4.604  18.912  0.00  0.00    +0.000 C 
ATOM     11  O   UNL     1       3.162   3.823  19.954  0.00  0.00    +0.000 OA
ATOM     12  C   UNL     1       2.614   2.490  19.920  0.00  0.00    +0.000 C 
ATOM     13  C   UNL     1       1.273   2.608  19.195  0.00  0.00    +0.000 C 
ATOM     14  C   UNL     1       1.538   3.697  18.173  0.00  0.00    +0.000 C 
ATOM     15  F   UNL     1       2.120   3.139  17.076  0.00  0.00    +0.000 F 
BRANCH  13  16
ATOM     16  O   UNL     1       0.231   3.027  20.090  0.00  0.00    +0.000 OA
ATOM     17  H   UNL     1       0.304   2.527  20.922  0.00  0.00    +0.000 HD
ENDBRANCH  13  16
BRANCH  12  18
ATOM     18  C   UNL     1       3.608   1.546  19.237  0.00  0.00    +0.000 C 
BRANCH  18  19
ATOM     19  O   UNL     1       4.932   1.793  19.682  0.00  0.00    +0.000 OA
ATOM     20  H   UNL     1       5.102   2.742  19.550  0.00  0.00    +0.000 HD
ENDBRANCH  18  19
ENDBRANCH  12  18
ENDBRANCH   6  10
BRANCH   8  21
ATOM     21  C   UNL     1       6.626   4.355  16.040  0.00  0.00    +0.000 C 
BRANCH  21  22
ATOM     22  C   UNL     1       6.345   3.946  14.596  0.00  0.00    +0.000 C 
ATOM     23  F   UNL     1       5.180   4.513  14.178  0.00  0.00    +0.000 F 
ENDBRANCH  21  22
ENDBRANCH   8  21
TORSDOF 6
ENDMDL
MODEL 3
REMARK VINA RESULT:      -7.0      2.363      2.691
REMARK  Name = 
REMARK  6 active torsions:
REMARK  status: ('A' for Active; 'I' for Inactive)
REMARK    1  A    between atoms: N_6  and  C_7
REMARK    2  A    between atoms: C_9  and  C_10
REMARK    3  A    between atoms: C_10  and  O_11
REMARK    4  A    between atoms: C_12  and  O_13
REMARK    5  A    between atoms: C_17  and  C_18
REMARK    6  A    between atoms: C_18  and  C_19
REMARK                            x       y       z     vdW  Elec       q    Type
REMARK                         _______ _______ _______ _____ _____    ______ ____
ROOT
ATOM      1  O   UNL     1       5.671   7.428  15.964  0.00  0.00    +0.000 OA
ATOM      2  C   UNL     1       4.856   6.752  16.587  0.00  0.00    +0.000 A 
ATOM      3  N   UNL     1       3.944   7.310  17.437  0.00  0.00    +0.000 N 
ATOM      4  C   UNL     1       3.266   6.637  18.419  0.00  0.00    +0.000 A 
ATOM      5  O   UNL     1       2.641   7.245  19.282  0.00  0.00    +0.000 OA
ATOM      6  N   UNL     1       3.377   5.257  18.381  0.00  0.00    +0.000 N 
ATOM      7  C   UNL     1       4.082   4.621  17.381  0.00  0.00    +0.000 A 
ATOM      8  C   UNL     1       4.820   5.274  16.476  0.00  0.00    +0.000 A 
ATOM      9  H   UNL     1       3.961   8.314  17.519  0.00  0.00    +0.000 HD
ENDROOT
BRANCH   6  10
ATOM     10  C   UNL     1       2.707   4.498  19.437  0.00  0.00    +0.000 C 
ATOM     11  O   UNL     1       3.516   3.363  19.836  0.00  0.00    +0.000 OA
ATOM     12  C   UNL     1       2.695   2.179  19.783  0.00  0.00    +0.000 C 
ATOM     13  C   UNL     1       1.249   2.671  19.852  0.00  0.00    +0.000 C 
ATOM     14  C   UNL     1       1.305   3.986  19.097  0.00  0.00    +0.000 C 
ATOM     15  F   UNL     1       1.190   3.734  17.764  0.00  0.00    +0.000 F 
BRANCH  13  16
ATOM     16  O   UNL     1       0.842   2.910  21.208  0.00  0.00    +0.000 OA
ATOM     17  H   UNL     1      -0.122   3.047  21.234  0.00  0.00    +0.000 HD
ENDBRANCH  13  16
BRANCH  12  18
ATOM     18  C   UNL     1       3.020   1.387  18.514  0.00  0.00    +0.000 C 
BRANCH  18  19
ATOM     19  O   UNL     1       4.294   0.770  18.613  0.00  0.00    +0.000 OA
ATOM     20  H   UNL     1       4.229  -0.087  18.156  0.00  0.00    +0.000 HD
ENDBRANCH  18  19
ENDBRANCH  12  18
ENDBRANCH   6  10
BRANCH   8  21
ATOM     21  C   UNL     1       5.647   4.651  15.380  0.00  0.00    +0.000 C 
BRANCH  21  22
ATOM     22  C   UNL     1       7.107   4.362  15.721  0.00  0.00    +0.000 C 
ATOM     23  F   UNL     1       7.289   4.451  17.067  0.00  0.00    +0.000 F 
ENDBRANCH  21  22
ENDBRANCH   8  21
TORSDOF 6
ENDMDL
MODEL 4
REMARK VINA RESULT:      -6.8      1.475      1.528
REMARK  Name = 
REMARK  6 active torsions:
REMARK  status: ('A' for Active; 'I' for Inactive)
REMARK    1  A    between atoms: N_6  and  C_7
REMARK    2  A    between atoms: C_9  and  C_10
REMARK    3  A    between atoms: C_10  and  O_11
REMARK    4  A    between atoms: C_12  and  O_13
REMARK    5  A    between atoms: C_17  and  C_18
REMARK    6  A    between atoms: C_18  and  C_19
REMARK                            x       y       z     vdW  Elec       q    Type
REMARK                         _______ _______ _______ _____ _____    ______ ____
ROOT
ATOM      1  O   UNL     1       7.860   5.342  14.285  0.00  0.00    +0.000 OA
ATOM      2  C   UNL     1       7.075   5.409  15.228  0.00  0.00    +0.000 A 
ATOM      3  N   UNL     1       7.388   6.048  16.393  0.00  0.00    +0.000 N 
ATOM      4  C   UNL     1       6.747   5.864  17.591  0.00  0.00    +0.000 A 
ATOM      5  O   UNL     1       7.226   6.298  18.633  0.00  0.00    +0.000 OA
ATOM      6  N   UNL     1       5.571   5.134  17.531  0.00  0.00    +0.000 N 
ATOM      7  C   UNL     1       5.069   4.680  16.330  0.00  0.00    +0.000 A 
ATOM      8  C   UNL     1       5.735   4.776  15.173  0.00  0.00    +0.000 A 
ATOM      9  H   UNL     1       8.296   6.481  16.440  0.00  0.00    +0.000 HD
ENDROOT
BRANCH   6  10
ATOM     10  C   UNL     1       4.875   4.874  18.791  0.00  0.00    +0.000 C 
ATOM     11  O   UNL     1       5.086   3.502  19.211  0.00  0.00    +0.000 OA
ATOM     12  C   UNL     1       3.801   2.909  19.485  0.00  0.00    +0.000 C 
ATOM     13  C   UNL     1       2.845   4.078  19.729  0.00  0.00    +0.000 C 
ATOM     14  C   UNL     1       3.368   5.142  18.784  0.00  0.00    +0.000 C 
ATOM     15  F   UNL     1       2.843   4.928  17.546  0.00  0.00    +0.000 F 
BRANCH  13  16
ATOM     16  O   UNL     1       2.931   4.549  21.083  0.00  0.00    +0.000 OA
ATOM     17  H   UNL     1       3.245   5.471  21.081  0.00  0.00    +0.000 HD
ENDBRANCH  13  16
BRANCH  12  18
ATOM     18  C   UNL     1       3.394   2.009  18.315  0.00  0.00    +0.000 C 
BRANCH  18  19
ATOM     19  O   UNL     1       4.094   0.776  18.355  0.00  0.00    +0.000 OA
ATOM     20  H   UNL     1       3.657   0.223  19.027  0.00  0.00    +0.000 HD
ENDBRANCH  18  19
ENDBRANCH  12  18
ENDBRANCH   6  10
BRANCH   8  21
ATOM     21  C   UNL     1       5.272   4.270  13.831  0.00  0.00    +0.000 C 
BRANCH  21  22
ATOM     22  C   UNL     1       6.238   3.349  13.089  0.00  0.00    +0.000 C 
ATOM     23  F   UNL     1       6.520   3.871  11.864  0.00  0.00    +0.000 F 
ENDBRANCH  21  22
ENDBRANCH   8  21
TORSDOF 6
ENDMDL
MODEL 5
REMARK VINA RESULT:      -6.8      2.271      6.021
REMARK  Name = 
REMARK  6 active torsions:
REMARK  status: ('A' for Active; 'I' for Inactive)
REMARK    1  A    between atoms: N_6  and  C_7
REMARK    2  A    between atoms: C_9  and  C_10
REMARK    3  A    between atoms: C_10  and  O_11
REMARK    4  A    between atoms: C_12  and  O_13
REMARK    5  A    between atoms: C_17  and  C_18
REMARK    6  A    between atoms: C_18  and  C_19
REMARK                            x       y       z     vdW  Elec       q    Type
REMARK                         _______ _______ _______ _____ _____    ______ ____
ROOT
ATOM      1  O   UNL     1       1.585   3.306  22.068  0.00  0.00    +0.000 OA
ATOM      2  C   UNL     1       2.373   3.464  21.140  0.00  0.00    +0.000 A 
ATOM      3  N   UNL     1       3.213   2.473  20.720  0.00  0.00    +0.000 N 
ATOM      4  C   UNL     1       4.343   2.662  19.967  0.00  0.00    +0.000 A 
ATOM      5  O   UNL     1       5.160   1.759  19.824  0.00  0.00    +0.000 OA
ATOM      6  N   UNL     1       4.498   3.931  19.434  0.00  0.00    +0.000 N 
ATOM      7  C   UNL     1       3.541   4.907  19.615  0.00  0.00    +0.000 A 
ATOM      8  C   UNL     1       2.485   4.757  20.422  0.00  0.00    +0.000 A 
ATOM      9  H   UNL     1       3.145   1.590  21.201  0.00  0.00    +0.000 HD
ENDROOT
BRANCH   6  10
ATOM     10  C   UNL     1       5.712   4.193  18.661  0.00  0.00    +0.000 C 
ATOM     11  O   UNL     1       6.065   5.597  18.734  0.00  0.00    +0.000 OA
ATOM     12  C   UNL     1       6.253   6.089  17.392  0.00  0.00    +0.000 C 
ATOM     13  C   UNL     1       6.519   4.855  16.529  0.00  0.00    +0.000 C 
ATOM     14  C   UNL     1       5.656   3.794  17.184  0.00  0.00    +0.000 C 
ATOM     15  F   UNL     1       4.387   3.898  16.701  0.00  0.00    +0.000 F 
BRANCH  13  16
ATOM     16  O   UNL     1       7.899   4.462  16.591  0.00  0.00    +0.000 OA
ATOM     17  H   UNL     1       8.061   3.758  15.939  0.00  0.00    +0.000 HD
ENDBRANCH  13  16
BRANCH  12  18
ATOM     18  C   UNL     1       5.019   6.890  16.964  0.00  0.00    +0.000 C 
BRANCH  18  19
ATOM     19  O   UNL     1       4.957   7.011  15.553  0.00  0.00    +0.000 OA
ATOM     20  H   UNL     1       4.357   7.753  15.359  0.00  0.00    +0.000 HD
ENDBRANCH  18  19
ENDBRANCH  12  18
ENDBRANCH   6  10
BRANCH   8  21
ATOM     21  C   UNL     1       1.420   5.788  20.702  0.00  0.00    +0.000 C 
BRANCH  21  22
ATOM     22  C   UNL     1       1.824   7.246  20.494  0.00  0.00    +0.000 C 
ATOM     23  F   UNL     1       1.263   8.019  21.464  0.00  0.00    +0.000 F 
ENDBRANCH  21  22
ENDBRANCH   8  21
TORSDOF 6
ENDMDL
MODEL 6
REMARK VINA RESULT:      -6.8      2.607      3.594
REMARK  Name = 
REMARK  6 active torsions:
REMARK  status: ('A' for Active; 'I' for Inactive)
REMARK    1  A    between atoms: N_6  and  C_7
REMARK    2  A    between atoms: C_9  and  C_10
REMARK    3  A    between atoms: C_10  and  O_11
REMARK    4  A    between atoms: C_12  and  O_13
REMARK    5  A    between atoms: C_17  and  C_18
REMARK    6  A    between atoms: C_18  and  C_19
REMARK                            x       y       z     vdW  Elec       q    Type
REMARK                         _______ _______ _______ _____ _____    ______ ____
ROOT
ATOM      1  O   UNL     1       6.623   7.743  17.086  0.00  0.00    +0.000 OA
ATOM      2  C   UNL     1       5.725   6.949  17.358  0.00  0.00    +0.000 A 
ATOM      3  N   UNL     1       4.405   7.270  17.228  0.00  0.00    +0.000 N 
ATOM      4  C   UNL     1       3.368   6.609  17.834  0.00  0.00    +0.000 A 
ATOM      5  O   UNL     1       2.241   7.089  17.851  0.00  0.00    +0.000 OA
ATOM      6  N   UNL     1       3.702   5.409  18.443  0.00  0.00    +0.000 N 
ATOM      7  C   UNL     1       4.984   4.907  18.383  0.00  0.00    +0.000 A 
ATOM      8  C   UNL     1       6.016   5.589  17.873  0.00  0.00    +0.000 A 
ATOM      9  H   UNL     1       4.197   8.192  16.878  0.00  0.00    +0.000 HD
ENDROOT
BRANCH   6  10
ATOM     10  C   UNL     1       2.637   4.691  19.142  0.00  0.00    +0.000 C 
ATOM     11  O   UNL     1       3.200   3.767  20.107  0.00  0.00    +0.000 OA
ATOM     12  C   UNL     1       2.621   2.466  19.881  0.00  0.00    +0.000 C 
ATOM     13  C   UNL     1       1.322   2.715  19.114  0.00  0.00    +0.000 C 
ATOM     14  C   UNL     1       1.666   3.913  18.250  0.00  0.00    +0.000 C 
ATOM     15  F   UNL     1       2.288   3.477  17.120  0.00  0.00    +0.000 F 
BRANCH  13  16
ATOM     16  O   UNL     1       0.247   3.053  20.004  0.00  0.00    +0.000 OA
ATOM     17  H   UNL     1       0.102   2.317  20.625  0.00  0.00    +0.000 HD
ENDBRANCH  13  16
BRANCH  12  18
ATOM     18  C   UNL     1       3.624   1.583  19.133  0.00  0.00    +0.000 C 
BRANCH  18  19
ATOM     19  O   UNL     1       4.917   1.685  19.706  0.00  0.00    +0.000 OA
ATOM     20  H   UNL     1       5.276   0.781  19.758  0.00  0.00    +0.000 HD
ENDBRANCH  18  19
ENDBRANCH  12  18
ENDBRANCH   6  10
BRANCH   8  21
ATOM     21  C   UNL     1       7.449   5.126  17.808  0.00  0.00    +0.000 C 
BRANCH  21  22
ATOM     22  C   UNL     1       8.309   5.423  19.034  0.00  0.00    +0.000 C 
ATOM     23  F   UNL     1       7.509   5.709  20.097  0.00  0.00    +0.000 F 
ENDBRANCH  21  22
ENDBRANCH   8  21
TORSDOF 6
ENDMDL
MODEL 7
REMARK VINA RESULT:      -6.7      2.439      5.868
REMARK  Name = 
REMARK  6 active torsions:
REMARK  status: ('A' for Active; 'I' for Inactive)
REMARK    1  A    between atoms: N_6  and  C_7
REMARK    2  A    between atoms: C_9  and  C_10
REMARK    3  A    between atoms: C_10  and  O_11
REMARK    4  A    between atoms: C_12  and  O_13
REMARK    5  A    between atoms: C_17  and  C_18
REMARK    6  A    between atoms: C_18  and  C_19
REMARK                            x       y       z     vdW  Elec       q    Type
REMARK                         _______ _______ _______ _____ _____    ______ ____
ROOT
ATOM      1  O   UNL     1       0.628   4.796  20.555  0.00  0.00    +0.000 OA
ATOM      2  C   UNL     1       1.690   4.752  19.938  0.00  0.00    +0.000 A 
ATOM      3  N   UNL     1       2.208   3.582  19.462  0.00  0.00    +0.000 N 
ATOM      4  C   UNL     1       3.515   3.387  19.100  0.00  0.00    +0.000 A 
ATOM      5  O   UNL     1       3.950   2.259  18.899  0.00  0.00    +0.000 OA
ATOM      6  N   UNL     1       4.290   4.534  19.025  0.00  0.00    +0.000 N 
ATOM      7  C   UNL     1       3.748   5.781  19.248  0.00  0.00    +0.000 A 
ATOM      8  C   UNL     1       2.499   5.970  19.689  0.00  0.00    +0.000 A 
ATOM      9  H   UNL     1       1.665   2.749  19.626  0.00  0.00    +0.000 HD
ENDROOT
BRANCH   6  10
ATOM     10  C   UNL     1       5.704   4.370  18.687  0.00  0.00    +0.000 C 
ATOM     11  O   UNL     1       6.469   5.513  19.146  0.00  0.00    +0.000 OA
ATOM     12  C   UNL     1       7.248   6.011  18.040  0.00  0.00    +0.000 C 
ATOM     13  C   UNL     1       7.349   4.854  17.046  0.00  0.00    +0.000 C 
ATOM     14  C   UNL     1       6.010   4.159  17.202  0.00  0.00    +0.000 C 
ATOM     15  F   UNL     1       5.091   4.793  16.422  0.00  0.00    +0.000 F 
BRANCH  13  16
ATOM     16  O   UNL     1       8.407   3.951  17.401  0.00  0.00    +0.000 OA
ATOM     17  H   UNL     1       9.132   4.038  16.756  0.00  0.00    +0.000 HD
ENDBRANCH  13  16
BRANCH  12  18
ATOM     18  C   UNL     1       6.579   7.265  17.468  0.00  0.00    +0.000 C 
BRANCH  18  19
ATOM     19  O   UNL     1       7.535   8.284  17.226  0.00  0.00    +0.000 OA
ATOM     20  H   UNL     1       7.050   9.045  16.860  0.00  0.00    +0.000 HD
ENDBRANCH  18  19
ENDBRANCH  12  18
ENDBRANCH   6  10
BRANCH   8  21
ATOM     21  C   UNL     1       1.849   7.296  19.993  0.00  0.00    +0.000 C 
BRANCH  21  22
ATOM     22  C   UNL     1       2.010   8.383  18.933  0.00  0.00    +0.000 C 
ATOM     23  F   UNL     1       1.583   7.914  17.729  0.00  0.00    +0.000 F 
ENDBRANCH  21  22
ENDBRANCH   8  21
TORSDOF 6
ENDMDL
MODEL 8
REMARK VINA RESULT:      -6.7      1.458      1.622
REMARK  Name = 
REMARK  6 active torsions:
REMARK  status: ('A' for Active; 'I' for Inactive)
REMARK    1  A    between atoms: N_6  and  C_7
REMARK    2  A    between atoms: C_9  and  C_10
REMARK    3  A    between atoms: C_10  and  O_11
REMARK    4  A    between atoms: C_12  and  O_13
REMARK    5  A    between atoms: C_17  and  C_18
REMARK    6  A    between atoms: C_18  and  C_19
REMARK                            x       y       z     vdW  Elec       q    Type
REMARK                         _______ _______ _______ _____ _____    ______ ____
ROOT
ATOM      1  O   UNL     1       8.223   5.369  13.945  0.00  0.00    +0.000 OA
ATOM      2  C   UNL     1       7.351   5.292  14.807  0.00  0.00    +0.000 A 
ATOM      3  N   UNL     1       7.336   6.106  15.903  0.00  0.00    +0.000 N 
ATOM      4  C   UNL     1       6.644   5.859  17.060  0.00  0.00    +0.000 A 
ATOM      5  O   UNL     1       6.860   6.515  18.073  0.00  0.00    +0.000 OA
ATOM      6  N   UNL     1       5.740   4.810  17.001  0.00  0.00    +0.000 N 
ATOM      7  C   UNL     1       5.526   4.113  15.832  0.00  0.00    +0.000 A 
ATOM      8  C   UNL     1       6.262   4.288  14.728  0.00  0.00    +0.000 A 
ATOM      9  H   UNL     1       8.072   6.791  15.965  0.00  0.00    +0.000 HD
ENDROOT
BRANCH   6  10
ATOM     10  C   UNL     1       5.011   4.481  18.226  0.00  0.00    +0.000 C 
ATOM     11  O   UNL     1       4.452   3.146  18.137  0.00  0.00    +0.000 OA
ATOM     12  C   UNL     1       3.049   3.220  18.460  0.00  0.00    +0.000 C 
ATOM     13  C   UNL     1       2.869   4.517  19.248  0.00  0.00    +0.000 C 
ATOM     14  C   UNL     1       3.884   5.444  18.606  0.00  0.00    +0.000 C 
ATOM     15  F   UNL     1       3.329   6.003  17.495  0.00  0.00    +0.000 F 
BRANCH  13  16
ATOM     16  O   UNL     1       3.192   4.334  20.635  0.00  0.00    +0.000 OA
ATOM     17  H   UNL     1       3.893   4.963  20.886  0.00  0.00    +0.000 HD
ENDBRANCH  13  16
BRANCH  12  18
ATOM     18  C   UNL     1       2.224   3.158  17.171  0.00  0.00    +0.000 C 
BRANCH  18  19
ATOM     19  O   UNL     1       1.072   3.980  17.265  0.00  0.00    +0.000 OA
ATOM     20  H   UNL     1       1.138   4.643  16.555  0.00  0.00    +0.000 HD
ENDBRANCH  18  19
ENDBRANCH  12  18
ENDBRANCH   6  10
BRANCH   8  21
ATOM     21  C   UNL     1       6.116   3.539  13.428  0.00  0.00    +0.000 C 
BRANCH  21  22
ATOM     22  C   UNL     1       4.830   3.793  12.646  0.00  0.00    +0.000 C 
ATOM     23  F   UNL     1       4.673   2.830  11.697  0.00  0.00    +0.000 F 
ENDBRANCH  21  22
ENDBRANCH   8  21
TORSDOF 6
ENDMDL
MODEL 9
REMARK VINA RESULT:      -6.6      2.932      3.544
REMARK  Name = 
REMARK  6 active torsions:
REMARK  status: ('A' for Active; 'I' for Inactive)
REMARK    1  A    between atoms: N_6  and  C_7
REMARK    2  A    between atoms: C_9  and  C_10
REMARK    3  A    between atoms: C_10  and  O_11
REMARK    4  A    between atoms: C_12  and  O_13
REMARK    5  A    between atoms: C_17  and  C_18
REMARK    6  A    between atoms: C_18  and  C_19
REMARK                            x       y       z     vdW  Elec       q    Type
REMARK                         _______ _______ _______ _____ _____    ______ ____
ROOT
ATOM      1  O   UNL     1       5.271   7.145  16.355  0.00  0.00    +0.000 OA
ATOM      2  C   UNL     1       4.884   6.586  17.378  0.00  0.00    +0.000 A 
ATOM      3  N   UNL     1       5.640   5.655  18.030  0.00  0.00    +0.000 N 
ATOM      4  C   UNL     1       5.162   4.741  18.933  0.00  0.00    +0.000 A 
ATOM      5  O   UNL     1       5.855   3.799  19.301  0.00  0.00    +0.000 OA
ATOM      6  N   UNL     1       3.855   4.943  19.349  0.00  0.00    +0.000 N 
ATOM      7  C   UNL     1       3.123   6.026  18.914  0.00  0.00    +0.000 A 
ATOM      8  C   UNL     1       3.551   6.868  17.965  0.00  0.00    +0.000 A 
ATOM      9  H   UNL     1       6.547   5.457  17.639  0.00  0.00    +0.000 HD
ENDROOT
BRANCH   6  10
ATOM     10  C   UNL     1       3.286   3.966  20.278  0.00  0.00    +0.000 C 
ATOM     11  O   UNL     1       2.985   2.727  19.587  0.00  0.00    +0.000 OA
ATOM     12  C   UNL     1       1.618   2.369  19.874  0.00  0.00    +0.000 C 
ATOM     13  C   UNL     1       1.251   3.118  21.156  0.00  0.00    +0.000 C 
ATOM     14  C   UNL     1       2.026   4.415  21.021  0.00  0.00    +0.000 C 
ATOM     15  F   UNL     1       1.301   5.285  20.265  0.00  0.00    +0.000 F 
BRANCH  13  16
ATOM     16  O   UNL     1       1.695   2.408  22.321  0.00  0.00    +0.000 OA
ATOM     17  H   UNL     1       2.566   2.012  22.142  0.00  0.00    +0.000 HD
ENDBRANCH  13  16
BRANCH  12  18
ATOM     18  C   UNL     1       0.734   2.723  18.674  0.00  0.00    +0.000 C 
BRANCH  18  19
ATOM     19  O   UNL     1       1.514   3.216  17.597  0.00  0.00    +0.000 OA
ATOM     20  H   UNL     1       2.399   3.411  17.954  0.00  0.00    +0.000 HD
ENDBRANCH  18  19
ENDBRANCH  12  18
ENDBRANCH   6  10
BRANCH   8  21
ATOM     21  C   UNL     1       2.796   8.048  17.410  0.00  0.00    +0.000 C 
BRANCH  21  22
ATOM     22  C   UNL     1       1.834   8.743  18.371  0.00  0.00    +0.000 C 
ATOM     23  F   UNL     1       0.766   9.226  17.679  0.00  0.00    +0.000 F 
ENDBRANCH  21  22
ENDBRANCH   8  21
TORSDOF 6
ENDMDL
