MODEL 1
REMARK VINA RESULT:      -8.4      0.000      0.000
REMARK  Name = 
REMARK  8 active torsions:
REMARK  status: ('A' for Active; 'I' for Inactive)
REMARK    1  A    between atoms: C_1  and  N_2
REMARK    2  A    between atoms: C_6  and  S_7
REMARK    3  A    between atoms: S_7  and  N_10
REMARK    4  A    between atoms: N_10  and  C_11
REMARK    5  A    between atoms: C_11  and  C_12
REMARK    6  A    between atoms: C_12  and  C_13
REMARK    7  A    between atoms: N_17  and  C_18
REMARK    8  A    between atoms: C_18  and  C_19
REMARK                            x       y       z     vdW  Elec       q    Type
REMARK                         _______ _______ _______ _____ _____    ______ ____
ROOT
ATOM      1  C   UNL     1       5.364   5.382  17.452  0.00  0.00    +0.000 C 
ATOM      2  C   UNL     1       5.066   6.878  17.188  0.00  0.00    +0.000 C 
ATOM      3  C   UNL     1       5.552   5.180  18.968  0.00  0.00    +0.000 C 
ATOM      4  C   UNL     1       7.021   5.473  19.180  0.00  0.00    +0.000 C 
ATOM      5  C   UNL     1       7.673   4.882  17.946  0.00  0.00    +0.000 C 
ATOM      6  N   UNL     1       6.654   4.870  16.878  0.00  0.00    +0.000 NA
ENDROOT
BRANCH   1   7
ATOM      7  C   UNL     1       4.136   4.558  16.954  0.00  0.00    +0.000 C 
BRANCH   7   8
ATOM      8  N   UNL     1       3.032   4.617  17.927  0.00  0.00    +0.000 NA
ATOM      9  H   UNL     1       3.190   5.245  18.716  0.00  0.00    +0.000 HD
BRANCH   8  10
ATOM     10  S   UNL     1       2.097   3.270  18.196  0.00  0.00    +0.000 S 
ATOM     11  O   UNL     1       2.765   2.124  17.621  0.00  0.00    +0.000 OA
ATOM     12  O   UNL     1       0.737   3.614  17.859  0.00  0.00    +0.000 OA
BRANCH  10  18
ATOM     13  C   UNL     1       4.495   2.192  20.214  0.00  0.00    +0.000 C 
ATOM     14  N   UNL     1       3.150   2.488  20.636  0.00  0.00    +0.000 N 
ATOM     15  N   UNL     1       2.826   2.321  21.934  0.00  0.00    +0.000 NA
ATOM     16  N   UNL     1       1.564   2.691  22.085  0.00  0.00    +0.000 NA
ATOM     17  C   UNL     1       1.100   3.086  20.867  0.00  0.00    +0.000 A 
ATOM     18  C   UNL     1       2.085   2.945  19.909  0.00  0.00    +0.000 A 
ENDBRANCH  10  18
ENDBRANCH   8  10
ENDBRANCH   7   8
ENDBRANCH   1   7
BRANCH   6  19
ATOM     19  C   UNL     1       7.120   5.555  15.661  0.00  0.00    +0.000 C 
BRANCH  19  20
ATOM     20  C   UNL     1       6.883   4.818  14.350  0.00  0.00    +0.000 A 
ATOM     21  C   UNL     1       5.831   3.905  14.178  0.00  0.00    +0.000 A 
ATOM     22  C   UNL     1       5.613   3.289  12.940  0.00  0.00    +0.000 A 
ATOM     23  C   UNL     1       6.429   3.591  11.852  0.00  0.00    +0.000 A 
ATOM     24  C   UNL     1       7.468   4.505  12.000  0.00  0.00    +0.000 A 
ATOM     25  C   UNL     1       7.692   5.114  13.238  0.00  0.00    +0.000 A 
ENDBRANCH  19  20
ENDBRANCH   6  19
TORSDOF 6
ENDMDL
MODEL 2
REMARK VINA RESULT:      -8.0      0.331      1.032
REMARK  Name = 
REMARK  8 active torsions:
REMARK  status: ('A' for Active; 'I' for Inactive)
REMARK    1  A    between atoms: C_1  and  N_2
REMARK    2  A    between atoms: C_6  and  S_7
REMARK    3  A    between atoms: S_7  and  N_10
REMARK    4  A    between atoms: N_10  and  C_11
REMARK    5  A    between atoms: C_11  and  C_12
REMARK    6  A    between atoms: C_12  and  C_13
REMARK    7  A    between atoms: N_17  and  C_18
REMARK    8  A    between atoms: C_18  and  C_19
REMARK                            x       y       z     vdW  Elec       q    Type
REMARK                         _______ _______ _______ _____ _____    ______ ____
ROOT
ATOM      1  C   UNL     1       5.299   5.105  17.655  0.00  0.00    +0.000 C 
ATOM      2  C   UNL     1       4.576   6.468  17.530  0.00  0.00    +0.000 C 
ATOM      3  C   UNL     1       5.751   4.922  19.116  0.00  0.00    +0.000 C 
ATOM      4  C   UNL     1       7.102   5.601  19.153  0.00  0.00    +0.000 C 
ATOM      5  C   UNL     1       7.704   5.245  17.807  0.00  0.00    +0.000 C 
ATOM      6  N   UNL     1       6.583   4.983  16.884  0.00  0.00    +0.000 NA
ENDROOT
BRANCH   1   7
ATOM      7  C   UNL     1       4.279   3.988  17.270  0.00  0.00    +0.000 C 
BRANCH   7   8
ATOM      8  N   UNL     1       2.944   4.284  17.816  0.00  0.00    +0.000 NA
ATOM      9  H   UNL     1       2.887   5.138  18.372  0.00  0.00    +0.000 HD
BRANCH   8  10
ATOM     10  S   UNL     1       1.925   3.035  18.225  0.00  0.00    +0.000 S 
ATOM     11  O   UNL     1       2.465   1.807  17.687  0.00  0.00    +0.000 OA
ATOM     12  O   UNL     1       0.578   3.469  17.946  0.00  0.00    +0.000 OA
BRANCH  10  18
ATOM     13  C   UNL     1       4.432   2.123  20.192  0.00  0.00    +0.000 C 
ATOM     14  N   UNL     1       3.101   2.421  20.656  0.00  0.00    +0.000 N 
ATOM     15  N   UNL     1       2.840   2.328  21.976  0.00  0.00    +0.000 NA
ATOM     16  N   UNL     1       1.579   2.685  22.162  0.00  0.00    +0.000 NA
ATOM     17  C   UNL     1       1.053   2.998  20.945  0.00  0.00    +0.000 A 
ATOM     18  C   UNL     1       1.996   2.815  19.953  0.00  0.00    +0.000 A 
ENDBRANCH  10  18
ENDBRANCH   8  10
ENDBRANCH   7   8
ENDBRANCH   1   7
BRANCH   6  19
ATOM     19  C   UNL     1       6.668   5.801  15.663  0.00  0.00    +0.000 C 
BRANCH  19  20
ATOM     20  C   UNL     1       6.621   5.039  14.346  0.00  0.00    +0.000 A 
ATOM     21  C   UNL     1       7.643   5.126  13.388  0.00  0.00    +0.000 A 
ATOM     22  C   UNL     1       7.589   4.367  12.213  0.00  0.00    +0.000 A 
ATOM     23  C   UNL     1       6.525   3.496  11.988  0.00  0.00    +0.000 A 
ATOM     24  C   UNL     1       5.510   3.385  12.934  0.00  0.00    +0.000 A 
ATOM     25  C   UNL     1       5.558   4.149  14.103  0.00  0.00    +0.000 A 
ENDBRANCH  19  20
ENDBRANCH   6  19
TORSDOF 6
ENDMDL
MODEL 3
REMARK VINA RESULT:      -7.9      2.260      4.676
REMARK  Name = 
REMARK  8 active torsions:
REMARK  status: ('A' for Active; 'I' for Inactive)
REMARK    1  A    between atoms: C_1  and  N_2
REMARK    2  A    between atoms: C_6  and  S_7
REMARK    3  A    between atoms: S_7  and  N_10
REMARK    4  A    between atoms: N_10  and  C_11
REMARK    5  A    between atoms: C_11  and  C_12
REMARK    6  A    between atoms: C_12  and  C_13
REMARK    7  A    between atoms: N_17  and  C_18
REMARK    8  A    between atoms: C_18  and  C_19
REMARK                            x       y       z     vdW  Elec       q    Type
REMARK                         _______ _______ _______ _____ _____    ______ ____
ROOT
ATOM      1  C   UNL     1       6.250   5.100  17.384  0.00  0.00    +0.000 C 
ATOM      2  C   UNL     1       7.326   6.089  17.895  0.00  0.00    +0.000 C 
ATOM      3  C   UNL     1       6.907   4.141  16.373  0.00  0.00    +0.000 C 
ATOM      4  C   UNL     1       6.793   4.885  15.061  0.00  0.00    +0.000 C 
ATOM      5  C   UNL     1       5.434   5.551  15.159  0.00  0.00    +0.000 C 
ATOM      6  N   UNL     1       5.131   5.715  16.594  0.00  0.00    +0.000 NA
ENDROOT
BRANCH   1   7
ATOM      7  C   UNL     1       5.722   4.296  18.614  0.00  0.00    +0.000 C 
BRANCH   7   8
ATOM      8  N   UNL     1       4.699   3.320  18.205  0.00  0.00    +0.000 NA
ATOM      9  H   UNL     1       4.000   3.679  17.553  0.00  0.00    +0.000 HD
BRANCH   8  10
ATOM     10  S   UNL     1       4.217   2.136  19.269  0.00  0.00    +0.000 S 
ATOM     11  O   UNL     1       5.211   2.023  20.311  0.00  0.00    +0.000 OA
ATOM     12  O   UNL     1       3.792   1.001  18.487  0.00  0.00    +0.000 OA
BRANCH  10  18
ATOM     13  C   UNL     1       1.379   3.380  18.093  0.00  0.00    +0.000 C 
ATOM     14  N   UNL     1       1.670   3.201  19.492  0.00  0.00    +0.000 N 
ATOM     15  N   UNL     1       0.737   3.558  20.399  0.00  0.00    +0.000 NA
ATOM     16  N   UNL     1       1.211   3.266  21.600  0.00  0.00    +0.000 NA
ATOM     17  C   UNL     1       2.451   2.726  21.436  0.00  0.00    +0.000 A 
ATOM     18  C   UNL     1       2.787   2.694  20.097  0.00  0.00    +0.000 A 
ENDBRANCH  10  18
ENDBRANCH   8  10
ENDBRANCH   7   8
ENDBRANCH   1   7
BRANCH   6  19
ATOM     19  C   UNL     1       4.808   7.110  16.935  0.00  0.00    +0.000 C 
BRANCH  19  20
ATOM     20  C   UNL     1       3.633   7.308  17.883  0.00  0.00    +0.000 A 
ATOM     21  C   UNL     1       3.387   6.453  18.968  0.00  0.00    +0.000 A 
ATOM     22  C   UNL     1       2.327   6.701  19.849  0.00  0.00    +0.000 A 
ATOM     23  C   UNL     1       1.513   7.817  19.671  0.00  0.00    +0.000 A 
ATOM     24  C   UNL     1       1.751   8.685  18.610  0.00  0.00    +0.000 A 
ATOM     25  C   UNL     1       2.802   8.433  17.724  0.00  0.00    +0.000 A 
ENDBRANCH  19  20
ENDBRANCH   6  19
TORSDOF 6
ENDMDL
MODEL 4
REMARK VINA RESULT:      -7.8      0.856      1.126
REMARK  Name = 
REMARK  8 active torsions:
REMARK  status: ('A' for Active; 'I' for Inactive)
REMARK    1  A    between atoms: C_1  and  N_2
REMARK    2  A    between atoms: C_6  and  S_7
REMARK    3  A    between atoms: S_7  and  N_10
REMARK    4  A    between atoms: N_10  and  C_11
REMARK    5  A    between atoms: C_11  and  C_12
REMARK    6  A    between atoms: C_12  and  C_13
REMARK    7  A    between atoms: N_17  and  C_18
REMARK    8  A    between atoms: C_18  and  C_19
REMARK                            x       y       z     vdW  Elec       q    Type
REMARK                         _______ _______ _______ _____ _____    ______ ____
ROOT
ATOM      1  C   UNL     1       5.260   5.042  17.610  0.00  0.00    +0.000 C 
ATOM      2  C   UNL     1       4.632   6.445  17.418  0.00  0.00    +0.000 C 
ATOM      3  C   UNL     1       5.527   4.827  19.112  0.00  0.00    +0.000 C 
ATOM      4  C   UNL     1       6.900   5.429  19.313  0.00  0.00    +0.000 C 
ATOM      5  C   UNL     1       7.634   5.047  18.043  0.00  0.00    +0.000 C 
ATOM      6  N   UNL     1       6.615   4.852  16.992  0.00  0.00    +0.000 NA
ENDROOT
BRANCH   1   7
ATOM      7  C   UNL     1       4.231   3.987  17.096  0.00  0.00    +0.000 C 
BRANCH   7   8
ATOM      8  N   UNL     1       2.870   4.312  17.552  0.00  0.00    +0.000 NA
ATOM      9  H   UNL     1       2.756   5.257  17.923  0.00  0.00    +0.000 HD
BRANCH   8  10
ATOM     10  S   UNL     1       1.907   3.118  18.191  0.00  0.00    +0.000 S 
ATOM     11  O   UNL     1       2.424   1.836  17.769  0.00  0.00    +0.000 OA
ATOM     12  O   UNL     1       0.535   3.504  17.968  0.00  0.00    +0.000 OA
BRANCH  10  18
ATOM     13  C   UNL     1       1.943   5.614  20.372  0.00  0.00    +0.000 C 
ATOM     14  N   UNL     1       2.119   4.227  20.720  0.00  0.00    +0.000 N 
ATOM     15  N   UNL     1       2.314   3.904  22.015  0.00  0.00    +0.000 NA
ATOM     16  N   UNL     1       2.408   2.586  22.092  0.00  0.00    +0.000 NA
ATOM     17  C   UNL     1       2.275   2.087  20.830  0.00  0.00    +0.000 A 
ATOM     18  C   UNL     1       2.114   3.116  19.923  0.00  0.00    +0.000 A 
ENDBRANCH  10  18
ENDBRANCH   8  10
ENDBRANCH   7   8
ENDBRANCH   1   7
BRANCH   6  19
ATOM     19  C   UNL     1       6.888   5.671  15.799  0.00  0.00    +0.000 C 
BRANCH  19  20
ATOM     20  C   UNL     1       6.817   4.945  14.463  0.00  0.00    +0.000 A 
ATOM     21  C   UNL     1       5.837   3.982  14.179  0.00  0.00    +0.000 A 
ATOM     22  C   UNL     1       5.772   3.376  12.919  0.00  0.00    +0.000 A 
ATOM     23  C   UNL     1       6.672   3.739  11.918  0.00  0.00    +0.000 A 
ATOM     24  C   UNL     1       7.641   4.704  12.177  0.00  0.00    +0.000 A 
ATOM     25  C   UNL     1       7.712   5.302  13.438  0.00  0.00    +0.000 A 
ENDBRANCH  19  20
ENDBRANCH   6  19
TORSDOF 6
ENDMDL
MODEL 5
REMARK VINA RESULT:      -7.8      1.065      1.918
REMARK  Name = 
REMARK  8 active torsions:
REMARK  status: ('A' for Active; 'I' for Inactive)
REMARK    1  A    between atoms: C_1  and  N_2
REMARK    2  A    between atoms: C_6  and  S_7
REMARK    3  A    between atoms: S_7  and  N_10
REMARK    4  A    between atoms: N_10  and  C_11
REMARK    5  A    between atoms: C_11  and  C_12
REMARK    6  A    between atoms: C_12  and  C_13
REMARK    7  A    between atoms: N_17  and  C_18
REMARK    8  A    between atoms: C_18  and  C_19
REMARK                            x       y       z     vdW  Elec       q    Type
REMARK                         _______ _______ _______ _____ _____    ______ ____
ROOT
ATOM      1  C   UNL     1       6.102   6.203  17.561  0.00  0.00    +0.000 C 
ATOM      2  C   UNL     1       6.688   7.622  17.366  0.00  0.00    +0.000 C 
ATOM      3  C   UNL     1       6.367   5.759  19.012  0.00  0.00    +0.000 C 
ATOM      4  C   UNL     1       7.746   5.140  18.942  0.00  0.00    +0.000 C 
ATOM      5  C   UNL     1       7.738   4.429  17.603  0.00  0.00    +0.000 C 
ATOM      6  N   UNL     1       6.752   5.119  16.749  0.00  0.00    +0.000 NA
ENDROOT
BRANCH   1   7
ATOM      7  C   UNL     1       4.565   6.284  17.302  0.00  0.00    +0.000 C 
BRANCH   7   8
ATOM      8  N   UNL     1       3.978   4.939  17.190  0.00  0.00    +0.000 NA
ATOM      9  H   UNL     1       3.995   4.540  16.251  0.00  0.00    +0.000 HD
BRANCH   8  10
ATOM     10  S   UNL     1       2.718   4.504  18.183  0.00  0.00    +0.000 S 
ATOM     11  O   UNL     1       1.823   3.645  17.441  0.00  0.00    +0.000 OA
ATOM     12  O   UNL     1       2.260   5.699  18.848  0.00  0.00    +0.000 OA
BRANCH  10  18
ATOM     13  C   UNL     1       1.314   3.401  20.976  0.00  0.00    +0.000 C 
ATOM     14  N   UNL     1       2.663   3.099  20.570  0.00  0.00    +0.000 N 
ATOM     15  N   UNL     1       3.420   2.317  21.367  0.00  0.00    +0.000 NA
ATOM     16  N   UNL     1       4.590   2.149  20.772  0.00  0.00    +0.000 NA
ATOM     17  C   UNL     1       4.559   2.837  19.596  0.00  0.00    +0.000 A 
ATOM     18  C   UNL     1       3.346   3.480  19.448  0.00  0.00    +0.000 A 
ENDBRANCH  10  18
ENDBRANCH   8  10
ENDBRANCH   7   8
ENDBRANCH   1   7
BRANCH   6  19
ATOM     19  C   UNL     1       7.336   5.552  15.469  0.00  0.00    +0.000 C 
BRANCH  19  20
ATOM     20  C   UNL     1       6.817   4.841  14.226  0.00  0.00    +0.000 A 
ATOM     21  C   UNL     1       7.561   4.758  13.039  0.00  0.00    +0.000 A 
ATOM     22  C   UNL     1       7.071   4.048  11.936  0.00  0.00    +0.000 A 
ATOM     23  C   UNL     1       5.843   3.395  12.010  0.00  0.00    +0.000 A 
ATOM     24  C   UNL     1       5.099   3.453  13.184  0.00  0.00    +0.000 A 
ATOM     25  C   UNL     1       5.582   4.170  14.283  0.00  0.00    +0.000 A 
ENDBRANCH  19  20
ENDBRANCH   6  19
TORSDOF 6
ENDMDL
MODEL 6
REMARK VINA RESULT:      -7.8      1.350      1.972
REMARK  Name = 
REMARK  8 active torsions:
REMARK  status: ('A' for Active; 'I' for Inactive)
REMARK    1  A    between atoms: C_1  and  N_2
REMARK    2  A    between atoms: C_6  and  S_7
REMARK    3  A    between atoms: S_7  and  N_10
REMARK    4  A    between atoms: N_10  and  C_11
REMARK    5  A    between atoms: C_11  and  C_12
REMARK    6  A    between atoms: C_12  and  C_13
REMARK    7  A    between atoms: N_17  and  C_18
REMARK    8  A    between atoms: C_18  and  C_19
REMARK                            x       y       z     vdW  Elec       q    Type
REMARK                         _______ _______ _______ _____ _____    ______ ____
ROOT
ATOM      1  C   UNL     1       6.385   6.475  17.591  0.00  0.00    +0.000 C 
ATOM      2  C   UNL     1       7.219   7.757  17.350  0.00  0.00    +0.000 C 
ATOM      3  C   UNL     1       6.694   5.949  19.005  0.00  0.00    +0.000 C 
ATOM      4  C   UNL     1       7.911   5.074  18.796  0.00  0.00    +0.000 C 
ATOM      5  C   UNL     1       7.635   4.415  17.458  0.00  0.00    +0.000 C 
ATOM      6  N   UNL     1       6.728   5.307  16.710  0.00  0.00    +0.000 NA
ENDROOT
BRANCH   1   7
ATOM      7  C   UNL     1       4.877   6.862  17.485  0.00  0.00    +0.000 C 
BRANCH   7   8
ATOM      8  N   UNL     1       4.041   5.670  17.268  0.00  0.00    +0.000 NA
ATOM      9  H   UNL     1       3.855   5.449  16.289  0.00  0.00    +0.000 HD
BRANCH   8  10
ATOM     10  S   UNL     1       2.870   5.270  18.378  0.00  0.00    +0.000 S 
ATOM     11  O   UNL     1       1.727   4.742  17.670  0.00  0.00    +0.000 OA
ATOM     12  O   UNL     1       2.759   6.371  19.303  0.00  0.00    +0.000 OA
BRANCH  10  18
ATOM     13  C   UNL     1       1.541   3.728  20.994  0.00  0.00    +0.000 C 
ATOM     14  N   UNL     1       2.806   3.378  20.400  0.00  0.00    +0.000 N 
ATOM     15  N   UNL     1       3.511   2.358  20.931  0.00  0.00    +0.000 NA
ATOM     16  N   UNL     1       4.604   2.200  20.200  0.00  0.00    +0.000 NA
ATOM     17  C   UNL     1       4.578   3.135  19.209  0.00  0.00    +0.000 A 
ATOM     18  C   UNL     1       3.450   3.925  19.324  0.00  0.00    +0.000 A 
ENDBRANCH  10  18
ENDBRANCH   8  10
ENDBRANCH   7   8
ENDBRANCH   1   7
BRANCH   6  19
ATOM     19  C   UNL     1       7.262   5.651  15.382  0.00  0.00    +0.000 C 
BRANCH  19  20
ATOM     20  C   UNL     1       6.760   4.802  14.223  0.00  0.00    +0.000 A 
ATOM     21  C   UNL     1       5.508   4.169  14.238  0.00  0.00    +0.000 A 
ATOM     22  C   UNL     1       5.059   3.442  13.129  0.00  0.00    +0.000 A 
ATOM     23  C   UNL     1       5.845   3.354  11.983  0.00  0.00    +0.000 A 
ATOM     24  C   UNL     1       7.084   3.988  11.943  0.00  0.00    +0.000 A 
ATOM     25  C   UNL     1       7.537   4.706  13.053  0.00  0.00    +0.000 A 
ENDBRANCH  19  20
ENDBRANCH   6  19
TORSDOF 6
ENDMDL
MODEL 7
REMARK VINA RESULT:      -7.8      3.249      6.808
REMARK  Name = 
REMARK  8 active torsions:
REMARK  status: ('A' for Active; 'I' for Inactive)
REMARK    1  A    between atoms: C_1  and  N_2
REMARK    2  A    between atoms: C_6  and  S_7
REMARK    3  A    between atoms: S_7  and  N_10
REMARK    4  A    between atoms: N_10  and  C_11
REMARK    5  A    between atoms: C_11  and  C_12
REMARK    6  A    between atoms: C_12  and  C_13
REMARK    7  A    between atoms: N_17  and  C_18
REMARK    8  A    between atoms: C_18  and  C_19
REMARK                            x       y       z     vdW  Elec       q    Type
REMARK                         _______ _______ _______ _____ _____    ______ ____
ROOT
ATOM      1  C   UNL     1       3.448   3.504  18.879  0.00  0.00    +0.000 C 
ATOM      2  C   UNL     1       3.727   3.214  17.384  0.00  0.00    +0.000 C 
ATOM      3  C   UNL     1       2.731   2.285  19.489  0.00  0.00    +0.000 C 
ATOM      4  C   UNL     1       1.271   2.559  19.202  0.00  0.00    +0.000 C 
ATOM      5  C   UNL     1       1.157   4.058  19.394  0.00  0.00    +0.000 C 
ATOM      6  N   UNL     1       2.495   4.632  19.151  0.00  0.00    +0.000 NA
ENDROOT
BRANCH   1   7
ATOM      7  C   UNL     1       4.824   3.719  19.585  0.00  0.00    +0.000 C 
BRANCH   7   8
ATOM      8  N   UNL     1       5.937   3.499  18.648  0.00  0.00    +0.000 NA
ATOM      9  H   UNL     1       6.343   2.563  18.677  0.00  0.00    +0.000 HD
BRANCH   8  10
ATOM     10  S   UNL     1       6.947   4.759  18.256  0.00  0.00    +0.000 S 
ATOM     11  O   UNL     1       8.161   4.217  17.690  0.00  0.00    +0.000 OA
ATOM     12  O   UNL     1       6.961   5.666  19.378  0.00  0.00    +0.000 OA
BRANCH  10  18
ATOM     13  C   UNL     1       6.501   3.953  15.072  0.00  0.00    +0.000 C 
ATOM     14  N   UNL     1       6.106   5.210  15.655  0.00  0.00    +0.000 N 
ATOM     15  N   UNL     1       5.515   6.132  14.869  0.00  0.00    +0.000 NA
ATOM     16  N   UNL     1       5.210   7.172  15.628  0.00  0.00    +0.000 NA
ATOM     17  C   UNL     1       5.621   6.894  16.897  0.00  0.00    +0.000 A 
ATOM     18  C   UNL     1       6.224   5.653  16.944  0.00  0.00    +0.000 A 
ENDBRANCH  10  18
ENDBRANCH   8  10
ENDBRANCH   7   8
ENDBRANCH   1   7
BRANCH   6  19
ATOM     19  C   UNL     1       2.465   5.694  18.132  0.00  0.00    +0.000 C 
BRANCH  19  20
ATOM     20  C   UNL     1       2.115   7.088  18.634  0.00  0.00    +0.000 A 
ATOM     21  C   UNL     1       1.929   8.177  17.768  0.00  0.00    +0.000 A 
ATOM     22  C   UNL     1       1.553   9.431  18.264  0.00  0.00    +0.000 A 
ATOM     23  C   UNL     1       1.338   9.610  19.629  0.00  0.00    +0.000 A 
ATOM     24  C   UNL     1       1.502   8.538  20.501  0.00  0.00    +0.000 A 
ATOM     25  C   UNL     1       1.886   7.288  20.008  0.00  0.00    +0.000 A 
ENDBRANCH  19  20
ENDBRANCH   6  19
TORSDOF 6
ENDMDL
MODEL 8
REMARK VINA RESULT:      -7.7      2.186      4.625
REMARK  Name = 
REMARK  8 active torsions:
REMARK  status: ('A' for Active; 'I' for Inactive)
REMARK    1  A    between atoms: C_1  and  N_2
REMARK    2  A    between atoms: C_6  and  S_7
REMARK    3  A    between atoms: S_7  and  N_10
REMARK    4  A    between atoms: N_10  and  C_11
REMARK    5  A    between atoms: C_11  and  C_12
REMARK    6  A    between atoms: C_12  and  C_13
REMARK    7  A    between atoms: N_17  and  C_18
REMARK    8  A    between atoms: C_18  and  C_19
REMARK                            x       y       z     vdW  Elec       q    Type
REMARK                         _______ _______ _______ _____ _____    ______ ____
ROOT
ATOM      1  C   UNL     1       6.078   5.317  17.613  0.00  0.00    +0.000 C 
ATOM      2  C   UNL     1       7.106   6.387  18.055  0.00  0.00    +0.000 C 
ATOM      3  C   UNL     1       6.802   4.272  16.743  0.00  0.00    +0.000 C 
ATOM      4  C   UNL     1       6.729   4.863  15.353  0.00  0.00    +0.000 C 
ATOM      5  C   UNL     1       5.352   5.496  15.319  0.00  0.00    +0.000 C 
ATOM      6  N   UNL     1       4.981   5.809  16.712  0.00  0.00    +0.000 NA
ENDROOT
BRANCH   1   7
ATOM      7  C   UNL     1       5.515   4.639  18.901  0.00  0.00    +0.000 C 
BRANCH   7   8
ATOM      8  N   UNL     1       5.302   3.198  18.688  0.00  0.00    +0.000 NA
ATOM      9  H   UNL     1       6.080   2.710  18.242  0.00  0.00    +0.000 HD
BRANCH   8  10
ATOM     10  S   UNL     1       3.770   2.626  18.390  0.00  0.00    +0.000 S 
ATOM     11  O   UNL     1       3.851   1.208  18.126  0.00  0.00    +0.000 OA
ATOM     12  O   UNL     1       3.138   3.544  17.473  0.00  0.00    +0.000 OA
BRANCH  10  18
ATOM     13  C   UNL     1       0.503   2.448  18.924  0.00  0.00    +0.000 C 
ATOM     14  N   UNL     1       1.485   2.656  19.957  0.00  0.00    +0.000 N 
ATOM     15  N   UNL     1       1.066   2.789  21.232  0.00  0.00    +0.000 NA
ATOM     16  N   UNL     1       2.139   2.927  21.996  0.00  0.00    +0.000 NA
ATOM     17  C   UNL     1       3.233   2.883  21.185  0.00  0.00    +0.000 A 
ATOM     18  C   UNL     1       2.848   2.736  19.867  0.00  0.00    +0.000 A 
ENDBRANCH  10  18
ENDBRANCH   8  10
ENDBRANCH   7   8
ENDBRANCH   1   7
BRANCH   6  19
ATOM     19  C   UNL     1       4.609   7.223  16.882  0.00  0.00    +0.000 C 
BRANCH  19  20
ATOM     20  C   UNL     1       3.460   7.499  17.842  0.00  0.00    +0.000 A 
ATOM     21  C   UNL     1       3.192   6.683  18.952  0.00  0.00    +0.000 A 
ATOM     22  C   UNL     1       2.159   7.001  19.842  0.00  0.00    +0.000 A 
ATOM     23  C   UNL     1       1.394   8.149  19.648  0.00  0.00    +0.000 A 
ATOM     24  C   UNL     1       1.655   8.978  18.561  0.00  0.00    +0.000 A 
ATOM     25  C   UNL     1       2.679   8.656  17.667  0.00  0.00    +0.000 A 
ENDBRANCH  19  20
ENDBRANCH   6  19
TORSDOF 6
ENDMDL
MODEL 9
REMARK VINA RESULT:      -7.6      3.307      6.778
REMARK  Name = 
REMARK  8 active torsions:
REMARK  status: ('A' for Active; 'I' for Inactive)
REMARK    1  A    between atoms: C_1  and  N_2
REMARK    2  A    between atoms: C_6  and  S_7
REMARK    3  A    between atoms: S_7  and  N_10
REMARK    4  A    between atoms: N_10  and  C_11
REMARK    5  A    between atoms: C_11  and  C_12
REMARK    6  A    between atoms: C_12  and  C_13
REMARK    7  A    between atoms: N_17  and  C_18
REMARK    8  A    between atoms: C_18  and  C_19
REMARK                            x       y       z     vdW  Elec       q    Type
REMARK                         _______ _______ _______ _____ _____    ______ ____
ROOT
ATOM      1  C   UNL     1       3.667   3.847  19.193  0.00  0.00    +0.000 C 
ATOM      2  C   UNL     1       3.778   3.355  17.729  0.00  0.00    +0.000 C 
ATOM      3  C   UNL     1       3.131   2.692  20.059  0.00  0.00    +0.000 C 
ATOM      4  C   UNL     1       1.630   2.832  19.937  0.00  0.00    +0.000 C 
ATOM      5  C   UNL     1       1.422   4.334  19.931  0.00  0.00    +0.000 C 
ATOM      6  N   UNL     1       2.669   4.944  19.431  0.00  0.00    +0.000 NA
ENDROOT
BRANCH   1   7
ATOM      7  C   UNL     1       5.099   4.248  19.669  0.00  0.00    +0.000 C 
BRANCH   7   8
ATOM      8  N   UNL     1       6.120   3.781  18.717  0.00  0.00    +0.000 NA
ATOM      9  H   UNL     1       6.485   2.846  18.904  0.00  0.00    +0.000 HD
BRANCH   8  10
ATOM     10  S   UNL     1       7.151   4.877  18.010  0.00  0.00    +0.000 S 
ATOM     11  O   UNL     1       8.185   4.151  17.310  0.00  0.00    +0.000 OA
ATOM     12  O   UNL     1       7.453   5.885  18.997  0.00  0.00    +0.000 OA
BRANCH  10  18
ATOM     13  C   UNL     1       6.382   3.937  14.926  0.00  0.00    +0.000 C 
ATOM     14  N   UNL     1       6.034   5.213  15.497  0.00  0.00    +0.000 N 
ATOM     15  N   UNL     1       5.351   6.096  14.741  0.00  0.00    +0.000 NA
ATOM     16  N   UNL     1       5.115   7.165  15.485  0.00  0.00    +0.000 NA
ATOM     17  C   UNL     1       5.661   6.943  16.714  0.00  0.00    +0.000 A 
ATOM     18  C   UNL     1       6.282   5.709  16.747  0.00  0.00    +0.000 A 
ENDBRANCH  10  18
ENDBRANCH   8  10
ENDBRANCH   7   8
ENDBRANCH   1   7
BRANCH   6  19
ATOM     19  C   UNL     1       2.428   5.839  18.287  0.00  0.00    +0.000 C 
BRANCH  19  20
ATOM     20  C   UNL     1       2.025   7.266  18.632  0.00  0.00    +0.000 A 
ATOM     21  C   UNL     1       1.585   7.637  19.912  0.00  0.00    +0.000 A 
ATOM     22  C   UNL     1       1.277   8.971  20.204  0.00  0.00    +0.000 A 
ATOM     23  C   UNL     1       1.423   9.956  19.229  0.00  0.00    +0.000 A 
ATOM     24  C   UNL     1       1.874   9.609  17.959  0.00  0.00    +0.000 A 
ATOM     25  C   UNL     1       2.172   8.276  17.663  0.00  0.00    +0.000 A 
ENDBRANCH  19  20
ENDBRANCH   6  19
TORSDOF 6
ENDMDL
