MODEL 1
REMARK VINA RESULT:      -7.9      0.000      0.000
REMARK  Name = 
REMARK  3 active torsions:
REMARK  status: ('A' for Active; 'I' for Inactive)
REMARK    1  A    between atoms: C_2  and  C_20
REMARK    2  A    between atoms: N_3  and  C_4
REMARK    3  A    between atoms: C_10  and  C_11
REMARK                            x       y       z     vdW  Elec       q    Type
REMARK                         _______ _______ _______ _____ _____    ______ ____
ROOT
ATOM      1  C   UNL     1       4.199   4.229  17.430  0.00  0.00    +0.000 A 
ATOM      2  C   UNL     1       4.287   3.194  18.366  0.00  0.00    +0.000 A 
ATOM      3  C   UNL     1       3.719   3.288  19.636  0.00  0.00    +0.000 A 
ATOM      4  C   UNL     1       3.074   4.480  19.948  0.00  0.00    +0.000 A 
ATOM      5  N   UNL     1       2.390   4.850  21.069  0.00  0.00    +0.000 N 
ATOM      6  N   UNL     1       1.897   6.090  21.025  0.00  0.00    +0.000 NA
ATOM      7  C   UNL     1       2.272   6.563  19.823  0.00  0.00    +0.000 A 
ATOM      8  C   UNL     1       3.011   5.572  19.088  0.00  0.00    +0.000 A 
ATOM      9  C   UNL     1       3.602   5.446  17.803  0.00  0.00    +0.000 A 
ATOM     10  H   UNL     1       2.213   4.289  21.893  0.00  0.00    +0.000 HD
ENDROOT
BRANCH   7  11
ATOM     11  C   UNL     1       1.885   7.923  19.434  0.00  0.00    +0.000 A 
ATOM     12  C   UNL     1       2.194   8.440  18.168  0.00  0.00    +0.000 A 
ATOM     13  C   UNL     1       1.818   9.742  17.825  0.00  0.00    +0.000 A 
ATOM     14  C   UNL     1       1.148  10.534  18.751  0.00  0.00    +0.000 A 
ATOM     15  F   UNL     1       0.798  11.783  18.419  0.00  0.00    +0.000 F 
ATOM     16  C   UNL     1       0.848  10.052  20.017  0.00  0.00    +0.000 A 
ATOM     17  C   UNL     1       1.216   8.748  20.356  0.00  0.00    +0.000 A 
ENDBRANCH   7  11
BRANCH   1  20
ATOM     18  O   UNL     1       6.812   4.912  16.458  0.00  0.00    +0.000 OA
ATOM     19  C   UNL     1       5.956   4.474  15.687  0.00  0.00    +0.000 C 
ATOM     20  N   UNL     1       4.688   4.078  16.105  0.00  0.00    +0.000 N 
ATOM     21  H   UNL     1       4.153   3.517  15.457  0.00  0.00    +0.000 HD
BRANCH  19  22
ATOM     22  C   UNL     1       6.282   4.315  14.278  0.00  0.00    +0.000 A 
ATOM     23  C   UNL     1       5.574   3.513  13.396  0.00  0.00    +0.000 A 
ATOM     24  C   UNL     1       6.141   3.484  12.095  0.00  0.00    +0.000 A 
ATOM     25  C   UNL     1       7.265   4.276  12.019  0.00  0.00    +0.000 A 
ATOM     26  S   UNL     1       7.612   5.054  13.508  0.00  0.00    +0.000 S 
ENDBRANCH  19  22
ENDBRANCH   1  20
TORSDOF 3
ENDMDL
MODEL 2
REMARK VINA RESULT:      -7.9      3.801      7.321
REMARK  Name = 
REMARK  3 active torsions:
REMARK  status: ('A' for Active; 'I' for Inactive)
REMARK    1  A    between atoms: C_2  and  C_20
REMARK    2  A    between atoms: N_3  and  C_4
REMARK    3  A    between atoms: C_10  and  C_11
REMARK                            x       y       z     vdW  Elec       q    Type
REMARK                         _______ _______ _______ _____ _____    ______ ____
ROOT
ATOM      1  C   UNL     1       2.131   6.915  19.826  0.00  0.00    +0.000 A 
ATOM      2  C   UNL     1       1.511   6.069  20.750  0.00  0.00    +0.000 A 
ATOM      3  C   UNL     1       1.843   4.719  20.865  0.00  0.00    +0.000 A 
ATOM      4  C   UNL     1       2.812   4.235  19.993  0.00  0.00    +0.000 A 
ATOM      5  N   UNL     1       3.377   2.998  19.896  0.00  0.00    +0.000 N 
ATOM      6  N   UNL     1       4.287   2.886  18.925  0.00  0.00    +0.000 NA
ATOM      7  C   UNL     1       4.327   4.103  18.354  0.00  0.00    +0.000 A 
ATOM      8  C   UNL     1       3.418   5.007  19.007  0.00  0.00    +0.000 A 
ATOM      9  C   UNL     1       3.056   6.377  18.913  0.00  0.00    +0.000 A 
ATOM     10  H   UNL     1       3.191   2.190  20.477  0.00  0.00    +0.000 HD
ENDROOT
BRANCH   7  11
ATOM     11  C   UNL     1       5.244   4.342  17.235  0.00  0.00    +0.000 A 
ATOM     12  C   UNL     1       6.596   4.644  17.446  0.00  0.00    +0.000 A 
ATOM     13  C   UNL     1       7.447   4.872  16.361  0.00  0.00    +0.000 A 
ATOM     14  C   UNL     1       6.944   4.817  15.065  0.00  0.00    +0.000 A 
ATOM     15  F   UNL     1       7.763   5.045  14.031  0.00  0.00    +0.000 F 
ATOM     16  C   UNL     1       5.605   4.540  14.831  0.00  0.00    +0.000 A 
ATOM     17  C   UNL     1       4.757   4.303  15.915  0.00  0.00    +0.000 A 
ENDBRANCH   7  11
BRANCH   1  20
ATOM     18  O   UNL     1       1.466   8.498  17.527  0.00  0.00    +0.000 OA
ATOM     19  C   UNL     1       1.589   9.028  18.633  0.00  0.00    +0.000 C 
ATOM     20  N   UNL     1       1.861   8.308  19.794  0.00  0.00    +0.000 N 
ATOM     21  H   UNL     1       1.705   8.787  20.670  0.00  0.00    +0.000 HD
BRANCH  19  22
ATOM     22  C   UNL     1       1.401  10.465  18.758  0.00  0.00    +0.000 A 
ATOM     23  C   UNL     1       2.207  11.415  18.150  0.00  0.00    +0.000 A 
ATOM     24  C   UNL     1       1.845  12.746  18.486  0.00  0.00    +0.000 A 
ATOM     25  C   UNL     1       0.763  12.773  19.338  0.00  0.00    +0.000 A 
ATOM     26  S   UNL     1       0.189  11.199  19.707  0.00  0.00    +0.000 S 
ENDBRANCH  19  22
ENDBRANCH   1  20
TORSDOF 3
ENDMDL
MODEL 3
REMARK VINA RESULT:      -7.8      3.790      7.322
REMARK  Name = 
REMARK  3 active torsions:
REMARK  status: ('A' for Active; 'I' for Inactive)
REMARK    1  A    between atoms: C_2  and  C_20
REMARK    2  A    between atoms: N_3  and  C_4
REMARK    3  A    between atoms: C_10  and  C_11
REMARK                            x       y       z     vdW  Elec       q    Type
REMARK                         _______ _______ _______ _____ _____    ______ ____
ROOT
ATOM      1  C   UNL     1       2.144   6.777  19.899  0.00  0.00    +0.000 A 
ATOM      2  C   UNL     1       1.537   5.900  20.802  0.00  0.00    +0.000 A 
ATOM      3  C   UNL     1       1.864   4.545  20.860  0.00  0.00    +0.000 A 
ATOM      4  C   UNL     1       2.814   4.090  19.952  0.00  0.00    +0.000 A 
ATOM      5  N   UNL     1       3.371   2.854  19.799  0.00  0.00    +0.000 N 
ATOM      6  N   UNL     1       4.262   2.775  18.807  0.00  0.00    +0.000 NA
ATOM      7  C   UNL     1       4.297   4.012  18.281  0.00  0.00    +0.000 A 
ATOM      8  C   UNL     1       3.405   4.895  18.985  0.00  0.00    +0.000 A 
ATOM      9  C   UNL     1       3.048   6.269  18.948  0.00  0.00    +0.000 A 
ATOM     10  H   UNL     1       3.191   2.026  20.353  0.00  0.00    +0.000 HD
ENDROOT
BRANCH   7  11
ATOM     11  C   UNL     1       5.194   4.289  17.154  0.00  0.00    +0.000 A 
ATOM     12  C   UNL     1       4.743   4.240  15.828  0.00  0.00    +0.000 A 
ATOM     13  C   UNL     1       5.621   4.503  14.773  0.00  0.00    +0.000 A 
ATOM     14  C   UNL     1       6.953   4.799  15.040  0.00  0.00    +0.000 A 
ATOM     15  F   UNL     1       7.791   5.043  14.024  0.00  0.00    +0.000 F 
ATOM     16  C   UNL     1       7.428   4.835  16.344  0.00  0.00    +0.000 A 
ATOM     17  C   UNL     1       6.548   4.581  17.397  0.00  0.00    +0.000 A 
ENDBRANCH   7  11
BRANCH   1  20
ATOM     18  O   UNL     1       1.537   8.466  17.659  0.00  0.00    +0.000 OA
ATOM     19  C   UNL     1       1.637   8.944  18.791  0.00  0.00    +0.000 C 
ATOM     20  N   UNL     1       1.880   8.171  19.923  0.00  0.00    +0.000 N 
ATOM     21  H   UNL     1       1.707   8.612  20.817  0.00  0.00    +0.000 HD
BRANCH  19  22
ATOM     22  C   UNL     1       1.452  10.375  18.976  0.00  0.00    +0.000 A 
ATOM     23  C   UNL     1       2.013  11.349  18.163  0.00  0.00    +0.000 A 
ATOM     24  C   UNL     1       1.728  12.668  18.601  0.00  0.00    +0.000 A 
ATOM     25  C   UNL     1       0.948  12.664  19.736  0.00  0.00    +0.000 A 
ATOM     26  S   UNL     1       0.556  11.074  20.247  0.00  0.00    +0.000 S 
ENDBRANCH  19  22
ENDBRANCH   1  20
TORSDOF 3
ENDMDL
MODEL 4
REMARK VINA RESULT:      -7.8      0.691      1.354
REMARK  Name = 
REMARK  3 active torsions:
REMARK  status: ('A' for Active; 'I' for Inactive)
REMARK    1  A    between atoms: C_2  and  C_20
REMARK    2  A    between atoms: N_3  and  C_4
REMARK    3  A    between atoms: C_10  and  C_11
REMARK                            x       y       z     vdW  Elec       q    Type
REMARK                         _______ _______ _______ _____ _____    ______ ____
ROOT
ATOM      1  C   UNL     1       4.312   4.194  17.271  0.00  0.00    +0.000 A 
ATOM      2  C   UNL     1       4.309   3.065  18.096  0.00  0.00    +0.000 A 
ATOM      3  C   UNL     1       3.642   3.039  19.320  0.00  0.00    +0.000 A 
ATOM      4  C   UNL     1       2.992   4.206  19.706  0.00  0.00    +0.000 A 
ATOM      5  N   UNL     1       2.226   4.472  20.802  0.00  0.00    +0.000 N 
ATOM      6  N   UNL     1       1.757   5.721  20.853  0.00  0.00    +0.000 NA
ATOM      7  C   UNL     1       2.234   6.309  19.741  0.00  0.00    +0.000 A 
ATOM      8  C   UNL     1       3.015   5.383  18.965  0.00  0.00    +0.000 A 
ATOM      9  C   UNL     1       3.705   5.379  17.724  0.00  0.00    +0.000 A 
ATOM     10  H   UNL     1       1.975   3.833  21.546  0.00  0.00    +0.000 HD
ENDROOT
BRANCH   7  11
ATOM     11  C   UNL     1       1.900   7.711  19.469  0.00  0.00    +0.000 A 
ATOM     12  C   UNL     1       1.282   8.518  20.434  0.00  0.00    +0.000 A 
ATOM     13  C   UNL     1       0.970   9.850  20.146  0.00  0.00    +0.000 A 
ATOM     14  C   UNL     1       1.259  10.371  18.890  0.00  0.00    +0.000 A 
ATOM     15  F   UNL     1       0.951  11.646  18.618  0.00  0.00    +0.000 F 
ATOM     16  C   UNL     1       1.853   9.587  17.911  0.00  0.00    +0.000 A 
ATOM     17  C   UNL     1       2.172   8.259  18.202  0.00  0.00    +0.000 A 
ENDBRANCH   7  11
BRANCH   1  20
ATOM     18  O   UNL     1       7.052   4.731  16.610  0.00  0.00    +0.000 OA
ATOM     19  C   UNL     1       6.234   4.489  15.721  0.00  0.00    +0.000 C 
ATOM     20  N   UNL     1       4.903   4.171  15.980  0.00  0.00    +0.000 N 
ATOM     21  H   UNL     1       4.380   3.759  15.220  0.00  0.00    +0.000 HD
BRANCH  19  22
ATOM     22  C   UNL     1       6.671   4.486  14.333  0.00  0.00    +0.000 A 
ATOM     23  C   UNL     1       7.636   5.336  13.815  0.00  0.00    +0.000 A 
ATOM     24  C   UNL     1       7.830   5.169  12.419  0.00  0.00    +0.000 A 
ATOM     25  C   UNL     1       7.010   4.187  11.911  0.00  0.00    +0.000 A 
ATOM     26  S   UNL     1       6.031   3.468  13.124  0.00  0.00    +0.000 S 
ENDBRANCH  19  22
ENDBRANCH   1  20
TORSDOF 3
ENDMDL
MODEL 5
REMARK VINA RESULT:      -7.7      4.135      7.749
REMARK  Name = 
REMARK  3 active torsions:
REMARK  status: ('A' for Active; 'I' for Inactive)
REMARK    1  A    between atoms: C_2  and  C_20
REMARK    2  A    between atoms: N_3  and  C_4
REMARK    3  A    between atoms: C_10  and  C_11
REMARK                            x       y       z     vdW  Elec       q    Type
REMARK                         _______ _______ _______ _____ _____    ______ ____
ROOT
ATOM      1  C   UNL     1       2.111   6.797  19.753  0.00  0.00    +0.000 A 
ATOM      2  C   UNL     1       1.601   5.972  20.761  0.00  0.00    +0.000 A 
ATOM      3  C   UNL     1       2.056   4.669  20.958  0.00  0.00    +0.000 A 
ATOM      4  C   UNL     1       3.034   4.206  20.084  0.00  0.00    +0.000 A 
ATOM      5  N   UNL     1       3.703   3.019  20.053  0.00  0.00    +0.000 N 
ATOM      6  N   UNL     1       4.584   2.913  19.055  0.00  0.00    +0.000 NA
ATOM      7  C   UNL     1       4.495   4.083  18.397  0.00  0.00    +0.000 A 
ATOM      8  C   UNL     1       3.533   4.951  19.021  0.00  0.00    +0.000 A 
ATOM      9  C   UNL     1       3.047   6.274  18.843  0.00  0.00    +0.000 A 
ATOM     10  H   UNL     1       3.610   2.243  20.697  0.00  0.00    +0.000 HD
ENDROOT
BRANCH   7  11
ATOM     11  C   UNL     1       5.347   4.316  17.226  0.00  0.00    +0.000 A 
ATOM     12  C   UNL     1       6.695   4.677  17.359  0.00  0.00    +0.000 A 
ATOM     13  C   UNL     1       7.483   4.898  16.226  0.00  0.00    +0.000 A 
ATOM     14  C   UNL     1       6.921   4.775  14.960  0.00  0.00    +0.000 A 
ATOM     15  F   UNL     1       7.680   4.995  13.879  0.00  0.00    +0.000 F 
ATOM     16  C   UNL     1       5.585   4.437  14.802  0.00  0.00    +0.000 A 
ATOM     17  C   UNL     1       4.800   4.208  15.934  0.00  0.00    +0.000 A 
ENDBRANCH   7  11
BRANCH   1  20
ATOM     18  O   UNL     1       1.135   8.510  21.838  0.00  0.00    +0.000 OA
ATOM     19  C   UNL     1       1.205   8.920  20.678  0.00  0.00    +0.000 C 
ATOM     20  N   UNL     1       1.716   8.155  19.632  0.00  0.00    +0.000 N 
ATOM     21  H   UNL     1       1.954   8.651  18.784  0.00  0.00    +0.000 HD
BRANCH  19  22
ATOM     22  C   UNL     1       0.780  10.279  20.377  0.00  0.00    +0.000 A 
ATOM     23  C   UNL     1       0.991  10.913  19.163  0.00  0.00    +0.000 A 
ATOM     24  C   UNL     1       0.536  12.257  19.153  0.00  0.00    +0.000 A 
ATOM     25  C   UNL     1      -0.019  12.609  20.363  0.00  0.00    +0.000 A 
ATOM     26  S   UNL     1       0.000  11.312  21.487  0.00  0.00    +0.000 S 
ENDBRANCH  19  22
ENDBRANCH   1  20
TORSDOF 3
ENDMDL
MODEL 6
REMARK VINA RESULT:      -7.7      4.366      7.692
REMARK  Name = 
REMARK  3 active torsions:
REMARK  status: ('A' for Active; 'I' for Inactive)
REMARK    1  A    between atoms: C_2  and  C_20
REMARK    2  A    between atoms: N_3  and  C_4
REMARK    3  A    between atoms: C_10  and  C_11
REMARK                            x       y       z     vdW  Elec       q    Type
REMARK                         _______ _______ _______ _____ _____    ______ ____
ROOT
ATOM      1  C   UNL     1       1.609   5.826  20.685  0.00  0.00    +0.000 A 
ATOM      2  C   UNL     1       1.100   4.528  20.785  0.00  0.00    +0.000 A 
ATOM      3  C   UNL     1       1.813   3.412  20.350  0.00  0.00    +0.000 A 
ATOM      4  C   UNL     1       3.059   3.647  19.780  0.00  0.00    +0.000 A 
ATOM      5  N   UNL     1       3.999   2.774  19.315  0.00  0.00    +0.000 N 
ATOM      6  N   UNL     1       5.094   3.359  18.823  0.00  0.00    +0.000 NA
ATOM      7  C   UNL     1       4.869   4.678  18.968  0.00  0.00    +0.000 A 
ATOM      8  C   UNL     1       3.593   4.917  19.588  0.00  0.00    +0.000 A 
ATOM      9  C   UNL     1       2.841   6.034  20.038  0.00  0.00    +0.000 A 
ATOM     10  H   UNL     1       3.955   1.763  19.321  0.00  0.00    +0.000 HD
ENDROOT
BRANCH   7  11
ATOM     11  C   UNL     1       5.891   5.634  18.529  0.00  0.00    +0.000 A 
ATOM     12  C   UNL     1       7.144   5.707  19.153  0.00  0.00    +0.000 A 
ATOM     13  C   UNL     1       8.098   6.631  18.717  0.00  0.00    +0.000 A 
ATOM     14  C   UNL     1       7.795   7.494  17.670  0.00  0.00    +0.000 A 
ATOM     15  F   UNL     1       8.711   8.382  17.263  0.00  0.00    +0.000 F 
ATOM     16  C   UNL     1       6.555   7.454  17.048  0.00  0.00    +0.000 A 
ATOM     17  C   UNL     1       5.606   6.525  17.478  0.00  0.00    +0.000 A 
ENDBRANCH   7  11
BRANCH   1  20
ATOM     18  O   UNL     1       1.610   8.518  19.691  0.00  0.00    +0.000 OA
ATOM     19  C   UNL     1       1.000   8.236  20.724  0.00  0.00    +0.000 C 
ATOM     20  N   UNL     1       0.919   6.941  21.229  0.00  0.00    +0.000 N 
ATOM     21  H   UNL     1       0.210   6.772  21.929  0.00  0.00    +0.000 HD
BRANCH  19  22
ATOM     22  C   UNL     1       0.286   9.285  21.437  0.00  0.00    +0.000 A 
ATOM     23  C   UNL     1      -0.225   9.151  22.718  0.00  0.00    +0.000 A 
ATOM     24  C   UNL     1      -0.932  10.301  23.156  0.00  0.00    +0.000 A 
ATOM     25  C   UNL     1      -0.933  11.287  22.194  0.00  0.00    +0.000 A 
ATOM     26  S   UNL     1      -0.069  10.821  20.787  0.00  0.00    +0.000 S 
ENDBRANCH  19  22
ENDBRANCH   1  20
TORSDOF 3
ENDMDL
MODEL 7
REMARK VINA RESULT:      -7.5      3.989      7.778
REMARK  Name = 
REMARK  3 active torsions:
REMARK  status: ('A' for Active; 'I' for Inactive)
REMARK    1  A    between atoms: C_2  and  C_20
REMARK    2  A    between atoms: N_3  and  C_4
REMARK    3  A    between atoms: C_10  and  C_11
REMARK                            x       y       z     vdW  Elec       q    Type
REMARK                         _______ _______ _______ _____ _____    ______ ____
ROOT
ATOM      1  C   UNL     1       2.107   6.903  19.671  0.00  0.00    +0.000 A 
ATOM      2  C   UNL     1       1.631   6.094  20.707  0.00  0.00    +0.000 A 
ATOM      3  C   UNL     1       2.107   4.800  20.920  0.00  0.00    +0.000 A 
ATOM      4  C   UNL     1       3.069   4.331  20.033  0.00  0.00    +0.000 A 
ATOM      5  N   UNL     1       3.752   3.150  20.010  0.00  0.00    +0.000 N 
ATOM      6  N   UNL     1       4.610   3.034  18.994  0.00  0.00    +0.000 NA
ATOM      7  C   UNL     1       4.491   4.189  18.314  0.00  0.00    +0.000 A 
ATOM      8  C   UNL     1       3.533   5.059  18.943  0.00  0.00    +0.000 A 
ATOM      9  C   UNL     1       3.027   6.372  18.750  0.00  0.00    +0.000 A 
ATOM     10  H   UNL     1       3.683   2.388  20.673  0.00  0.00    +0.000 HD
ENDROOT
BRANCH   7  11
ATOM     11  C   UNL     1       5.313   4.407  17.119  0.00  0.00    +0.000 A 
ATOM     12  C   UNL     1       4.772   4.312  15.829  0.00  0.00    +0.000 A 
ATOM     13  C   UNL     1       5.579   4.520  14.707  0.00  0.00    +0.000 A 
ATOM     14  C   UNL     1       6.930   4.806  14.872  0.00  0.00    +0.000 A 
ATOM     15  F   UNL     1       7.699   4.996  13.792  0.00  0.00    +0.000 F 
ATOM     16  C   UNL     1       7.493   4.886  16.137  0.00  0.00    +0.000 A 
ATOM     17  C   UNL     1       6.685   4.687  17.258  0.00  0.00    +0.000 A 
ENDBRANCH   7  11
BRANCH   1  20
ATOM     18  O   UNL     1       0.870   8.552  21.668  0.00  0.00    +0.000 OA
ATOM     19  C   UNL     1       1.053   8.985  20.529  0.00  0.00    +0.000 C 
ATOM     20  N   UNL     1       1.693   8.254  19.531  0.00  0.00    +0.000 N 
ATOM     21  H   UNL     1       2.008   8.771  18.722  0.00  0.00    +0.000 HD
BRANCH  19  22
ATOM     22  C   UNL     1       0.629  10.339  20.207  0.00  0.00    +0.000 A 
ATOM     23  C   UNL     1       0.985  11.464  20.935  0.00  0.00    +0.000 A 
ATOM     24  C   UNL     1       0.385  12.654  20.446  0.00  0.00    +0.000 A 
ATOM     25  C   UNL     1      -0.410  12.402  19.349  0.00  0.00    +0.000 A 
ATOM     26  S   UNL     1      -0.407  10.742  18.914  0.00  0.00    +0.000 S 
ENDBRANCH  19  22
ENDBRANCH   1  20
TORSDOF 3
ENDMDL
MODEL 8
REMARK VINA RESULT:      -7.4      3.916      7.635
REMARK  Name = 
REMARK  3 active torsions:
REMARK  status: ('A' for Active; 'I' for Inactive)
REMARK    1  A    between atoms: C_2  and  C_20
REMARK    2  A    between atoms: N_3  and  C_4
REMARK    3  A    between atoms: C_10  and  C_11
REMARK                            x       y       z     vdW  Elec       q    Type
REMARK                         _______ _______ _______ _____ _____    ______ ____
ROOT
ATOM      1  C   UNL     1       2.155   7.150  19.236  0.00  0.00    +0.000 A 
ATOM      2  C   UNL     1       1.779   6.451  20.387  0.00  0.00    +0.000 A 
ATOM      3  C   UNL     1       2.366   5.238  20.747  0.00  0.00    +0.000 A 
ATOM      4  C   UNL     1       3.335   4.731  19.890  0.00  0.00    +0.000 A 
ATOM      5  N   UNL     1       4.112   3.615  19.993  0.00  0.00    +0.000 N 
ATOM      6  N   UNL     1       4.946   3.431  18.966  0.00  0.00    +0.000 NA
ATOM      7  C   UNL     1       4.712   4.472  18.147  0.00  0.00    +0.000 A 
ATOM      8  C   UNL     1       3.705   5.342  18.696  0.00  0.00    +0.000 A 
ATOM      9  C   UNL     1       3.088   6.574  18.355  0.00  0.00    +0.000 A 
ATOM     10  H   UNL     1       4.126   2.944  20.751  0.00  0.00    +0.000 HD
ENDROOT
BRANCH   7  11
ATOM     11  C   UNL     1       5.476   4.593  16.901  0.00  0.00    +0.000 A 
ATOM     12  C   UNL     1       6.797   5.059  16.893  0.00  0.00    +0.000 A 
ATOM     13  C   UNL     1       7.501   5.169  15.690  0.00  0.00    +0.000 A 
ATOM     14  C   UNL     1       6.879   4.829  14.493  0.00  0.00    +0.000 A 
ATOM     15  F   UNL     1       7.556   4.944  13.343  0.00  0.00    +0.000 F 
ATOM     16  C   UNL     1       5.566   4.383  14.473  0.00  0.00    +0.000 A 
ATOM     17  C   UNL     1       4.867   4.265  15.676  0.00  0.00    +0.000 A 
ENDBRANCH   7  11
BRANCH   1  20
ATOM     18  O   UNL     1       1.145   9.083  21.101  0.00  0.00    +0.000 OA
ATOM     19  C   UNL     1       1.108   9.308  19.891  0.00  0.00    +0.000 C 
ATOM     20  N   UNL     1       1.628   8.434  18.939  0.00  0.00    +0.000 N 
ATOM     21  H   UNL     1       1.768   8.808  18.010  0.00  0.00    +0.000 HD
BRANCH  19  22
ATOM     22  C   UNL     1       0.541  10.562  19.418  0.00  0.00    +0.000 A 
ATOM     23  C   UNL     1      -0.773  10.719  19.003  0.00  0.00    +0.000 A 
ATOM     24  C   UNL     1      -1.052  12.027  18.530  0.00  0.00    +0.000 A 
ATOM     25  C   UNL     1       0.059  12.837  18.605  0.00  0.00    +0.000 A 
ATOM     26  S   UNL     1       1.416  12.017  19.259  0.00  0.00    +0.000 S 
ENDBRANCH  19  22
ENDBRANCH   1  20
TORSDOF 3
ENDMDL
MODEL 9
REMARK VINA RESULT:      -7.3      5.581      9.154
REMARK  Name = 
REMARK  3 active torsions:
REMARK  status: ('A' for Active; 'I' for Inactive)
REMARK    1  A    between atoms: C_2  and  C_20
REMARK    2  A    between atoms: N_3  and  C_4
REMARK    3  A    between atoms: C_10  and  C_11
REMARK                            x       y       z     vdW  Elec       q    Type
REMARK                         _______ _______ _______ _____ _____    ______ ____
ROOT
ATOM      1  C   UNL     1       0.765   9.689  19.361  0.00  0.00    +0.000 A 
ATOM      2  C   UNL     1       1.529  10.338  18.386  0.00  0.00    +0.000 A 
ATOM      3  C   UNL     1       2.491   9.671  17.628  0.00  0.00    +0.000 A 
ATOM      4  C   UNL     1       2.682   8.321  17.902  0.00  0.00    +0.000 A 
ATOM      5  N   UNL     1       3.497   7.404  17.307  0.00  0.00    +0.000 N 
ATOM      6  N   UNL     1       3.425   6.181  17.839  0.00  0.00    +0.000 NA
ATOM      7  C   UNL     1       2.522   6.294  18.830  0.00  0.00    +0.000 A 
ATOM      8  C   UNL     1       2.004   7.634  18.903  0.00  0.00    +0.000 A 
ATOM      9  C   UNL     1       1.033   8.341  19.661  0.00  0.00    +0.000 A 
ATOM     10  H   UNL     1       4.117   7.551  16.521  0.00  0.00    +0.000 HD
ENDROOT
BRANCH   7  11
ATOM     11  C   UNL     1       2.187   5.115  19.635  0.00  0.00    +0.000 A 
ATOM     12  C   UNL     1       1.428   4.060  19.111  0.00  0.00    +0.000 A 
ATOM     13  C   UNL     1       1.119   2.950  19.902  0.00  0.00    +0.000 A 
ATOM     14  C   UNL     1       1.553   2.901  21.222  0.00  0.00    +0.000 A 
ATOM     15  F   UNL     1       1.247   1.838  21.977  0.00  0.00    +0.000 F 
ATOM     16  C   UNL     1       2.290   3.941  21.770  0.00  0.00    +0.000 A 
ATOM     17  C   UNL     1       2.606   5.045  20.977  0.00  0.00    +0.000 A 
ENDBRANCH   7  11
BRANCH   1  20
ATOM     18  O   UNL     1       1.017  11.494  21.577  0.00  0.00    +0.000 OA
ATOM     19  C   UNL     1      -0.097  11.184  21.151  0.00  0.00    +0.000 C 
ATOM     20  N   UNL     1      -0.284  10.353  20.048  0.00  0.00    +0.000 N 
ATOM     21  H   UNL     1      -1.206  10.353  19.634  0.00  0.00    +0.000 HD
BRANCH  19  22
ATOM     22  C   UNL     1      -1.282  11.737  21.789  0.00  0.00    +0.000 A 
ATOM     23  C   UNL     1      -1.663  11.471  23.095  0.00  0.00    +0.000 A 
ATOM     24  C   UNL     1      -2.892  12.085  23.450  0.00  0.00    +0.000 A 
ATOM     25  C   UNL     1      -3.412  12.812  22.401  0.00  0.00    +0.000 A 
ATOM     26  S   UNL     1      -2.405  12.759  21.013  0.00  0.00    +0.000 S 
ENDBRANCH  19  22
ENDBRANCH   1  20
TORSDOF 3
ENDMDL
