MODEL 1
REMARK VINA RESULT:      -7.2      0.000      0.000
REMARK  Name = 
REMARK  10 active torsions:
REMARK  status: ('A' for Active; 'I' for Inactive)
REMARK    1  A    between atoms: C_1  and  O_2
REMARK    2  A    between atoms: O_2  and  C_3
REMARK    3  A    between atoms: C_6  and  N_7
REMARK    4  A    between atoms: C_8  and  C_10
REMARK    5  A    between atoms: C_10  and  S_11
REMARK    6  A    between atoms: S_11  and  C_12
REMARK    7  A    between atoms: C_14  and  C_15
REMARK    8  A    between atoms: C_16  and  C_17
REMARK    9  A    between atoms: C_18  and  C_19
REMARK   10  A    between atoms: C_20  and  C_21
REMARK                            x       y       z     vdW  Elec       q    Type
REMARK                         _______ _______ _______ _____ _____    ______ ____
ROOT
ATOM      1  C   UNL     1       2.988   3.521  21.133  0.00  0.00    +0.000 C 
ENDROOT
BRANCH   1   3
ATOM      2  N   UNL     1       2.866   5.842  20.316  0.00  0.00    +0.000 N 
ATOM      3  C   UNL     1       2.199   4.634  20.453  0.00  0.00    +0.000 C 
ATOM      4  O   UNL     1       1.069   4.388  20.024  0.00  0.00    +0.000 OA
ATOM      5  H   UNL     1       3.790   5.890  20.736  0.00  0.00    +0.000 HD
BRANCH   2   9
ATOM      6  C   UNL     1       1.261   9.383  18.833  0.00  0.00    +0.000 A 
ATOM      7  C   UNL     1       1.972   8.589  17.954  0.00  0.00    +0.000 A 
ATOM      8  C   UNL     1       2.517   7.399  18.431  0.00  0.00    +0.000 A 
ATOM      9  C   UNL     1       2.349   7.034  19.767  0.00  0.00    +0.000 A 
ATOM     10  C   UNL     1       1.618   7.912  20.566  0.00  0.00    +0.000 A 
ATOM     11  N   UNL     1       1.070   9.072  20.134  0.00  0.00    +0.000 NA
BRANCH   6  13
ATOM     12  C   UNL     1       1.061  11.687  19.116  0.00  0.00    +0.000 C 
ATOM     13  O   UNL     1       0.728  10.553  18.327  0.00  0.00    +0.000 OA
ENDBRANCH   6  13
ENDBRANCH   2   9
ENDBRANCH   1   3
BRANCH   1  14
ATOM     14  S   UNL     1       3.942   2.561  19.905  0.00  0.00    +0.000 S 
BRANCH  14  15
ATOM     15  C   UNL     1       4.836   3.853  19.054  0.00  0.00    +0.000 A 
ATOM     16  N   UNL     1       5.903   4.355  19.709  0.00  0.00    +0.000 NA
ATOM     17  C   UNL     1       6.681   5.277  19.092  0.00  0.00    +0.000 A 
ATOM     18  C   UNL     1       7.861   5.743  19.897  0.00  0.00    +0.000 C 
ATOM     19  C   UNL     1       6.425   5.735  17.791  0.00  0.00    +0.000 A 
ATOM     20  C   UNL     1       7.341   6.726  17.120  0.00  0.00    +0.000 C 
ATOM     21  C   UNL     1       5.291   5.224  17.118  0.00  0.00    +0.000 A 
ATOM     22  C   UNL     1       4.944   5.646  15.708  0.00  0.00    +0.000 C 
ATOM     23  C   UNL     1       4.479   4.270  17.769  0.00  0.00    +0.000 A 
BRANCH  23  24
ATOM     24  C   UNL     1       3.323   3.716  17.112  0.00  0.00    +0.000 C 
ATOM     25  N   UNL     1       2.397   3.241  16.606  0.00  0.00    +0.000 NA
ENDBRANCH  23  24
ENDBRANCH  14  15
ENDBRANCH   1  14
TORSDOF 6
ENDMDL
MODEL 2
REMARK VINA RESULT:      -6.3      0.758      1.156
REMARK  Name = 
REMARK  10 active torsions:
REMARK  status: ('A' for Active; 'I' for Inactive)
REMARK    1  A    between atoms: C_1  and  O_2
REMARK    2  A    between atoms: O_2  and  C_3
REMARK    3  A    between atoms: C_6  and  N_7
REMARK    4  A    between atoms: C_8  and  C_10
REMARK    5  A    between atoms: C_10  and  S_11
REMARK    6  A    between atoms: S_11  and  C_12
REMARK    7  A    between atoms: C_14  and  C_15
REMARK    8  A    between atoms: C_16  and  C_17
REMARK    9  A    between atoms: C_18  and  C_19
REMARK   10  A    between atoms: C_20  and  C_21
REMARK                            x       y       z     vdW  Elec       q    Type
REMARK                         _______ _______ _______ _____ _____    ______ ____
ROOT
ATOM      1  C   UNL     1       2.735   3.904  21.377  0.00  0.00    +0.000 C 
ENDROOT
BRANCH   1   3
ATOM      2  N   UNL     1       2.397   6.291  20.870  0.00  0.00    +0.000 N 
ATOM      3  C   UNL     1       1.896   5.005  20.738  0.00  0.00    +0.000 C 
ATOM      4  O   UNL     1       0.882   4.694  20.109  0.00  0.00    +0.000 OA
ATOM      5  H   UNL     1       3.240   6.384  21.432  0.00  0.00    +0.000 HD
BRANCH   2   9
ATOM      6  C   UNL     1       0.731   9.807  19.399  0.00  0.00    +0.000 A 
ATOM      7  C   UNL     1       0.288   9.359  20.628  0.00  0.00    +0.000 A 
ATOM      8  C   UNL     1       0.835   8.183  21.139  0.00  0.00    +0.000 A 
ATOM      9  C   UNL     1       1.797   7.482  20.413  0.00  0.00    +0.000 A 
ATOM     10  C   UNL     1       2.166   8.022  19.181  0.00  0.00    +0.000 A 
ATOM     11  N   UNL     1       1.661   9.164  18.659  0.00  0.00    +0.000 NA
BRANCH   6  13
ATOM     12  C   UNL     1       1.154  11.972  18.648  0.00  0.00    +0.000 C 
ATOM     13  O   UNL     1       0.175  10.980  18.924  0.00  0.00    +0.000 OA
ENDBRANCH   6  13
ENDBRANCH   2   9
ENDBRANCH   1   3
BRANCH   1  14
ATOM     14  S   UNL     1       3.496   2.846  20.095  0.00  0.00    +0.000 S 
BRANCH  14  15
ATOM     15  C   UNL     1       4.495   4.026  19.201  0.00  0.00    +0.000 A 
ATOM     16  N   UNL     1       5.619   4.436  19.826  0.00  0.00    +0.000 NA
ATOM     17  C   UNL     1       6.470   5.264  19.175  0.00  0.00    +0.000 A 
ATOM     18  C   UNL     1       7.706   5.629  19.949  0.00  0.00    +0.000 C 
ATOM     19  C   UNL     1       6.234   5.720  17.869  0.00  0.00    +0.000 A 
ATOM     20  C   UNL     1       7.228   6.603  17.161  0.00  0.00    +0.000 C 
ATOM     21  C   UNL     1       5.042   5.309  17.228  0.00  0.00    +0.000 A 
ATOM     22  C   UNL     1       4.710   5.734  15.815  0.00  0.00    +0.000 C 
ATOM     23  C   UNL     1       4.155   4.452  17.914  0.00  0.00    +0.000 A 
BRANCH  23  24
ATOM     24  C   UNL     1       2.938   4.000  17.290  0.00  0.00    +0.000 C 
ATOM     25  N   UNL     1       1.976   3.606  16.779  0.00  0.00    +0.000 NA
ENDBRANCH  23  24
ENDBRANCH  14  15
ENDBRANCH   1  14
TORSDOF 6
ENDMDL
MODEL 3
REMARK VINA RESULT:      -6.1      4.695      6.309
REMARK  Name = 
REMARK  10 active torsions:
REMARK  status: ('A' for Active; 'I' for Inactive)
REMARK    1  A    between atoms: C_1  and  O_2
REMARK    2  A    between atoms: O_2  and  C_3
REMARK    3  A    between atoms: C_6  and  N_7
REMARK    4  A    between atoms: C_8  and  C_10
REMARK    5  A    between atoms: C_10  and  S_11
REMARK    6  A    between atoms: S_11  and  C_12
REMARK    7  A    between atoms: C_14  and  C_15
REMARK    8  A    between atoms: C_16  and  C_17
REMARK    9  A    between atoms: C_18  and  C_19
REMARK   10  A    between atoms: C_20  and  C_21
REMARK                            x       y       z     vdW  Elec       q    Type
REMARK                         _______ _______ _______ _____ _____    ______ ____
ROOT
ATOM      1  C   UNL     1       7.866   6.230  18.872  0.00  0.00    +0.000 C 
ENDROOT
BRANCH   1   3
ATOM      2  N   UNL     1       8.693   8.540  19.098  0.00  0.00    +0.000 N 
ATOM      3  C   UNL     1       8.117   7.601  18.256  0.00  0.00    +0.000 C 
ATOM      4  O   UNL     1       7.856   7.775  17.063  0.00  0.00    +0.000 OA
ATOM      5  H   UNL     1       8.835   8.245  20.061  0.00  0.00    +0.000 HD
BRANCH   2   9
ATOM      6  C   UNL     1       9.663  12.507  18.309  0.00  0.00    +0.000 A 
ATOM      7  C   UNL     1       8.602  11.962  17.614  0.00  0.00    +0.000 A 
ATOM      8  C   UNL     1       8.261  10.634  17.864  0.00  0.00    +0.000 A 
ATOM      9  C   UNL     1       8.986   9.884  18.789  0.00  0.00    +0.000 A 
ATOM     10  C   UNL     1      10.041  10.533  19.430  0.00  0.00    +0.000 A 
ATOM     11  N   UNL     1      10.395  11.822  19.215  0.00  0.00    +0.000 NA
BRANCH   6  13
ATOM     12  C   UNL     1       9.879  14.650  19.198  0.00  0.00    +0.000 C 
ATOM     13  O   UNL     1       9.971  13.828  18.043  0.00  0.00    +0.000 OA
ENDBRANCH   6  13
ENDBRANCH   2   9
ENDBRANCH   1   3
BRANCH   1  14
ATOM     14  S   UNL     1       7.369   5.025  17.591  0.00  0.00    +0.000 S 
BRANCH  14  15
ATOM     15  C   UNL     1       5.721   4.589  18.125  0.00  0.00    +0.000 A 
ATOM     16  N   UNL     1       5.645   3.601  19.041  0.00  0.00    +0.000 NA
ATOM     17  C   UNL     1       4.437   3.273  19.558  0.00  0.00    +0.000 A 
ATOM     18  C   UNL     1       4.471   2.186  20.595  0.00  0.00    +0.000 C 
ATOM     19  C   UNL     1       3.251   3.920  19.180  0.00  0.00    +0.000 A 
ATOM     20  C   UNL     1       1.931   3.559  19.812  0.00  0.00    +0.000 C 
ATOM     21  C   UNL     1       3.333   4.936  18.200  0.00  0.00    +0.000 A 
ATOM     22  C   UNL     1       2.110   5.702  17.742  0.00  0.00    +0.000 C 
ATOM     23  C   UNL     1       4.593   5.269  17.660  0.00  0.00    +0.000 A 
BRANCH  23  24
ATOM     24  C   UNL     1       4.719   6.308  16.670  0.00  0.00    +0.000 C 
ATOM     25  N   UNL     1       4.834   7.165  15.901  0.00  0.00    +0.000 NA
ENDBRANCH  23  24
ENDBRANCH  14  15
ENDBRANCH   1  14
TORSDOF 6
ENDMDL
MODEL 4
REMARK VINA RESULT:      -6.1      3.772      8.729
REMARK  Name = 
REMARK  10 active torsions:
REMARK  status: ('A' for Active; 'I' for Inactive)
REMARK    1  A    between atoms: C_1  and  O_2
REMARK    2  A    between atoms: O_2  and  C_3
REMARK    3  A    between atoms: C_6  and  N_7
REMARK    4  A    between atoms: C_8  and  C_10
REMARK    5  A    between atoms: C_10  and  S_11
REMARK    6  A    between atoms: S_11  and  C_12
REMARK    7  A    between atoms: C_14  and  C_15
REMARK    8  A    between atoms: C_16  and  C_17
REMARK    9  A    between atoms: C_18  and  C_19
REMARK   10  A    between atoms: C_20  and  C_21
REMARK                            x       y       z     vdW  Elec       q    Type
REMARK                         _______ _______ _______ _____ _____    ______ ____
ROOT
ATOM      1  C   UNL     1       1.514   9.795  18.166  0.00  0.00    +0.000 C 
ENDROOT
BRANCH   1   3
ATOM      2  N   UNL     1       2.470   7.533  17.965  0.00  0.00    +0.000 N 
ATOM      3  C   UNL     1       1.853   8.451  18.801  0.00  0.00    +0.000 C 
ATOM      4  O   UNL     1       1.619   8.282  20.001  0.00  0.00    +0.000 OA
ATOM      5  H   UNL     1       2.581   7.819  16.996  0.00  0.00    +0.000 HD
BRANCH   2   9
ATOM      6  C   UNL     1       3.719   3.693  18.966  0.00  0.00    +0.000 A 
ATOM      7  C   UNL     1       2.483   3.823  18.363  0.00  0.00    +0.000 A 
ATOM      8  C   UNL     1       2.046   5.101  18.020  0.00  0.00    +0.000 A 
ATOM      9  C   UNL     1       2.844   6.213  18.291  0.00  0.00    +0.000 A 
ATOM     10  C   UNL     1       4.070   5.966  18.907  0.00  0.00    +0.000 A 
ATOM     11  N   UNL     1       4.527   4.739  19.248  0.00  0.00    +0.000 NA
BRANCH   6  13
ATOM     12  C   UNL     1       3.569   1.433  18.420  0.00  0.00    +0.000 C 
ATOM     13  O   UNL     1       4.125   2.412  19.288  0.00  0.00    +0.000 OA
ENDBRANCH   6  13
ENDBRANCH   2   9
ENDBRANCH   1   3
BRANCH   1  14
ATOM     14  S   UNL     1       0.845  10.950  19.414  0.00  0.00    +0.000 S 
BRANCH  14  15
ATOM     15  C   UNL     1      -0.837  11.158  18.848  0.00  0.00    +0.000 A 
ATOM     16  N   UNL     1      -1.147  10.533  17.693  0.00  0.00    +0.000 NA
ATOM     17  C   UNL     1      -2.424  10.573  17.245  0.00  0.00    +0.000 A 
ATOM     18  C   UNL     1      -2.667   9.815  15.970  0.00  0.00    +0.000 C 
ATOM     19  C   UNL     1      -3.448  11.241  17.933  0.00  0.00    +0.000 A 
ATOM     20  C   UNL     1      -4.867  11.225  17.427  0.00  0.00    +0.000 C 
ATOM     21  C   UNL     1      -3.112  11.917  19.129  0.00  0.00    +0.000 A 
ATOM     22  C   UNL     1      -4.151  12.651  19.949  0.00  0.00    +0.000 C 
ATOM     23  C   UNL     1      -1.778  11.878  19.588  0.00  0.00    +0.000 A 
BRANCH  23  24
ATOM     24  C   UNL     1      -1.399  12.542  20.809  0.00  0.00    +0.000 C 
ATOM     25  N   UNL     1      -1.114  13.105  21.780  0.00  0.00    +0.000 NA
ENDBRANCH  23  24
ENDBRANCH  14  15
ENDBRANCH   1  14
TORSDOF 6
ENDMDL
MODEL 5
REMARK VINA RESULT:      -6.1      3.173      4.728
REMARK  Name = 
REMARK  10 active torsions:
REMARK  status: ('A' for Active; 'I' for Inactive)
REMARK    1  A    between atoms: C_1  and  O_2
REMARK    2  A    between atoms: O_2  and  C_3
REMARK    3  A    between atoms: C_6  and  N_7
REMARK    4  A    between atoms: C_8  and  C_10
REMARK    5  A    between atoms: C_10  and  S_11
REMARK    6  A    between atoms: S_11  and  C_12
REMARK    7  A    between atoms: C_14  and  C_15
REMARK    8  A    between atoms: C_16  and  C_17
REMARK    9  A    between atoms: C_18  and  C_19
REMARK   10  A    between atoms: C_20  and  C_21
REMARK                            x       y       z     vdW  Elec       q    Type
REMARK                         _______ _______ _______ _____ _____    ______ ____
ROOT
ATOM      1  C   UNL     1       1.873   8.730  18.666  0.00  0.00    +0.000 C 
ENDROOT
BRANCH   1   3
ATOM      2  N   UNL     1       1.041  10.028  20.588  0.00  0.00    +0.000 N 
ATOM      3  C   UNL     1       0.837   9.675  19.263  0.00  0.00    +0.000 C 
ATOM      4  O   UNL     1      -0.064  10.107  18.539  0.00  0.00    +0.000 OA
ATOM      5  H   UNL     1       1.825   9.575  21.053  0.00  0.00    +0.000 HD
BRANCH   2   9
ATOM      6  C   UNL     1      -1.330  12.572  22.871  0.00  0.00    +0.000 A 
ATOM      7  C   UNL     1      -1.444  11.215  23.105  0.00  0.00    +0.000 A 
ATOM      8  C   UNL     1      -0.657  10.346  22.351  0.00  0.00    +0.000 A 
ATOM      9  C   UNL     1       0.212  10.846  21.382  0.00  0.00    +0.000 A 
ATOM     10  C   UNL     1       0.242  12.232  21.226  0.00  0.00    +0.000 A 
ATOM     11  N   UNL     1      -0.502  13.104  21.944  0.00  0.00    +0.000 NA
BRANCH   6  13
ATOM     12  C   UNL     1      -3.375  12.823  23.959  0.00  0.00    +0.000 C 
ATOM     13  O   UNL     1      -2.119  13.406  23.640  0.00  0.00    +0.000 OA
ENDBRANCH   6  13
ENDBRANCH   2   9
ENDBRANCH   1   3
BRANCH   1  14
ATOM     14  S   UNL     1       2.074   7.246  19.714  0.00  0.00    +0.000 S 
BRANCH  14  15
ATOM     15  C   UNL     1       2.904   6.126  18.596  0.00  0.00    +0.000 A 
ATOM     16  N   UNL     1       3.840   6.681  17.799  0.00  0.00    +0.000 NA
ATOM     17  C   UNL     1       4.572   5.882  16.986  0.00  0.00    +0.000 A 
ATOM     18  C   UNL     1       5.609   6.598  16.168  0.00  0.00    +0.000 C 
ATOM     19  C   UNL     1       4.398   4.490  16.936  0.00  0.00    +0.000 A 
ATOM     20  C   UNL     1       5.263   3.629  16.053  0.00  0.00    +0.000 C 
ATOM     21  C   UNL     1       3.397   3.916  17.754  0.00  0.00    +0.000 A 
ATOM     22  C   UNL     1       3.148   2.425  17.780  0.00  0.00    +0.000 C 
ATOM     23  C   UNL     1       2.633   4.755  18.593  0.00  0.00    +0.000 A 
BRANCH  23  24
ATOM     24  C   UNL     1       1.614   4.207  19.451  0.00  0.00    +0.000 C 
ATOM     25  N   UNL     1       0.821   3.760  20.167  0.00  0.00    +0.000 NA
ENDBRANCH  23  24
ENDBRANCH  14  15
ENDBRANCH   1  14
TORSDOF 6
ENDMDL
MODEL 6
REMARK VINA RESULT:      -6.1      3.735      8.680
REMARK  Name = 
REMARK  10 active torsions:
REMARK  status: ('A' for Active; 'I' for Inactive)
REMARK    1  A    between atoms: C_1  and  O_2
REMARK    2  A    between atoms: O_2  and  C_3
REMARK    3  A    between atoms: C_6  and  N_7
REMARK    4  A    between atoms: C_8  and  C_10
REMARK    5  A    between atoms: C_10  and  S_11
REMARK    6  A    between atoms: S_11  and  C_12
REMARK    7  A    between atoms: C_14  and  C_15
REMARK    8  A    between atoms: C_16  and  C_17
REMARK    9  A    between atoms: C_18  and  C_19
REMARK   10  A    between atoms: C_20  and  C_21
REMARK                            x       y       z     vdW  Elec       q    Type
REMARK                         _______ _______ _______ _____ _____    ______ ____
ROOT
ATOM      1  C   UNL     1       1.214   9.197  19.465  0.00  0.00    +0.000 C 
ENDROOT
BRANCH   1   3
ATOM      2  N   UNL     1       2.546   7.246  18.765  0.00  0.00    +0.000 N 
ATOM      3  C   UNL     1       2.021   8.474  18.393  0.00  0.00    +0.000 C 
ATOM      4  O   UNL     1       2.108   8.979  17.270  0.00  0.00    +0.000 OA
ATOM      5  H   UNL     1       2.396   6.975  19.734  0.00  0.00    +0.000 HD
BRANCH   2   9
ATOM      6  C   UNL     1       4.859   4.632  16.503  0.00  0.00    +0.000 A 
ATOM      7  C   UNL     1       5.276   5.948  16.578  0.00  0.00    +0.000 A 
ATOM      8  C   UNL     1       4.514   6.839  17.332  0.00  0.00    +0.000 A 
ATOM      9  C   UNL     1       3.359   6.403  17.981  0.00  0.00    +0.000 A 
ATOM     10  C   UNL     1       3.030   5.056  17.832  0.00  0.00    +0.000 A 
ATOM     11  N   UNL     1       3.750   4.163  17.114  0.00  0.00    +0.000 NA
BRANCH   6  13
ATOM     12  C   UNL     1       6.130   4.381  14.566  0.00  0.00    +0.000 C 
ATOM     13  O   UNL     1       5.641   3.773  15.753  0.00  0.00    +0.000 OA
ENDBRANCH   6  13
ENDBRANCH   2   9
ENDBRANCH   1   3
BRANCH   1  14
ATOM     14  S   UNL     1       1.129  10.989  19.112  0.00  0.00    +0.000 S 
BRANCH  14  15
ATOM     15  C   UNL     1      -0.610  11.204  18.760  0.00  0.00    +0.000 A 
ATOM     16  N   UNL     1      -1.071  10.555  17.672  0.00  0.00    +0.000 NA
ATOM     17  C   UNL     1      -2.395  10.601  17.389  0.00  0.00    +0.000 A 
ATOM     18  C   UNL     1      -2.807   9.815  16.176  0.00  0.00    +0.000 C 
ATOM     19  C   UNL     1      -3.316  11.299  18.185  0.00  0.00    +0.000 A 
ATOM     20  C   UNL     1      -4.788  11.289  17.865  0.00  0.00    +0.000 C 
ATOM     21  C   UNL     1      -2.822  12.000  19.310  0.00  0.00    +0.000 A 
ATOM     22  C   UNL     1      -3.740  12.767  20.237  0.00  0.00    +0.000 C 
ATOM     23  C   UNL     1      -1.441  11.955  19.595  0.00  0.00    +0.000 A 
BRANCH  23  24
ATOM     24  C   UNL     1      -0.902  12.644  20.740  0.00  0.00    +0.000 C 
ATOM     25  N   UNL     1      -0.504  13.205  21.671  0.00  0.00    +0.000 NA
ENDBRANCH  23  24
ENDBRANCH  14  15
ENDBRANCH   1  14
TORSDOF 6
ENDMDL
MODEL 7
REMARK VINA RESULT:      -6.0      3.620      8.589
REMARK  Name = 
REMARK  10 active torsions:
REMARK  status: ('A' for Active; 'I' for Inactive)
REMARK    1  A    between atoms: C_1  and  O_2
REMARK    2  A    between atoms: O_2  and  C_3
REMARK    3  A    between atoms: C_6  and  N_7
REMARK    4  A    between atoms: C_8  and  C_10
REMARK    5  A    between atoms: C_10  and  S_11
REMARK    6  A    between atoms: S_11  and  C_12
REMARK    7  A    between atoms: C_14  and  C_15
REMARK    8  A    between atoms: C_16  and  C_17
REMARK    9  A    between atoms: C_18  and  C_19
REMARK   10  A    between atoms: C_20  and  C_21
REMARK                            x       y       z     vdW  Elec       q    Type
REMARK                         _______ _______ _______ _____ _____    ______ ____
ROOT
ATOM      1  C   UNL     1       1.352   8.920  19.520  0.00  0.00    +0.000 C 
ENDROOT
BRANCH   1   3
ATOM      2  N   UNL     1       2.614   6.923  18.821  0.00  0.00    +0.000 N 
ATOM      3  C   UNL     1       2.146   8.176  18.453  0.00  0.00    +0.000 C 
ATOM      4  O   UNL     1       2.275   8.688  17.339  0.00  0.00    +0.000 OA
ATOM      5  H   UNL     1       2.437   6.648  19.783  0.00  0.00    +0.000 HD
BRANCH   2   9
ATOM      6  C   UNL     1       5.048   4.486  16.488  0.00  0.00    +0.000 A 
ATOM      7  C   UNL     1       3.858   3.950  16.941  0.00  0.00    +0.000 A 
ATOM      8  C   UNL     1       3.028   4.751  17.724  0.00  0.00    +0.000 A 
ATOM      9  C   UNL     1       3.405   6.055  18.041  0.00  0.00    +0.000 A 
ATOM     10  C   UNL     1       4.630   6.492  17.536  0.00  0.00    +0.000 A 
ATOM     11  N   UNL     1       5.456   5.743  16.768  0.00  0.00    +0.000 NA
BRANCH   6  13
ATOM     12  C   UNL     1       5.954   4.135  14.371  0.00  0.00    +0.000 C 
ATOM     13  O   UNL     1       5.844   3.668  15.709  0.00  0.00    +0.000 OA
ENDBRANCH   6  13
ENDBRANCH   2   9
ENDBRANCH   1   3
BRANCH   1  14
ATOM     14  S   UNL     1       1.405  10.724  19.225  0.00  0.00    +0.000 S 
BRANCH  14  15
ATOM     15  C   UNL     1      -0.319  11.091  18.929  0.00  0.00    +0.000 A 
ATOM     16  N   UNL     1      -0.864  10.505  17.843  0.00  0.00    +0.000 NA
ATOM     17  C   UNL     1      -2.186  10.667  17.600  0.00  0.00    +0.000 A 
ATOM     18  C   UNL     1      -2.696   9.944  16.386  0.00  0.00    +0.000 C 
ATOM     19  C   UNL     1      -3.022  11.423  18.436  0.00  0.00    +0.000 A 
ATOM     20  C   UNL     1      -4.499  11.541  18.160  0.00  0.00    +0.000 C 
ATOM     21  C   UNL     1      -2.441  12.056  19.559  0.00  0.00    +0.000 A 
ATOM     22  C   UNL     1      -3.265  12.877  20.526  0.00  0.00    +0.000 C 
ATOM     23  C   UNL     1      -1.061  11.890  19.802  0.00  0.00    +0.000 A 
BRANCH  23  24
ATOM     24  C   UNL     1      -0.434  12.508  20.943  0.00  0.00    +0.000 C 
ATOM     25  N   UNL     1       0.077  13.034  21.839  0.00  0.00    +0.000 NA
ENDBRANCH  23  24
ENDBRANCH  14  15
ENDBRANCH   1  14
TORSDOF 6
ENDMDL
MODEL 8
REMARK VINA RESULT:      -6.0      2.947      4.599
REMARK  Name = 
REMARK  10 active torsions:
REMARK  status: ('A' for Active; 'I' for Inactive)
REMARK    1  A    between atoms: C_1  and  O_2
REMARK    2  A    between atoms: O_2  and  C_3
REMARK    3  A    between atoms: C_6  and  N_7
REMARK    4  A    between atoms: C_8  and  C_10
REMARK    5  A    between atoms: C_10  and  S_11
REMARK    6  A    between atoms: S_11  and  C_12
REMARK    7  A    between atoms: C_14  and  C_15
REMARK    8  A    between atoms: C_16  and  C_17
REMARK    9  A    between atoms: C_18  and  C_19
REMARK   10  A    between atoms: C_20  and  C_21
REMARK                            x       y       z     vdW  Elec       q    Type
REMARK                         _______ _______ _______ _____ _____    ______ ____
ROOT
ATOM      1  C   UNL     1       1.776   8.667  18.317  0.00  0.00    +0.000 C 
ENDROOT
BRANCH   1   3
ATOM      2  N   UNL     1       1.115   9.984  20.292  0.00  0.00    +0.000 N 
ATOM      3  C   UNL     1       0.847   9.687  18.964  0.00  0.00    +0.000 C 
ATOM      4  O   UNL     1      -0.027  10.220  18.275  0.00  0.00    +0.000 OA
ATOM      5  H   UNL     1       1.863   9.448  20.724  0.00  0.00    +0.000 HD
BRANCH   2   9
ATOM      6  C   UNL     1      -1.093  12.422  22.838  0.00  0.00    +0.000 A 
ATOM      7  C   UNL     1      -0.500  13.019  21.742  0.00  0.00    +0.000 A 
ATOM      8  C   UNL     1       0.244  12.218  20.877  0.00  0.00    +0.000 A 
ATOM      9  C   UNL     1       0.384  10.854  21.127  0.00  0.00    +0.000 A 
ATOM     10  C   UNL     1      -0.252  10.359  22.264  0.00  0.00    +0.000 A 
ATOM     11  N   UNL     1      -0.987  11.105  23.122  0.00  0.00    +0.000 NA
BRANCH   6  13
ATOM     12  C   UNL     1      -1.223  14.515  23.854  0.00  0.00    +0.000 C 
ATOM     13  O   UNL     1      -1.829  13.242  23.672  0.00  0.00    +0.000 OA
ENDBRANCH   6  13
ENDBRANCH   2   9
ENDBRANCH   1   3
BRANCH   1  14
ATOM     14  S   UNL     1       2.178   7.324  19.489  0.00  0.00    +0.000 S 
BRANCH  14  15
ATOM     15  C   UNL     1       3.002   6.150  18.423  0.00  0.00    +0.000 A 
ATOM     16  N   UNL     1       3.938   6.664  17.599  0.00  0.00    +0.000 NA
ATOM     17  C   UNL     1       4.665   5.826  16.823  0.00  0.00    +0.000 A 
ATOM     18  C   UNL     1       5.703   6.500  15.970  0.00  0.00    +0.000 C 
ATOM     19  C   UNL     1       4.487   4.434  16.838  0.00  0.00    +0.000 A 
ATOM     20  C   UNL     1       5.348   3.529  15.995  0.00  0.00    +0.000 C 
ATOM     21  C   UNL     1       3.486   3.902  17.684  0.00  0.00    +0.000 A 
ATOM     22  C   UNL     1       3.233   2.414  17.781  0.00  0.00    +0.000 C 
ATOM     23  C   UNL     1       2.727   4.781  18.485  0.00  0.00    +0.000 A 
BRANCH  23  24
ATOM     24  C   UNL     1       1.708   4.277  19.370  0.00  0.00    +0.000 C 
ATOM     25  N   UNL     1       0.892   3.903  20.101  0.00  0.00    +0.000 NA
ENDBRANCH  23  24
ENDBRANCH  14  15
ENDBRANCH   1  14
TORSDOF 6
ENDMDL
MODEL 9
REMARK VINA RESULT:      -6.0      3.551      5.019
REMARK  Name = 
REMARK  10 active torsions:
REMARK  status: ('A' for Active; 'I' for Inactive)
REMARK    1  A    between atoms: C_1  and  O_2
REMARK    2  A    between atoms: O_2  and  C_3
REMARK    3  A    between atoms: C_6  and  N_7
REMARK    4  A    between atoms: C_8  and  C_10
REMARK    5  A    between atoms: C_10  and  S_11
REMARK    6  A    between atoms: S_11  and  C_12
REMARK    7  A    between atoms: C_14  and  C_15
REMARK    8  A    between atoms: C_16  and  C_17
REMARK    9  A    between atoms: C_18  and  C_19
REMARK   10  A    between atoms: C_20  and  C_21
REMARK                            x       y       z     vdW  Elec       q    Type
REMARK                         _______ _______ _______ _____ _____    ______ ____
ROOT
ATOM      1  C   UNL     1       1.765   9.070  18.379  0.00  0.00    +0.000 C 
ENDROOT
BRANCH   1   3
ATOM      2  N   UNL     1      -0.397   9.804  17.452  0.00  0.00    +0.000 N 
ATOM      3  C   UNL     1       0.390   9.694  18.588  0.00  0.00    +0.000 C 
ATOM      4  O   UNL     1       0.042  10.003  19.731  0.00  0.00    +0.000 OA
ATOM      5  H   UNL     1       0.040   9.517  16.580  0.00  0.00    +0.000 HD
BRANCH   2   9
ATOM      6  C   UNL     1      -4.173  11.547  17.353  0.00  0.00    +0.000 A 
ATOM      7  C   UNL     1      -3.776  10.825  16.243  0.00  0.00    +0.000 A 
ATOM      8  C   UNL     1      -2.514  10.233  16.257  0.00  0.00    +0.000 A 
ATOM      9  C   UNL     1      -1.681  10.380  17.366  0.00  0.00    +0.000 A 
ATOM     10  C   UNL     1      -2.181  11.133  18.427  0.00  0.00    +0.000 A 
ATOM     11  N   UNL     1      -3.402  11.717  18.450  0.00  0.00    +0.000 NA
BRANCH   6  13
ATOM     12  C   UNL     1      -5.874  12.551  18.589  0.00  0.00    +0.000 C 
ATOM     13  O   UNL     1      -5.432  12.115  17.310  0.00  0.00    +0.000 OA
ENDBRANCH   6  13
ENDBRANCH   2   9
ENDBRANCH   1   3
BRANCH   1  14
ATOM     14  S   UNL     1       2.055   7.728  19.586  0.00  0.00    +0.000 S 
BRANCH  14  15
ATOM     15  C   UNL     1       2.867   6.501  18.571  0.00  0.00    +0.000 A 
ATOM     16  N   UNL     1       3.747   6.979  17.667  0.00  0.00    +0.000 NA
ATOM     17  C   UNL     1       4.464   6.105  16.920  0.00  0.00    +0.000 A 
ATOM     18  C   UNL     1       5.440   6.743  15.971  0.00  0.00    +0.000 C 
ATOM     19  C   UNL     1       4.332   4.714  17.047  0.00  0.00    +0.000 A 
ATOM     20  C   UNL     1       5.182   3.774  16.232  0.00  0.00    +0.000 C 
ATOM     21  C   UNL     1       3.389   4.219  17.978  0.00  0.00    +0.000 A 
ATOM     22  C   UNL     1       3.188   2.736  18.196  0.00  0.00    +0.000 C 
ATOM     23  C   UNL     1       2.639   5.134  18.747  0.00  0.00    +0.000 A 
BRANCH  23  24
ATOM     24  C   UNL     1       1.679   4.669  19.715  0.00  0.00    +0.000 C 
ATOM     25  N   UNL     1       0.922   4.261  20.490  0.00  0.00    +0.000 NA
ENDBRANCH  23  24
ENDBRANCH  14  15
ENDBRANCH   1  14
TORSDOF 6
ENDMDL
