MODEL 1
REMARK VINA RESULT:      -8.7      0.000      0.000
REMARK  Name = 
REMARK  11 active torsions:
REMARK  status: ('A' for Active; 'I' for Inactive)
REMARK    1  A    between atoms: C_2  and  C_3
REMARK    2  A    between atoms: C_3  and  C_4
REMARK    3  A    between atoms: C_4  and  C_5
REMARK    4  A    between atoms: C_4  and  C_14
REMARK    5  A    between atoms: C_5  and  C_6
REMARK    6  A    between atoms: C_6  and  C_7
REMARK    7  A    between atoms: C_7  and  C_8
REMARK    8  A    between atoms: C_16  and  C_17
REMARK    9  A    between atoms: N_19  and  S_20
REMARK   10  A    between atoms: S_20  and  C_23
REMARK   11  A    between atoms: N_31  and  O_32
REMARK                            x       y       z     vdW  Elec       q    Type
REMARK                         _______ _______ _______ _____ _____    ______ ____
ROOT
ATOM      1  C   UNL     1       4.129   6.513  17.901  0.00  0.00    +0.000 A 
ATOM      2  N   UNL     1       3.710   7.651  17.378  0.00  0.00    +0.000 NA
ATOM      3  C   UNL     1       2.703   8.031  18.236  0.00  0.00    +0.000 A 
ATOM      4  N   UNL     1       2.529   7.189  19.265  0.00  0.00    +0.000 NA
ATOM      5  O   UNL     1       3.457   6.193  19.046  0.00  0.00    +0.000 OA
ENDROOT
BRANCH   3   6
ATOM      6  C   UNL     1       1.911   9.250  18.098  0.00  0.00    +0.000 C 
ATOM      7  O   UNL     1       2.166  10.098  17.254  0.00  0.00    +0.000 OA
ATOM      8  N   UNL     1       0.821   9.369  18.964  0.00  0.00    +0.000 N 
ATOM      9  H   UNL     1       0.628   8.645  19.656  0.00  0.00    +0.000 HD
BRANCH   8  10
ATOM     10  S   UNL     1      -0.160  10.714  18.976  0.00  0.00    +0.000 S 
ATOM     11  O   UNL     1       0.672  11.847  18.647  0.00  0.00    +0.000 OA
ATOM     12  O   UNL     1      -1.330  10.402  18.179  0.00  0.00    +0.000 OA
BRANCH  10  13
ATOM     13  C   UNL     1      -0.688  10.918  20.664  0.00  0.00    +0.000 A 
ATOM     14  C   UNL     1      -0.280  10.044  21.688  0.00  0.00    +0.000 A 
ATOM     15  C   UNL     1      -0.772  10.242  22.985  0.00  0.00    +0.000 A 
ATOM     16  C   UNL     1      -1.635  11.307  23.264  0.00  0.00    +0.000 A 
ATOM     17  C   UNL     1      -2.001  12.193  22.255  0.00  0.00    +0.000 A 
ATOM     18  C   UNL     1      -1.523  12.001  20.962  0.00  0.00    +0.000 A 
ENDBRANCH  10  13
ENDBRANCH   8  10
ENDBRANCH   3   6
BRANCH   1  19
ATOM     19  C   UNL     1       5.196   5.555  17.438  0.00  0.00    +0.000 C 
BRANCH  19  20
ATOM     20  C   UNL     1       5.865   4.895  18.668  0.00  0.00    +0.000 C 
BRANCH  20  22
ATOM     21  O   UNL     1       7.594   5.331  20.300  0.00  0.00    +0.000 OA
ATOM     22  C   UNL     1       7.056   5.643  19.231  0.00  0.00    +0.000 C 
ATOM     23  N   UNL     1       7.499   6.658  18.426  0.00  0.00    +0.000 N 
ATOM     24  H   UNL     1       7.046   6.955  17.565  0.00  0.00    +0.000 HD
BRANCH  23  25
ATOM     25  O   UNL     1       8.617   7.422  18.827  0.00  0.00    +0.000 OA
ATOM     26  H   UNL     1       9.169   7.455  18.019  0.00  0.00    +0.000 HD
ENDBRANCH  23  25
ENDBRANCH  20  22
ENDBRANCH  19  20
BRANCH  19  27
ATOM     27  C   UNL     1       4.590   4.515  16.459  0.00  0.00    +0.000 C 
BRANCH  27  28
ATOM     28  C   UNL     1       4.074   3.256  17.178  0.00  0.00    +0.000 C 
BRANCH  28  29
ATOM     29  C   UNL     1       2.566   3.246  17.374  0.00  0.00    +0.000 C 
BRANCH  29  30
ATOM     30  C   UNL     1       2.096   2.159  18.372  0.00  0.00    +0.000 C 
ATOM     31  C   UNL     1       3.070   1.825  19.521  0.00  0.00    +0.000 C 
ATOM     32  C   UNL     1       3.158   2.904  20.598  0.00  0.00    +0.000 C 
ATOM     33  C   UNL     1       1.779   3.301  21.113  0.00  0.00    +0.000 C 
ATOM     34  C   UNL     1       0.845   3.690  19.973  0.00  0.00    +0.000 C 
ATOM     35  C   UNL     1       0.730   2.565  18.946  0.00  0.00    +0.000 C 
ENDBRANCH  29  30
ENDBRANCH  28  29
ENDBRANCH  27  28
ENDBRANCH  19  27
ENDBRANCH   1  19
TORSDOF 11
ENDMDL
MODEL 2
REMARK VINA RESULT:      -8.5      5.167      6.576
REMARK  Name = 
REMARK  11 active torsions:
REMARK  status: ('A' for Active; 'I' for Inactive)
REMARK    1  A    between atoms: C_2  and  C_3
REMARK    2  A    between atoms: C_3  and  C_4
REMARK    3  A    between atoms: C_4  and  C_5
REMARK    4  A    between atoms: C_4  and  C_14
REMARK    5  A    between atoms: C_5  and  C_6
REMARK    6  A    between atoms: C_6  and  C_7
REMARK    7  A    between atoms: C_7  and  C_8
REMARK    8  A    between atoms: C_16  and  C_17
REMARK    9  A    between atoms: N_19  and  S_20
REMARK   10  A    between atoms: S_20  and  C_23
REMARK   11  A    between atoms: N_31  and  O_32
REMARK                            x       y       z     vdW  Elec       q    Type
REMARK                         _______ _______ _______ _____ _____    ______ ____
ROOT
ATOM      1  C   UNL     1       6.979   6.849  17.381  0.00  0.00    +0.000 A 
ATOM      2  N   UNL     1       7.137   8.133  17.114  0.00  0.00    +0.000 NA
ATOM      3  C   UNL     1       8.070   8.528  18.045  0.00  0.00    +0.000 A 
ATOM      4  N   UNL     1       8.501   7.530  18.830  0.00  0.00    +0.000 NA
ATOM      5  O   UNL     1       7.786   6.432  18.401  0.00  0.00    +0.000 OA
ENDROOT
BRANCH   3   6
ATOM      6  C   UNL     1       8.599   9.884  18.166  0.00  0.00    +0.000 C 
ATOM      7  O   UNL     1       8.135  10.821  17.532  0.00  0.00    +0.000 OA
ATOM      8  N   UNL     1       9.642  10.051  19.081  0.00  0.00    +0.000 N 
ATOM      9  H   UNL     1      10.007   9.254  19.601  0.00  0.00    +0.000 HD
BRANCH   8  10
ATOM     10  S   UNL     1      10.394  11.519  19.310  0.00  0.00    +0.000 S 
ATOM     11  O   UNL     1      11.540  11.279  20.155  0.00  0.00    +0.000 OA
ATOM     12  O   UNL     1      10.556  12.129  18.005  0.00  0.00    +0.000 OA
BRANCH  10  13
ATOM     13  C   UNL     1       9.249  12.515  20.240  0.00  0.00    +0.000 A 
ATOM     14  C   UNL     1       8.649  13.667  19.703  0.00  0.00    +0.000 A 
ATOM     15  C   UNL     1       7.791  14.426  20.510  0.00  0.00    +0.000 A 
ATOM     16  C   UNL     1       7.513  14.029  21.822  0.00  0.00    +0.000 A 
ATOM     17  C   UNL     1       8.077  12.864  22.335  0.00  0.00    +0.000 A 
ATOM     18  C   UNL     1       8.936  12.108  21.542  0.00  0.00    +0.000 A 
ENDBRANCH  10  13
ENDBRANCH   8  10
ENDBRANCH   3   6
BRANCH   1  19
ATOM     19  C   UNL     1       6.077   5.820  16.751  0.00  0.00    +0.000 C 
BRANCH  19  20
ATOM     20  C   UNL     1       6.937   4.702  16.113  0.00  0.00    +0.000 C 
BRANCH  20  22
ATOM     21  O   UNL     1       6.199   4.088  13.895  0.00  0.00    +0.000 OA
ATOM     22  C   UNL     1       6.994   4.722  14.600  0.00  0.00    +0.000 C 
ATOM     23  N   UNL     1       7.974   5.535  14.096  0.00  0.00    +0.000 N 
ATOM     24  H   UNL     1       8.662   6.030  14.658  0.00  0.00    +0.000 HD
BRANCH  23  25
ATOM     25  O   UNL     1       8.121   5.657  12.697  0.00  0.00    +0.000 OA
ATOM     26  H   UNL     1       7.655   4.868  12.352  0.00  0.00    +0.000 HD
ENDBRANCH  23  25
ENDBRANCH  20  22
ENDBRANCH  19  20
BRANCH  19  27
ATOM     27  C   UNL     1       5.075   5.275  17.804  0.00  0.00    +0.000 C 
BRANCH  27  28
ATOM     28  C   UNL     1       4.326   4.022  17.314  0.00  0.00    +0.000 C 
BRANCH  28  29
ATOM     29  C   UNL     1       2.835   4.055  17.608  0.00  0.00    +0.000 C 
BRANCH  29  30
ATOM     30  C   UNL     1       2.299   2.707  18.149  0.00  0.00    +0.000 C 
ATOM     31  C   UNL     1       3.183   1.992  19.192  0.00  0.00    +0.000 C 
ATOM     32  C   UNL     1       3.178   2.651  20.570  0.00  0.00    +0.000 C 
ATOM     33  C   UNL     1       1.759   2.878  21.081  0.00  0.00    +0.000 C 
ATOM     34  C   UNL     1       0.914   3.641  20.068  0.00  0.00    +0.000 C 
ATOM     35  C   UNL     1       0.888   2.923  18.720  0.00  0.00    +0.000 C 
ENDBRANCH  29  30
ENDBRANCH  28  29
ENDBRANCH  27  28
ENDBRANCH  19  27
ENDBRANCH   1  19
TORSDOF 11
ENDMDL
MODEL 3
REMARK VINA RESULT:      -8.4      5.350      6.906
REMARK  Name = 
REMARK  11 active torsions:
REMARK  status: ('A' for Active; 'I' for Inactive)
REMARK    1  A    between atoms: C_2  and  C_3
REMARK    2  A    between atoms: C_3  and  C_4
REMARK    3  A    between atoms: C_4  and  C_5
REMARK    4  A    between atoms: C_4  and  C_14
REMARK    5  A    between atoms: C_5  and  C_6
REMARK    6  A    between atoms: C_6  and  C_7
REMARK    7  A    between atoms: C_7  and  C_8
REMARK    8  A    between atoms: C_16  and  C_17
REMARK    9  A    between atoms: N_19  and  S_20
REMARK   10  A    between atoms: S_20  and  C_23
REMARK   11  A    between atoms: N_31  and  O_32
REMARK                            x       y       z     vdW  Elec       q    Type
REMARK                         _______ _______ _______ _____ _____    ______ ____
ROOT
ATOM      1  C   UNL     1       7.115   7.333  17.456  0.00  0.00    +0.000 A 
ATOM      2  N   UNL     1       7.329   8.618  17.237  0.00  0.00    +0.000 NA
ATOM      3  C   UNL     1       8.274   8.938  18.185  0.00  0.00    +0.000 A 
ATOM      4  N   UNL     1       8.658   7.894  18.933  0.00  0.00    +0.000 NA
ATOM      5  O   UNL     1       7.898   6.845  18.462  0.00  0.00    +0.000 OA
ENDROOT
BRANCH   3   6
ATOM      6  C   UNL     1       8.860  10.265  18.357  0.00  0.00    +0.000 C 
ATOM      7  O   UNL     1       8.463  11.237  17.730  0.00  0.00    +0.000 OA
ATOM      8  N   UNL     1       9.877  10.362  19.310  0.00  0.00    +0.000 N 
ATOM      9  H   UNL     1      10.186   9.536  19.823  0.00  0.00    +0.000 HD
BRANCH   8  10
ATOM     10  S   UNL     1      10.687  11.787  19.602  0.00  0.00    +0.000 S 
ATOM     11  O   UNL     1      12.005  11.435  20.075  0.00  0.00    +0.000 OA
ATOM     12  O   UNL     1      10.525  12.622  18.429  0.00  0.00    +0.000 OA
BRANCH  10  13
ATOM     13  C   UNL     1       9.831  12.569  20.952  0.00  0.00    +0.000 A 
ATOM     14  C   UNL     1      10.042  13.916  21.295  0.00  0.00    +0.000 A 
ATOM     15  C   UNL     1       9.364  14.451  22.398  0.00  0.00    +0.000 A 
ATOM     16  C   UNL     1       8.470  13.665  23.132  0.00  0.00    +0.000 A 
ATOM     17  C   UNL     1       8.233  12.344  22.762  0.00  0.00    +0.000 A 
ATOM     18  C   UNL     1       8.907  11.802  21.672  0.00  0.00    +0.000 A 
ENDBRANCH  10  13
ENDBRANCH   8  10
ENDBRANCH   3   6
BRANCH   1  19
ATOM     19  C   UNL     1       6.172   6.368  16.786  0.00  0.00    +0.000 C 
BRANCH  19  20
ATOM     20  C   UNL     1       6.934   5.069  16.425  0.00  0.00    +0.000 C 
BRANCH  20  22
ATOM     21  O   UNL     1       7.684   5.449  14.159  0.00  0.00    +0.000 OA
ATOM     22  C   UNL     1       7.017   4.764  14.944  0.00  0.00    +0.000 C 
ATOM     23  N   UNL     1       6.325   3.643  14.573  0.00  0.00    +0.000 N 
ATOM     24  H   UNL     1       5.738   3.091  15.194  0.00  0.00    +0.000 HD
BRANCH  23  25
ATOM     25  O   UNL     1       6.337   3.238  13.221  0.00  0.00    +0.000 OA
ATOM     26  H   UNL     1       5.393   3.275  12.965  0.00  0.00    +0.000 HD
ENDBRANCH  23  25
ENDBRANCH  20  22
ENDBRANCH  19  20
BRANCH  19  27
ATOM     27  C   UNL     1       4.943   6.105  17.697  0.00  0.00    +0.000 C 
BRANCH  27  28
ATOM     28  C   UNL     1       4.918   4.671  18.257  0.00  0.00    +0.000 C 
BRANCH  28  29
ATOM     29  C   UNL     1       3.774   3.829  17.713  0.00  0.00    +0.000 C 
BRANCH  29  30
ATOM     30  C   UNL     1       3.452   2.605  18.605  0.00  0.00    +0.000 C 
ATOM     31  C   UNL     1       3.575   2.823  20.128  0.00  0.00    +0.000 C 
ATOM     32  C   UNL     1       2.456   3.670  20.729  0.00  0.00    +0.000 C 
ATOM     33  C   UNL     1       1.078   3.149  20.334  0.00  0.00    +0.000 C 
ATOM     34  C   UNL     1       0.948   2.999  18.823  0.00  0.00    +0.000 C 
ATOM     35  C   UNL     1       2.044   2.094  18.262  0.00  0.00    +0.000 C 
ENDBRANCH  29  30
ENDBRANCH  28  29
ENDBRANCH  27  28
ENDBRANCH  19  27
ENDBRANCH   1  19
TORSDOF 11
ENDMDL
MODEL 4
REMARK VINA RESULT:      -8.4      5.117      6.990
REMARK  Name = 
REMARK  11 active torsions:
REMARK  status: ('A' for Active; 'I' for Inactive)
REMARK    1  A    between atoms: C_2  and  C_3
REMARK    2  A    between atoms: C_3  and  C_4
REMARK    3  A    between atoms: C_4  and  C_5
REMARK    4  A    between atoms: C_4  and  C_14
REMARK    5  A    between atoms: C_5  and  C_6
REMARK    6  A    between atoms: C_6  and  C_7
REMARK    7  A    between atoms: C_7  and  C_8
REMARK    8  A    between atoms: C_16  and  C_17
REMARK    9  A    between atoms: N_19  and  S_20
REMARK   10  A    between atoms: S_20  and  C_23
REMARK   11  A    between atoms: N_31  and  O_32
REMARK                            x       y       z     vdW  Elec       q    Type
REMARK                         _______ _______ _______ _____ _____    ______ ____
ROOT
ATOM      1  C   UNL     1       7.188   7.423  17.431  0.00  0.00    +0.000 A 
ATOM      2  N   UNL     1       7.477   8.711  17.455  0.00  0.00    +0.000 NA
ATOM      3  C   UNL     1       8.400   8.800  18.472  0.00  0.00    +0.000 A 
ATOM      4  N   UNL     1       8.699   7.618  19.030  0.00  0.00    +0.000 NA
ATOM      5  O   UNL     1       7.904   6.716  18.354  0.00  0.00    +0.000 OA
ENDROOT
BRANCH   3   6
ATOM      6  C   UNL     1       9.047  10.037  18.899  0.00  0.00    +0.000 C 
ATOM      7  O   UNL     1       9.016  10.420  20.061  0.00  0.00    +0.000 OA
ATOM      8  N   UNL     1       9.737  10.737  17.907  0.00  0.00    +0.000 N 
ATOM      9  H   UNL     1       9.752  10.394  16.946  0.00  0.00    +0.000 HD
BRANCH   8  10
ATOM     10  S   UNL     1      10.492  12.191  18.207  0.00  0.00    +0.000 S 
ATOM     11  O   UNL     1      11.181  12.057  19.468  0.00  0.00    +0.000 OA
ATOM     12  O   UNL     1      11.217  12.556  17.006  0.00  0.00    +0.000 OA
BRANCH  10  13
ATOM     13  C   UNL     1       9.188  13.380  18.440  0.00  0.00    +0.000 A 
ATOM     14  C   UNL     1       9.227  14.346  19.461  0.00  0.00    +0.000 A 
ATOM     15  C   UNL     1       8.143  15.221  19.610  0.00  0.00    +0.000 A 
ATOM     16  C   UNL     1       7.049  15.153  18.740  0.00  0.00    +0.000 A 
ATOM     17  C   UNL     1       7.036  14.223  17.705  0.00  0.00    +0.000 A 
ATOM     18  C   UNL     1       8.106  13.344  17.554  0.00  0.00    +0.000 A 
ENDBRANCH  10  13
ENDBRANCH   8  10
ENDBRANCH   3   6
BRANCH   1  19
ATOM     19  C   UNL     1       6.223   6.650  16.570  0.00  0.00    +0.000 C 
BRANCH  19  20
ATOM     20  C   UNL     1       6.752   5.210  16.366  0.00  0.00    +0.000 C 
BRANCH  20  22
ATOM     21  O   UNL     1       7.691   5.396  14.147  0.00  0.00    +0.000 OA
ATOM     22  C   UNL     1       6.939   4.793  14.922  0.00  0.00    +0.000 C 
ATOM     23  N   UNL     1       6.237   3.670  14.577  0.00  0.00    +0.000 N 
ATOM     24  H   UNL     1       5.583   3.185  15.187  0.00  0.00    +0.000 HD
BRANCH  23  25
ATOM     25  O   UNL     1       6.340   3.165  13.263  0.00  0.00    +0.000 OA
ATOM     26  H   UNL     1       5.810   3.797  12.736  0.00  0.00    +0.000 HD
ENDBRANCH  23  25
ENDBRANCH  20  22
ENDBRANCH  19  20
BRANCH  19  27
ATOM     27  C   UNL     1       4.805   6.681  17.200  0.00  0.00    +0.000 C 
BRANCH  27  28
ATOM     28  C   UNL     1       4.368   5.307  17.742  0.00  0.00    +0.000 C 
BRANCH  28  29
ATOM     29  C   UNL     1       3.591   5.390  19.046  0.00  0.00    +0.000 C 
BRANCH  29  30
ATOM     30  C   UNL     1       2.084   5.083  18.868  0.00  0.00    +0.000 C 
ATOM     31  C   UNL     1       1.717   4.120  17.720  0.00  0.00    +0.000 C 
ATOM     32  C   UNL     1       2.075   2.661  17.992  0.00  0.00    +0.000 C 
ATOM     33  C   UNL     1       1.529   2.186  19.335  0.00  0.00    +0.000 C 
ATOM     34  C   UNL     1       1.951   3.111  20.470  0.00  0.00    +0.000 C 
ATOM     35  C   UNL     1       1.522   4.552  20.196  0.00  0.00    +0.000 C 
ENDBRANCH  29  30
ENDBRANCH  28  29
ENDBRANCH  27  28
ENDBRANCH  19  27
ENDBRANCH   1  19
TORSDOF 11
ENDMDL
MODEL 5
REMARK VINA RESULT:      -8.4      5.061      6.702
REMARK  Name = 
REMARK  11 active torsions:
REMARK  status: ('A' for Active; 'I' for Inactive)
REMARK    1  A    between atoms: C_2  and  C_3
REMARK    2  A    between atoms: C_3  and  C_4
REMARK    3  A    between atoms: C_4  and  C_5
REMARK    4  A    between atoms: C_4  and  C_14
REMARK    5  A    between atoms: C_5  and  C_6
REMARK    6  A    between atoms: C_6  and  C_7
REMARK    7  A    between atoms: C_7  and  C_8
REMARK    8  A    between atoms: C_16  and  C_17
REMARK    9  A    between atoms: N_19  and  S_20
REMARK   10  A    between atoms: S_20  and  C_23
REMARK   11  A    between atoms: N_31  and  O_32
REMARK                            x       y       z     vdW  Elec       q    Type
REMARK                         _______ _______ _______ _____ _____    ______ ____
ROOT
ATOM      1  C   UNL     1       7.318   7.265  17.526  0.00  0.00    +0.000 A 
ATOM      2  N   UNL     1       7.598   8.536  17.304  0.00  0.00    +0.000 NA
ATOM      3  C   UNL     1       8.468   8.842  18.326  0.00  0.00    +0.000 A 
ATOM      4  N   UNL     1       8.745   7.801  19.124  0.00  0.00    +0.000 NA
ATOM      5  O   UNL     1       7.991   6.770  18.606  0.00  0.00    +0.000 OA
ENDROOT
BRANCH   3   6
ATOM      6  C   UNL     1       9.086  10.150  18.526  0.00  0.00    +0.000 C 
ATOM      7  O   UNL     1       9.665  10.740  17.624  0.00  0.00    +0.000 OA
ATOM      8  N   UNL     1       8.942  10.703  19.801  0.00  0.00    +0.000 N 
ATOM      9  H   UNL     1       8.451  10.192  20.534  0.00  0.00    +0.000 HD
BRANCH   8  10
ATOM     10  S   UNL     1       9.624  12.164  20.218  0.00  0.00    +0.000 S 
ATOM     11  O   UNL     1      11.048  11.953  20.317  0.00  0.00    +0.000 OA
ATOM     12  O   UNL     1       9.088  13.162  19.314  0.00  0.00    +0.000 OA
BRANCH  10  13
ATOM     13  C   UNL     1       9.027  12.532  21.854  0.00  0.00    +0.000 A 
ATOM     14  C   UNL     1       9.043  13.836  22.382  0.00  0.00    +0.000 A 
ATOM     15  C   UNL     1       8.598  14.042  23.694  0.00  0.00    +0.000 A 
ATOM     16  C   UNL     1       8.119  12.974  24.459  0.00  0.00    +0.000 A 
ATOM     17  C   UNL     1       8.065  11.693  23.915  0.00  0.00    +0.000 A 
ATOM     18  C   UNL     1       8.513  11.477  22.615  0.00  0.00    +0.000 A 
ENDBRANCH  10  13
ENDBRANCH   8  10
ENDBRANCH   3   6
BRANCH   1  19
ATOM     19  C   UNL     1       6.402   6.320  16.793  0.00  0.00    +0.000 C 
BRANCH  19  20
ATOM     20  C   UNL     1       7.212   5.096  16.300  0.00  0.00    +0.000 C 
BRANCH  20  22
ATOM     21  O   UNL     1       7.675   5.537  13.969  0.00  0.00    +0.000 OA
ATOM     22  C   UNL     1       7.120   4.823  14.813  0.00  0.00    +0.000 C 
ATOM     23  N   UNL     1       6.407   3.696  14.502  0.00  0.00    +0.000 N 
ATOM     24  H   UNL     1       5.910   3.120  15.178  0.00  0.00    +0.000 HD
BRANCH  23  25
ATOM     25  O   UNL     1       6.264   3.318  13.150  0.00  0.00    +0.000 OA
ATOM     26  H   UNL     1       7.065   2.782  12.979  0.00  0.00    +0.000 HD
ENDBRANCH  23  25
ENDBRANCH  20  22
ENDBRANCH  19  20
BRANCH  19  27
ATOM     27  C   UNL     1       5.210   5.920  17.703  0.00  0.00    +0.000 C 
BRANCH  27  28
ATOM     28  C   UNL     1       5.208   4.419  18.049  0.00  0.00    +0.000 C 
BRANCH  28  29
ATOM     29  C   UNL     1       4.133   4.031  19.052  0.00  0.00    +0.000 C 
BRANCH  29  30
ATOM     30  C   UNL     1       2.777   4.726  18.779  0.00  0.00    +0.000 C 
ATOM     31  C   UNL     1       1.765   3.932  17.927  0.00  0.00    +0.000 C 
ATOM     32  C   UNL     1       1.119   2.758  18.659  0.00  0.00    +0.000 C 
ATOM     33  C   UNL     1       0.530   3.184  20.000  0.00  0.00    +0.000 C 
ATOM     34  C   UNL     1       1.557   3.912  20.858  0.00  0.00    +0.000 C 
ATOM     35  C   UNL     1       2.137   5.118  20.120  0.00  0.00    +0.000 C 
ENDBRANCH  29  30
ENDBRANCH  28  29
ENDBRANCH  27  28
ENDBRANCH  19  27
ENDBRANCH   1  19
TORSDOF 11
ENDMDL
MODEL 6
REMARK VINA RESULT:      -8.3      1.221      1.456
REMARK  Name = 
REMARK  11 active torsions:
REMARK  status: ('A' for Active; 'I' for Inactive)
REMARK    1  A    between atoms: C_2  and  C_3
REMARK    2  A    between atoms: C_3  and  C_4
REMARK    3  A    between atoms: C_4  and  C_5
REMARK    4  A    between atoms: C_4  and  C_14
REMARK    5  A    between atoms: C_5  and  C_6
REMARK    6  A    between atoms: C_6  and  C_7
REMARK    7  A    between atoms: C_7  and  C_8
REMARK    8  A    between atoms: C_16  and  C_17
REMARK    9  A    between atoms: N_19  and  S_20
REMARK   10  A    between atoms: S_20  and  C_23
REMARK   11  A    between atoms: N_31  and  O_32
REMARK                            x       y       z     vdW  Elec       q    Type
REMARK                         _______ _______ _______ _____ _____    ______ ____
ROOT
ATOM      1  C   UNL     1       3.744   5.698  18.123  0.00  0.00    +0.000 A 
ATOM      2  N   UNL     1       3.219   6.703  17.446  0.00  0.00    +0.000 NA
ATOM      3  C   UNL     1       2.728   7.520  18.439  0.00  0.00    +0.000 A 
ATOM      4  N   UNL     1       2.969   7.063  19.677  0.00  0.00    +0.000 NA
ATOM      5  O   UNL     1       3.629   5.869  19.473  0.00  0.00    +0.000 OA
ENDROOT
BRANCH   3   6
ATOM      6  C   UNL     1       2.047   8.790  18.208  0.00  0.00    +0.000 C 
ATOM      7  O   UNL     1       2.167   9.411  17.160  0.00  0.00    +0.000 OA
ATOM      8  N   UNL     1       1.221   9.235  19.243  0.00  0.00    +0.000 N 
ATOM      9  H   UNL     1       1.135   8.697  20.105  0.00  0.00    +0.000 HD
BRANCH   8  10
ATOM     10  S   UNL     1       0.407  10.686  19.167  0.00  0.00    +0.000 S 
ATOM     11  O   UNL     1       1.402  11.723  19.029  0.00  0.00    +0.000 OA
ATOM     12  O   UNL     1      -0.646  10.539  18.181  0.00  0.00    +0.000 OA
BRANCH  10  13
ATOM     13  C   UNL     1      -0.362  10.898  20.758  0.00  0.00    +0.000 A 
ATOM     14  C   UNL     1      -0.144  10.004  21.822  0.00  0.00    +0.000 A 
ATOM     15  C   UNL     1      -0.818  10.210  23.033  0.00  0.00    +0.000 A 
ATOM     16  C   UNL     1      -1.676  11.304  23.191  0.00  0.00    +0.000 A 
ATOM     17  C   UNL     1      -1.855  12.209  22.149  0.00  0.00    +0.000 A 
ATOM     18  C   UNL     1      -1.195  12.008  20.940  0.00  0.00    +0.000 A 
ENDBRANCH  10  13
ENDBRANCH   8  10
ENDBRANCH   3   6
BRANCH   1  19
ATOM     19  C   UNL     1       4.423   4.441  17.644  0.00  0.00    +0.000 C 
BRANCH  19  20
ATOM     20  C   UNL     1       5.283   4.762  16.398  0.00  0.00    +0.000 C 
BRANCH  20  22
ATOM     21  O   UNL     1       7.660   4.868  16.820  0.00  0.00    +0.000 OA
ATOM     22  C   UNL     1       6.589   5.472  16.685  0.00  0.00    +0.000 C 
ATOM     23  N   UNL     1       6.476   6.836  16.735  0.00  0.00    +0.000 N 
ATOM     24  H   UNL     1       5.600   7.348  16.667  0.00  0.00    +0.000 HD
BRANCH  23  25
ATOM     25  O   UNL     1       7.627   7.617  16.976  0.00  0.00    +0.000 OA
ATOM     26  H   UNL     1       7.418   8.072  17.818  0.00  0.00    +0.000 HD
ENDBRANCH  23  25
ENDBRANCH  20  22
ENDBRANCH  19  20
BRANCH  19  27
ATOM     27  C   UNL     1       5.252   3.812  18.795  0.00  0.00    +0.000 C 
BRANCH  27  28
ATOM     28  C   UNL     1       4.478   2.717  19.553  0.00  0.00    +0.000 C 
BRANCH  28  29
ATOM     29  C   UNL     1       3.445   2.004  18.695  0.00  0.00    +0.000 C 
BRANCH  29  30
ATOM     30  C   UNL     1       2.131   1.707  19.459  0.00  0.00    +0.000 C 
ATOM     31  C   UNL     1       2.090   2.148  20.937  0.00  0.00    +0.000 C 
ATOM     32  C   UNL     1       1.971   3.657  21.135  0.00  0.00    +0.000 C 
ATOM     33  C   UNL     1       0.815   4.242  20.330  0.00  0.00    +0.000 C 
ATOM     34  C   UNL     1       0.902   3.853  18.860  0.00  0.00    +0.000 C 
ATOM     35  C   UNL     1       0.956   2.334  18.694  0.00  0.00    +0.000 C 
ENDBRANCH  29  30
ENDBRANCH  28  29
ENDBRANCH  27  28
ENDBRANCH  19  27
ENDBRANCH   1  19
TORSDOF 11
ENDMDL
MODEL 7
REMARK VINA RESULT:      -8.2      2.393      3.211
REMARK  Name = 
REMARK  11 active torsions:
REMARK  status: ('A' for Active; 'I' for Inactive)
REMARK    1  A    between atoms: C_2  and  C_3
REMARK    2  A    between atoms: C_3  and  C_4
REMARK    3  A    between atoms: C_4  and  C_5
REMARK    4  A    between atoms: C_4  and  C_14
REMARK    5  A    between atoms: C_5  and  C_6
REMARK    6  A    between atoms: C_6  and  C_7
REMARK    7  A    between atoms: C_7  and  C_8
REMARK    8  A    between atoms: C_16  and  C_17
REMARK    9  A    between atoms: N_19  and  S_20
REMARK   10  A    between atoms: S_20  and  C_23
REMARK   11  A    between atoms: N_31  and  O_32
REMARK                            x       y       z     vdW  Elec       q    Type
REMARK                         _______ _______ _______ _____ _____    ______ ____
ROOT
ATOM      1  C   UNL     1       2.536   7.228  18.950  0.00  0.00    +0.000 A 
ATOM      2  N   UNL     1       2.105   8.471  18.825  0.00  0.00    +0.000 NA
ATOM      3  C   UNL     1       1.414   8.675  19.997  0.00  0.00    +0.000 A 
ATOM      4  N   UNL     1       1.446   7.624  20.829  0.00  0.00    +0.000 NA
ATOM      5  O   UNL     1       2.175   6.675  20.144  0.00  0.00    +0.000 OA
ENDROOT
BRANCH   3   6
ATOM      6  C   UNL     1       0.739   9.919  20.357  0.00  0.00    +0.000 C 
ATOM      7  O   UNL     1       1.058  10.571  21.342  0.00  0.00    +0.000 OA
ATOM      8  N   UNL     1      -0.268  10.340  19.484  0.00  0.00    +0.000 N 
ATOM      9  H   UNL     1      -0.511   9.780  18.666  0.00  0.00    +0.000 HD
BRANCH   8  10
ATOM     10  S   UNL     1      -1.172  11.709  19.765  0.00  0.00    +0.000 S 
ATOM     11  O   UNL     1      -1.714  11.592  21.097  0.00  0.00    +0.000 OA
ATOM     12  O   UNL     1      -0.353  12.849  19.401  0.00  0.00    +0.000 OA
BRANCH  10  13
ATOM     13  C   UNL     1      -2.539  11.634  18.628  0.00  0.00    +0.000 A 
ATOM     14  C   UNL     1      -3.846  11.993  19.002  0.00  0.00    +0.000 A 
ATOM     15  C   UNL     1      -4.880  11.866  18.064  0.00  0.00    +0.000 A 
ATOM     16  C   UNL     1      -4.613  11.415  16.767  0.00  0.00    +0.000 A 
ATOM     17  C   UNL     1      -3.309  11.102  16.391  0.00  0.00    +0.000 A 
ATOM     18  C   UNL     1      -2.277  11.218  17.317  0.00  0.00    +0.000 A 
ENDBRANCH  10  13
ENDBRANCH   8  10
ENDBRANCH   3   6
BRANCH   1  19
ATOM     19  C   UNL     1       3.336   6.369  18.006  0.00  0.00    +0.000 C 
BRANCH  19  20
ATOM     20  C   UNL     1       4.151   7.273  17.050  0.00  0.00    +0.000 C 
BRANCH  20  22
ATOM     21  O   UNL     1       5.123   5.776  15.419  0.00  0.00    +0.000 OA
ATOM     22  C   UNL     1       5.298   6.585  16.339  0.00  0.00    +0.000 C 
ATOM     23  N   UNL     1       6.534   6.976  16.779  0.00  0.00    +0.000 N 
ATOM     24  H   UNL     1       6.698   7.608  17.560  0.00  0.00    +0.000 HD
BRANCH  23  25
ATOM     25  O   UNL     1       7.688   6.423  16.183  0.00  0.00    +0.000 OA
ATOM     26  H   UNL     1       8.365   6.503  16.886  0.00  0.00    +0.000 HD
ENDBRANCH  23  25
ENDBRANCH  20  22
ENDBRANCH  19  20
BRANCH  19  27
ATOM     27  C   UNL     1       4.232   5.388  18.809  0.00  0.00    +0.000 C 
BRANCH  27  28
ATOM     28  C   UNL     1       4.221   3.963  18.226  0.00  0.00    +0.000 C 
BRANCH  28  29
ATOM     29  C   UNL     1       2.857   3.531  17.711  0.00  0.00    +0.000 C 
BRANCH  29  30
ATOM     30  C   UNL     1       2.301   2.290  18.450  0.00  0.00    +0.000 C 
ATOM     31  C   UNL     1       3.070   1.849  19.713  0.00  0.00    +0.000 C 
ATOM     32  C   UNL     1       2.870   2.768  20.916  0.00  0.00    +0.000 C 
ATOM     33  C   UNL     1       1.391   3.012  21.201  0.00  0.00    +0.000 C 
ATOM     34  C   UNL     1       0.656   3.508  19.962  0.00  0.00    +0.000 C 
ATOM     35  C   UNL     1       0.824   2.535  18.795  0.00  0.00    +0.000 C 
ENDBRANCH  29  30
ENDBRANCH  28  29
ENDBRANCH  27  28
ENDBRANCH  19  27
ENDBRANCH   1  19
TORSDOF 11
ENDMDL
MODEL 8
REMARK VINA RESULT:      -8.1      4.926      6.754
REMARK  Name = 
REMARK  11 active torsions:
REMARK  status: ('A' for Active; 'I' for Inactive)
REMARK    1  A    between atoms: C_2  and  C_3
REMARK    2  A    between atoms: C_3  and  C_4
REMARK    3  A    between atoms: C_4  and  C_5
REMARK    4  A    between atoms: C_4  and  C_14
REMARK    5  A    between atoms: C_5  and  C_6
REMARK    6  A    between atoms: C_6  and  C_7
REMARK    7  A    between atoms: C_7  and  C_8
REMARK    8  A    between atoms: C_16  and  C_17
REMARK    9  A    between atoms: N_19  and  S_20
REMARK   10  A    between atoms: S_20  and  C_23
REMARK   11  A    between atoms: N_31  and  O_32
REMARK                            x       y       z     vdW  Elec       q    Type
REMARK                         _______ _______ _______ _____ _____    ______ ____
ROOT
ATOM      1  C   UNL     1       7.219   7.406  17.371  0.00  0.00    +0.000 A 
ATOM      2  N   UNL     1       7.567   8.679  17.321  0.00  0.00    +0.000 NA
ATOM      3  C   UNL     1       8.425   8.806  18.390  0.00  0.00    +0.000 A 
ATOM      4  N   UNL     1       8.631   7.658  19.051  0.00  0.00    +0.000 NA
ATOM      5  O   UNL     1       7.840   6.742  18.390  0.00  0.00    +0.000 OA
ENDROOT
BRANCH   3   6
ATOM      6  C   UNL     1       9.101  10.043  18.770  0.00  0.00    +0.000 C 
ATOM      7  O   UNL     1       9.730  10.147  19.814  0.00  0.00    +0.000 OA
ATOM      8  N   UNL     1       9.017  11.090  17.848  0.00  0.00    +0.000 N 
ATOM      9  H   UNL     1       8.490  10.976  16.982  0.00  0.00    +0.000 HD
BRANCH   8  10
ATOM     10  S   UNL     1       9.689  12.586  18.140  0.00  0.00    +0.000 S 
ATOM     11  O   UNL     1      10.323  12.520  19.435  0.00  0.00    +0.000 OA
ATOM     12  O   UNL     1      10.453  12.952  16.963  0.00  0.00    +0.000 OA
BRANCH  10  13
ATOM     13  C   UNL     1       8.321  13.717  18.276  0.00  0.00    +0.000 A 
ATOM     14  C   UNL     1       7.127  13.541  17.554  0.00  0.00    +0.000 A 
ATOM     15  C   UNL     1       6.110  14.496  17.679  0.00  0.00    +0.000 A 
ATOM     16  C   UNL     1       6.268  15.596  18.530  0.00  0.00    +0.000 A 
ATOM     17  C   UNL     1       7.435  15.741  19.274  0.00  0.00    +0.000 A 
ATOM     18  C   UNL     1       8.454  14.801  19.151  0.00  0.00    +0.000 A 
ENDBRANCH  10  13
ENDBRANCH   8  10
ENDBRANCH   3   6
BRANCH   1  19
ATOM     19  C   UNL     1       6.277   6.613  16.505  0.00  0.00    +0.000 C 
BRANCH  19  20
ATOM     20  C   UNL     1       6.858   5.196  16.274  0.00  0.00    +0.000 C 
BRANCH  20  22
ATOM     21  O   UNL     1       7.782   5.421  14.052  0.00  0.00    +0.000 OA
ATOM     22  C   UNL     1       7.036   4.804  14.823  0.00  0.00    +0.000 C 
ATOM     23  N   UNL     1       6.332   3.686  14.463  0.00  0.00    +0.000 N 
ATOM     24  H   UNL     1       5.684   3.189  15.070  0.00  0.00    +0.000 HD
BRANCH  23  25
ATOM     25  O   UNL     1       6.428   3.203  13.140  0.00  0.00    +0.000 OA
ATOM     26  H   UNL     1       7.347   2.869  13.088  0.00  0.00    +0.000 HD
ENDBRANCH  23  25
ENDBRANCH  20  22
ENDBRANCH  19  20
BRANCH  19  27
ATOM     27  C   UNL     1       4.863   6.581  17.145  0.00  0.00    +0.000 C 
BRANCH  27  28
ATOM     28  C   UNL     1       4.532   5.218  17.780  0.00  0.00    +0.000 C 
BRANCH  28  29
ATOM     29  C   UNL     1       3.908   5.330  19.162  0.00  0.00    +0.000 C 
BRANCH  29  30
ATOM     30  C   UNL     1       2.374   5.534  19.114  0.00  0.00    +0.000 C 
ATOM     31  C   UNL     1       1.601   4.645  18.118  0.00  0.00    +0.000 C 
ATOM     32  C   UNL     1       1.485   3.184  18.546  0.00  0.00    +0.000 C 
ATOM     33  C   UNL     1       0.947   3.052  19.967  0.00  0.00    +0.000 C 
ATOM     34  C   UNL     1       1.759   3.885  20.952  0.00  0.00    +0.000 C 
ATOM     35  C   UNL     1       1.801   5.353  20.529  0.00  0.00    +0.000 C 
ENDBRANCH  29  30
ENDBRANCH  28  29
ENDBRANCH  27  28
ENDBRANCH  19  27
ENDBRANCH   1  19
TORSDOF 11
ENDMDL
MODEL 9
REMARK VINA RESULT:      -8.1      1.805      2.334
REMARK  Name = 
REMARK  11 active torsions:
REMARK  status: ('A' for Active; 'I' for Inactive)
REMARK    1  A    between atoms: C_2  and  C_3
REMARK    2  A    between atoms: C_3  and  C_4
REMARK    3  A    between atoms: C_4  and  C_5
REMARK    4  A    between atoms: C_4  and  C_14
REMARK    5  A    between atoms: C_5  and  C_6
REMARK    6  A    between atoms: C_6  and  C_7
REMARK    7  A    between atoms: C_7  and  C_8
REMARK    8  A    between atoms: C_16  and  C_17
REMARK    9  A    between atoms: N_19  and  S_20
REMARK   10  A    between atoms: S_20  and  C_23
REMARK   11  A    between atoms: N_31  and  O_32
REMARK                            x       y       z     vdW  Elec       q    Type
REMARK                         _______ _______ _______ _____ _____    ______ ____
ROOT
ATOM      1  C   UNL     1       3.999   6.645  17.557  0.00  0.00    +0.000 A 
ATOM      2  N   UNL     1       3.598   6.417  18.795  0.00  0.00    +0.000 NA
ATOM      3  C   UNL     1       2.603   7.351  18.973  0.00  0.00    +0.000 A 
ATOM      4  N   UNL     1       2.370   8.099  17.885  0.00  0.00    +0.000 NA
ATOM      5  O   UNL     1       3.285   7.643  16.960  0.00  0.00    +0.000 OA
ENDROOT
BRANCH   3   6
ATOM      6  C   UNL     1       1.823   7.510  20.197  0.00  0.00    +0.000 C 
ATOM      7  O   UNL     1       1.677   6.596  20.997  0.00  0.00    +0.000 OA
ATOM      8  N   UNL     1       1.286   8.781  20.416  0.00  0.00    +0.000 N 
ATOM      9  H   UNL     1       1.426   9.527  19.734  0.00  0.00    +0.000 HD
BRANCH   8  10
ATOM     10  S   UNL     1       0.330   9.125  21.735  0.00  0.00    +0.000 S 
ATOM     11  O   UNL     1      -0.677   8.094  21.809  0.00  0.00    +0.000 OA
ATOM     12  O   UNL     1       1.216   9.372  22.856  0.00  0.00    +0.000 OA
BRANCH  10  13
ATOM     13  C   UNL     1      -0.501  10.652  21.351  0.00  0.00    +0.000 A 
ATOM     14  C   UNL     1      -1.032  11.489  22.349  0.00  0.00    +0.000 A 
ATOM     15  C   UNL     1      -1.711  12.653  21.969  0.00  0.00    +0.000 A 
ATOM     16  C   UNL     1      -1.838  12.994  20.617  0.00  0.00    +0.000 A 
ATOM     17  C   UNL     1      -1.273  12.183  19.636  0.00  0.00    +0.000 A 
ATOM     18  C   UNL     1      -0.602  11.020  20.005  0.00  0.00    +0.000 A 
ENDBRANCH  10  13
ENDBRANCH   8  10
ENDBRANCH   3   6
BRANCH   1  19
ATOM     19  C   UNL     1       5.085   5.992  16.742  0.00  0.00    +0.000 C 
BRANCH  19  20
ATOM     20  C   UNL     1       6.328   5.756  17.634  0.00  0.00    +0.000 C 
BRANCH  20  22
ATOM     21  O   UNL     1       7.325   7.826  16.884  0.00  0.00    +0.000 OA
ATOM     22  C   UNL     1       7.275   6.933  17.739  0.00  0.00    +0.000 C 
ATOM     23  N   UNL     1       8.030   6.933  18.881  0.00  0.00    +0.000 N 
ATOM     24  H   UNL     1       8.033   6.188  19.574  0.00  0.00    +0.000 HD
BRANCH  23  25
ATOM     25  O   UNL     1       8.940   7.988  19.109  0.00  0.00    +0.000 OA
ATOM     26  H   UNL     1       8.951   8.069  20.084  0.00  0.00    +0.000 HD
ENDBRANCH  23  25
ENDBRANCH  20  22
ENDBRANCH  19  20
BRANCH  19  27
ATOM     27  C   UNL     1       4.553   4.682  16.101  0.00  0.00    +0.000 C 
BRANCH  27  28
ATOM     28  C   UNL     1       4.155   3.628  17.151  0.00  0.00    +0.000 C 
BRANCH  28  29
ATOM     29  C   UNL     1       2.656   3.379  17.220  0.00  0.00    +0.000 C 
BRANCH  29  30
ATOM     30  C   UNL     1       2.289   2.161  18.102  0.00  0.00    +0.000 C 
ATOM     31  C   UNL     1       3.289   1.808  19.223  0.00  0.00    +0.000 C 
ATOM     32  C   UNL     1       3.275   2.780  20.400  0.00  0.00    +0.000 C 
ATOM     33  C   UNL     1       1.864   2.995  20.938  0.00  0.00    +0.000 C 
ATOM     34  C   UNL     1       0.899   3.406  19.832  0.00  0.00    +0.000 C 
ATOM     35  C   UNL     1       0.891   2.380  18.699  0.00  0.00    +0.000 C 
ENDBRANCH  29  30
ENDBRANCH  28  29
ENDBRANCH  27  28
ENDBRANCH  19  27
ENDBRANCH   1  19
TORSDOF 11
ENDMDL
