MODEL 1
REMARK VINA RESULT:      -7.6      0.000      0.000
REMARK  Name = 
REMARK  2 active torsions:
REMARK  status: ('A' for Active; 'I' for Inactive)
REMARK    1  A    between atoms: C_4  and  C_5
REMARK    2  A    between atoms: C_8  and  C_9
REMARK                            x       y       z     vdW  Elec       q    Type
REMARK                         _______ _______ _______ _____ _____    ______ ____
ROOT
ATOM      1  C   UNL     1       6.281   4.710  15.672  0.00  0.00    +0.000 A 
ATOM      2  C   UNL     1       7.363   4.798  16.517  0.00  0.00    +0.000 A 
ATOM      3  S   UNL     1       6.834   5.068  18.112  0.00  0.00    +0.000 S 
ATOM      4  C   UNL     1       5.207   5.248  17.550  0.00  0.00    +0.000 A 
ATOM      5  N   UNL     1       5.053   4.988  16.257  0.00  0.00    +0.000 NA
ENDROOT
BRANCH   4   6
ATOM      6  C   UNL     1       4.100   5.550  18.493  0.00  0.00    +0.000 A 
ATOM      7  C   UNL     1       3.505   6.828  18.412  0.00  0.00    +0.000 A 
ATOM      8  C   UNL     1       2.427   7.174  19.223  0.00  0.00    +0.000 A 
ATOM      9  C   UNL     1       1.927   6.246  20.125  0.00  0.00    +0.000 A 
ATOM     10  C   UNL     1       2.513   4.977  20.239  0.00  0.00    +0.000 A 
ATOM     11  C   UNL     1       2.001   4.041  21.152  0.00  0.00    +0.000 A 
ATOM     12  C   UNL     1       2.580   2.785  21.267  0.00  0.00    +0.000 A 
ATOM     13  C   UNL     1       3.671   2.514  20.478  0.00  0.00    +0.000 A 
ATOM     14  N   UNL     1       4.191   3.394  19.599  0.00  0.00    +0.000 NA
ATOM     15  C   UNL     1       3.624   4.615  19.439  0.00  0.00    +0.000 A 
ENDBRANCH   4   6
BRANCH   1  19
ATOM     16 CL   UNL     1       4.645   2.530  11.140  0.00  0.00    +0.000 Cl
ATOM     17  C   UNL     1       5.588   3.409  12.273  0.00  0.00    +0.000 A 
ATOM     18  C   UNL     1       5.348   3.545  13.617  0.00  0.00    +0.000 A 
ATOM     19  C   UNL     1       6.335   4.378  14.239  0.00  0.00    +0.000 A 
ATOM     20  C   UNL     1       7.283   4.780  13.321  0.00  0.00    +0.000 A 
ATOM     21 CL   UNL     1       8.706   5.725  13.558  0.00  0.00    +0.000 Cl
ATOM     22  S   UNL     1       6.974   4.221  11.745  0.00  0.00    +0.000 S 
ENDBRANCH   1  19
TORSDOF 2
ENDMDL
MODEL 2
REMARK VINA RESULT:      -7.4      5.446      7.893
REMARK  Name = 
REMARK  2 active torsions:
REMARK  status: ('A' for Active; 'I' for Inactive)
REMARK    1  A    between atoms: C_4  and  C_5
REMARK    2  A    between atoms: C_8  and  C_9
REMARK                            x       y       z     vdW  Elec       q    Type
REMARK                         _______ _______ _______ _____ _____    ______ ____
ROOT
ATOM      1  C   UNL     1       1.157   9.401  19.403  0.00  0.00    +0.000 A 
ATOM      2  C   UNL     1       1.032   8.737  20.601  0.00  0.00    +0.000 A 
ATOM      3  S   UNL     1       1.921   7.287  20.557  0.00  0.00    +0.000 S 
ATOM      4  C   UNL     1       2.257   7.534  18.877  0.00  0.00    +0.000 A 
ATOM      5  N   UNL     1       1.837   8.705  18.413  0.00  0.00    +0.000 NA
ENDROOT
BRANCH   4   6
ATOM      6  C   UNL     1       3.051   6.547  18.101  0.00  0.00    +0.000 A 
ATOM      7  C   UNL     1       4.177   7.028  17.397  0.00  0.00    +0.000 A 
ATOM      8  C   UNL     1       5.007   6.162  16.688  0.00  0.00    +0.000 A 
ATOM      9  C   UNL     1       4.723   4.804  16.675  0.00  0.00    +0.000 A 
ATOM     10  C   UNL     1       3.599   4.305  17.350  0.00  0.00    +0.000 A 
ATOM     11  C   UNL     1       3.319   2.929  17.335  0.00  0.00    +0.000 A 
ATOM     12  C   UNL     1       2.207   2.434  18.001  0.00  0.00    +0.000 A 
ATOM     13  C   UNL     1       1.396   3.338  18.643  0.00  0.00    +0.000 A 
ATOM     14  N   UNL     1       1.634   4.664  18.668  0.00  0.00    +0.000 NA
ATOM     15  C   UNL     1       2.732   5.172  18.058  0.00  0.00    +0.000 A 
ENDBRANCH   4   6
BRANCH   1  19
ATOM     16 CL   UNL     1       1.227  14.674  18.999  0.00  0.00    +0.000 Cl
ATOM     17  C   UNL     1       0.685  13.046  18.937  0.00  0.00    +0.000 A 
ATOM     18  C   UNL     1       1.382  11.930  19.327  0.00  0.00    +0.000 A 
ATOM     19  C   UNL     1       0.619  10.737  19.101  0.00  0.00    +0.000 A 
ATOM     20  C   UNL     1      -0.626  11.043  18.591  0.00  0.00    +0.000 A 
ATOM     21 CL   UNL     1      -1.941   9.996  18.211  0.00  0.00    +0.000 Cl
ATOM     22  S   UNL     1      -0.860  12.709  18.340  0.00  0.00    +0.000 S 
ENDBRANCH   1  19
TORSDOF 2
ENDMDL
MODEL 3
REMARK VINA RESULT:      -7.3      4.658      7.671
REMARK  Name = 
REMARK  2 active torsions:
REMARK  status: ('A' for Active; 'I' for Inactive)
REMARK    1  A    between atoms: C_4  and  C_5
REMARK    2  A    between atoms: C_8  and  C_9
REMARK                            x       y       z     vdW  Elec       q    Type
REMARK                         _______ _______ _______ _____ _____    ______ ____
ROOT
ATOM      1  C   UNL     1       1.770   6.956  20.232  0.00  0.00    +0.000 A 
ATOM      2  C   UNL     1       1.482   5.832  20.971  0.00  0.00    +0.000 A 
ATOM      3  S   UNL     1       2.466   4.539  20.470  0.00  0.00    +0.000 S 
ATOM      4  C   UNL     1       3.079   5.498  19.166  0.00  0.00    +0.000 A 
ATOM      5  N   UNL     1       2.665   6.760  19.188  0.00  0.00    +0.000 NA
ENDROOT
BRANCH   4   6
ATOM      6  C   UNL     1       4.068   4.946  18.206  0.00  0.00    +0.000 A 
ATOM      7  C   UNL     1       3.569   4.337  17.034  0.00  0.00    +0.000 A 
ATOM      8  C   UNL     1       4.430   3.840  16.058  0.00  0.00    +0.000 A 
ATOM      9  C   UNL     1       5.801   3.948  16.238  0.00  0.00    +0.000 A 
ATOM     10  C   UNL     1       6.322   4.531  17.403  0.00  0.00    +0.000 A 
ATOM     11  C   UNL     1       7.710   4.639  17.579  0.00  0.00    +0.000 A 
ATOM     12  C   UNL     1       8.228   5.214  18.731  0.00  0.00    +0.000 A 
ATOM     13  C   UNL     1       7.335   5.643  19.683  0.00  0.00    +0.000 A 
ATOM     14  N   UNL     1       5.998   5.545  19.547  0.00  0.00    +0.000 NA
ATOM     15  C   UNL     1       5.463   5.021  18.417  0.00  0.00    +0.000 A 
ENDBRANCH   4   6
BRANCH   1  19
ATOM     16 CL   UNL     1      -0.624  10.827  22.925  0.00  0.00    +0.000 Cl
ATOM     17  C   UNL     1       0.148   9.967  21.656  0.00  0.00    +0.000 A 
ATOM     18  C   UNL     1       0.569   8.662  21.681  0.00  0.00    +0.000 A 
ATOM     19  C   UNL     1       1.199   8.295  20.446  0.00  0.00    +0.000 A 
ATOM     20  C   UNL     1       1.170   9.347  19.554  0.00  0.00    +0.000 A 
ATOM     21 CL   UNL     1       1.723   9.413  17.921  0.00  0.00    +0.000 Cl
ATOM     22  S   UNL     1       0.456  10.752  20.190  0.00  0.00    +0.000 S 
ENDBRANCH   1  19
TORSDOF 2
ENDMDL
MODEL 4
REMARK VINA RESULT:      -7.3      4.390      7.645
REMARK  Name = 
REMARK  2 active torsions:
REMARK  status: ('A' for Active; 'I' for Inactive)
REMARK    1  A    between atoms: C_4  and  C_5
REMARK    2  A    between atoms: C_8  and  C_9
REMARK                            x       y       z     vdW  Elec       q    Type
REMARK                         _______ _______ _______ _____ _____    ______ ____
ROOT
ATOM      1  C   UNL     1       2.270   6.720  19.971  0.00  0.00    +0.000 A 
ATOM      2  C   UNL     1       1.822   5.438  20.190  0.00  0.00    +0.000 A 
ATOM      3  S   UNL     1       3.048   4.321  19.809  0.00  0.00    +0.000 S 
ATOM      4  C   UNL     1       4.033   5.602  19.188  0.00  0.00    +0.000 A 
ATOM      5  N   UNL     1       3.523   6.812  19.379  0.00  0.00    +0.000 NA
ENDROOT
BRANCH   4   6
ATOM      6  C   UNL     1       5.374   5.326  18.611  0.00  0.00    +0.000 A 
ATOM      7  C   UNL     1       6.489   5.443  19.471  0.00  0.00    +0.000 A 
ATOM      8  C   UNL     1       7.776   5.151  19.024  0.00  0.00    +0.000 A 
ATOM      9  C   UNL     1       7.966   4.737  17.714  0.00  0.00    +0.000 A 
ATOM     10  C   UNL     1       6.877   4.632  16.835  0.00  0.00    +0.000 A 
ATOM     11  C   UNL     1       7.076   4.209  15.512  0.00  0.00    +0.000 A 
ATOM     12  C   UNL     1       6.000   4.106  14.641  0.00  0.00    +0.000 A 
ATOM     13  C   UNL     1       4.760   4.453  15.119  0.00  0.00    +0.000 A 
ATOM     14  N   UNL     1       4.539   4.870  16.381  0.00  0.00    +0.000 NA
ATOM     15  C   UNL     1       5.564   4.946  17.265  0.00  0.00    +0.000 A 
ENDBRANCH   4   6
BRANCH   1  19
ATOM     16 CL   UNL     1      -0.426  10.112  23.004  0.00  0.00    +0.000 Cl
ATOM     17  C   UNL     1       0.355   9.415  21.643  0.00  0.00    +0.000 A 
ATOM     18  C   UNL     1       0.960   8.185  21.580  0.00  0.00    +0.000 A 
ATOM     19  C   UNL     1       1.532   7.954  20.285  0.00  0.00    +0.000 A 
ATOM     20  C   UNL     1       1.279   9.017  19.444  0.00  0.00    +0.000 A 
ATOM     21 CL   UNL     1       1.680   9.214  17.778  0.00  0.00    +0.000 Cl
ATOM     22  S   UNL     1       0.425  10.282  20.193  0.00  0.00    +0.000 S 
ENDBRANCH   1  19
TORSDOF 2
ENDMDL
MODEL 5
REMARK VINA RESULT:      -7.3      3.487      5.109
REMARK  Name = 
REMARK  2 active torsions:
REMARK  status: ('A' for Active; 'I' for Inactive)
REMARK    1  A    between atoms: C_4  and  C_5
REMARK    2  A    between atoms: C_8  and  C_9
REMARK                            x       y       z     vdW  Elec       q    Type
REMARK                         _______ _______ _______ _____ _____    ______ ____
ROOT
ATOM      1  C   UNL     1       3.932   5.760  18.633  0.00  0.00    +0.000 A 
ATOM      2  C   UNL     1       3.404   5.098  19.718  0.00  0.00    +0.000 A 
ATOM      3  S   UNL     1       2.065   5.954  20.326  0.00  0.00    +0.000 S 
ATOM      4  C   UNL     1       2.389   7.255  19.231  0.00  0.00    +0.000 A 
ATOM      5  N   UNL     1       3.366   7.000  18.369  0.00  0.00    +0.000 NA
ENDROOT
BRANCH   4   6
ATOM      6  C   UNL     1       1.542   8.475  19.218  0.00  0.00    +0.000 A 
ATOM      7  C   UNL     1       1.258   9.058  17.964  0.00  0.00    +0.000 A 
ATOM      8  C   UNL     1       0.428  10.172  17.859  0.00  0.00    +0.000 A 
ATOM      9  C   UNL     1      -0.129  10.718  19.006  0.00  0.00    +0.000 A 
ATOM     10  C   UNL     1       0.155  10.170  20.266  0.00  0.00    +0.000 A 
ATOM     11  C   UNL     1      -0.415  10.725  21.422  0.00  0.00    +0.000 A 
ATOM     12  C   UNL     1      -0.134  10.185  22.670  0.00  0.00    +0.000 A 
ATOM     13  C   UNL     1       0.728   9.117  22.720  0.00  0.00    +0.000 A 
ATOM     14  N   UNL     1       1.297   8.568  21.629  0.00  0.00    +0.000 NA
ATOM     15  C   UNL     1       1.013   9.051  20.395  0.00  0.00    +0.000 A 
ENDBRANCH   4   6
BRANCH   1  19
ATOM     16 CL   UNL     1       6.162   3.807  14.253  0.00  0.00    +0.000 Cl
ATOM     17  C   UNL     1       5.971   4.419  15.846  0.00  0.00    +0.000 A 
ATOM     18  C   UNL     1       4.796   4.778  16.455  0.00  0.00    +0.000 A 
ATOM     19  C   UNL     1       5.029   5.274  17.781  0.00  0.00    +0.000 A 
ATOM     20  C   UNL     1       6.370   5.213  18.095  0.00  0.00    +0.000 A 
ATOM     21 CL   UNL     1       7.169   5.617  19.569  0.00  0.00    +0.000 Cl
ATOM     22  S   UNL     1       7.335   4.628  16.823  0.00  0.00    +0.000 S 
ENDBRANCH   1  19
TORSDOF 2
ENDMDL
MODEL 6
REMARK VINA RESULT:      -7.2      5.434      7.647
REMARK  Name = 
REMARK  2 active torsions:
REMARK  status: ('A' for Active; 'I' for Inactive)
REMARK    1  A    between atoms: C_4  and  C_5
REMARK    2  A    between atoms: C_8  and  C_9
REMARK                            x       y       z     vdW  Elec       q    Type
REMARK                         _______ _______ _______ _____ _____    ______ ____
ROOT
ATOM      1  C   UNL     1       0.852   9.180  19.170  0.00  0.00    +0.000 A 
ATOM      2  C   UNL     1       1.003   8.706  20.453  0.00  0.00    +0.000 A 
ATOM      3  S   UNL     1       2.149   7.449  20.478  0.00  0.00    +0.000 S 
ATOM      4  C   UNL     1       2.231   7.478  18.749  0.00  0.00    +0.000 A 
ATOM      5  N   UNL     1       1.537   8.465  18.196  0.00  0.00    +0.000 NA
ENDROOT
BRANCH   4   6
ATOM      6  C   UNL     1       3.108   6.537  18.008  0.00  0.00    +0.000 A 
ATOM      7  C   UNL     1       4.252   7.073  17.377  0.00  0.00    +0.000 A 
ATOM      8  C   UNL     1       5.156   6.252  16.706  0.00  0.00    +0.000 A 
ATOM      9  C   UNL     1       4.929   4.884  16.658  0.00  0.00    +0.000 A 
ATOM     10  C   UNL     1       3.790   4.330  17.259  0.00  0.00    +0.000 A 
ATOM     11  C   UNL     1       3.568   2.945  17.210  0.00  0.00    +0.000 A 
ATOM     12  C   UNL     1       2.440   2.394  17.804  0.00  0.00    +0.000 A 
ATOM     13  C   UNL     1       1.558   3.255  18.410  0.00  0.00    +0.000 A 
ATOM     14  N   UNL     1       1.739   4.589  18.466  0.00  0.00    +0.000 NA
ATOM     15  C   UNL     1       2.848   5.151  17.927  0.00  0.00    +0.000 A 
ENDBRANCH   4   6
BRANCH   1  19
ATOM     16 CL   UNL     1      -3.365  11.652  17.152  0.00  0.00    +0.000 Cl
ATOM     17  C   UNL     1      -1.834  11.381  17.880  0.00  0.00    +0.000 A 
ATOM     18  C   UNL     1      -1.239  10.168  18.121  0.00  0.00    +0.000 A 
ATOM     19  C   UNL     1       0.029  10.332  18.771  0.00  0.00    +0.000 A 
ATOM     20  C   UNL     1       0.322  11.670  18.937  0.00  0.00    +0.000 A 
ATOM     21 CL   UNL     1       1.736  12.407  19.593  0.00  0.00    +0.000 Cl
ATOM     22  S   UNL     1      -0.907  12.704  18.379  0.00  0.00    +0.000 S 
ENDBRANCH   1  19
TORSDOF 2
ENDMDL
MODEL 7
REMARK VINA RESULT:      -7.1      4.868      6.835
REMARK  Name = 
REMARK  2 active torsions:
REMARK  status: ('A' for Active; 'I' for Inactive)
REMARK    1  A    between atoms: C_4  and  C_5
REMARK    2  A    between atoms: C_8  and  C_9
REMARK                            x       y       z     vdW  Elec       q    Type
REMARK                         _______ _______ _______ _____ _____    ______ ____
ROOT
ATOM      1  C   UNL     1       2.451   7.443  18.313  0.00  0.00    +0.000 A 
ATOM      2  C   UNL     1       2.533   8.556  17.509  0.00  0.00    +0.000 A 
ATOM      3  S   UNL     1       1.885   9.906  18.316  0.00  0.00    +0.000 S 
ATOM      4  C   UNL     1       1.355   8.887  19.612  0.00  0.00    +0.000 A 
ATOM      5  N   UNL     1       1.760   7.627  19.504  0.00  0.00    +0.000 NA
ENDROOT
BRANCH   4   6
ATOM      6  C   UNL     1       0.619   9.446  20.775  0.00  0.00    +0.000 A 
ATOM      7  C   UNL     1       0.911   8.910  22.048  0.00  0.00    +0.000 A 
ATOM      8  C   UNL     1       0.305   9.414  23.197  0.00  0.00    +0.000 A 
ATOM      9  C   UNL     1      -0.599  10.460  23.089  0.00  0.00    +0.000 A 
ATOM     10  C   UNL     1      -0.920  10.996  21.833  0.00  0.00    +0.000 A 
ATOM     11  C   UNL     1      -1.833  12.057  21.731  0.00  0.00    +0.000 A 
ATOM     12  C   UNL     1      -2.154  12.588  20.489  0.00  0.00    +0.000 A 
ATOM     13  C   UNL     1      -1.564  12.022  19.385  0.00  0.00    +0.000 A 
ATOM     14  N   UNL     1      -0.691  10.998  19.451  0.00  0.00    +0.000 NA
ATOM     15  C   UNL     1      -0.331  10.483  20.652  0.00  0.00    +0.000 A 
ENDBRANCH   4   6
BRANCH   1  19
ATOM     16 CL   UNL     1       2.371   2.194  17.671  0.00  0.00    +0.000 Cl
ATOM     17  C   UNL     1       2.931   3.816  17.730  0.00  0.00    +0.000 A 
ATOM     18  C   UNL     1       2.212   4.923  18.105  0.00  0.00    +0.000 A 
ATOM     19  C   UNL     1       3.003   6.115  18.001  0.00  0.00    +0.000 A 
ATOM     20  C   UNL     1       4.285   5.815  17.591  0.00  0.00    +0.000 A 
ATOM     21 CL   UNL     1       5.639   6.861  17.376  0.00  0.00    +0.000 Cl
ATOM     22  S   UNL     1       4.526   4.159  17.288  0.00  0.00    +0.000 S 
ENDBRANCH   1  19
TORSDOF 2
ENDMDL
MODEL 8
REMARK VINA RESULT:      -7.1      5.133      7.327
REMARK  Name = 
REMARK  2 active torsions:
REMARK  status: ('A' for Active; 'I' for Inactive)
REMARK    1  A    between atoms: C_4  and  C_5
REMARK    2  A    between atoms: C_8  and  C_9
REMARK                            x       y       z     vdW  Elec       q    Type
REMARK                         _______ _______ _______ _____ _____    ______ ____
ROOT
ATOM      1  C   UNL     1       2.549   7.486  18.726  0.00  0.00    +0.000 A 
ATOM      2  C   UNL     1       2.367   8.402  17.715  0.00  0.00    +0.000 A 
ATOM      3  S   UNL     1       1.480   9.734  18.290  0.00  0.00    +0.000 S 
ATOM      4  C   UNL     1       1.221   8.923  19.797  0.00  0.00    +0.000 A 
ATOM      5  N   UNL     1       1.877   7.773  19.907  0.00  0.00    +0.000 NA
ENDROOT
BRANCH   4   6
ATOM      6  C   UNL     1       0.426   9.554  20.881  0.00  0.00    +0.000 A 
ATOM      7  C   UNL     1       0.590   9.047  22.189  0.00  0.00    +0.000 A 
ATOM      8  C   UNL     1      -0.077   9.617  23.271  0.00  0.00    +0.000 A 
ATOM      9  C   UNL     1      -0.915  10.702  23.061  0.00  0.00    +0.000 A 
ATOM     10  C   UNL     1      -1.111  11.211  21.768  0.00  0.00    +0.000 A 
ATOM     11  C   UNL     1      -1.958  12.311  21.563  0.00  0.00    +0.000 A 
ATOM     12  C   UNL     1      -2.153  12.816  20.285  0.00  0.00    +0.000 A 
ATOM     13  C   UNL     1      -1.509  12.186  19.248  0.00  0.00    +0.000 A 
ATOM     14  N   UNL     1      -0.697  11.124  19.413  0.00  0.00    +0.000 NA
ATOM     15  C   UNL     1      -0.458  10.632  20.653  0.00  0.00    +0.000 A 
ENDBRANCH   4   6
BRANCH   1  19
ATOM     16 CL   UNL     1       6.680   4.492  17.335  0.00  0.00    +0.000 Cl
ATOM     17  C   UNL     1       5.179   4.977  18.012  0.00  0.00    +0.000 A 
ATOM     18  C   UNL     1       4.596   6.215  17.922  0.00  0.00    +0.000 A 
ATOM     19  C   UNL     1       3.354   6.258  18.639  0.00  0.00    +0.000 A 
ATOM     20  C   UNL     1       3.067   5.026  19.189  0.00  0.00    +0.000 A 
ATOM     21 CL   UNL     1       1.679   4.522  20.080  0.00  0.00    +0.000 Cl
ATOM     22  S   UNL     1       4.272   3.861  18.901  0.00  0.00    +0.000 S 
ENDBRANCH   1  19
TORSDOF 2
ENDMDL
MODEL 9
REMARK VINA RESULT:      -7.0      5.498      7.829
REMARK  Name = 
REMARK  2 active torsions:
REMARK  status: ('A' for Active; 'I' for Inactive)
REMARK    1  A    between atoms: C_4  and  C_5
REMARK    2  A    between atoms: C_8  and  C_9
REMARK                            x       y       z     vdW  Elec       q    Type
REMARK                         _______ _______ _______ _____ _____    ______ ____
ROOT
ATOM      1  C   UNL     1       2.236   7.511  19.069  0.00  0.00    +0.000 A 
ATOM      2  C   UNL     1       2.637   8.146  17.916  0.00  0.00    +0.000 A 
ATOM      3  S   UNL     1       2.036   9.737  17.890  0.00  0.00    +0.000 S 
ATOM      4  C   UNL     1       1.114   9.422  19.321  0.00  0.00    +0.000 A 
ATOM      5  N   UNL     1       1.350   8.232  19.859  0.00  0.00    +0.000 NA
ENDROOT
BRANCH   4   6
ATOM      6  C   UNL     1       0.243  10.467  19.917  0.00  0.00    +0.000 A 
ATOM      7  C   UNL     1       0.734  11.155  21.048  0.00  0.00    +0.000 A 
ATOM      8  C   UNL     1       0.004  12.185  21.637  0.00  0.00    +0.000 A 
ATOM      9  C   UNL     1      -1.225  12.543  21.101  0.00  0.00    +0.000 A 
ATOM     10  C   UNL     1      -1.743  11.862  19.990  0.00  0.00    +0.000 A 
ATOM     11  C   UNL     1      -2.985  12.231  19.451  0.00  0.00    +0.000 A 
ATOM     12  C   UNL     1      -3.500  11.557  18.352  0.00  0.00    +0.000 A 
ATOM     13  C   UNL     1      -2.761  10.517  17.841  0.00  0.00    +0.000 A 
ATOM     14  N   UNL     1      -1.570  10.134  18.342  0.00  0.00    +0.000 NA
ATOM     15  C   UNL     1      -1.026  10.797  19.391  0.00  0.00    +0.000 A 
ENDBRANCH   4   6
BRANCH   1  19
ATOM     16 CL   UNL     1       1.871   2.949  21.719  0.00  0.00    +0.000 Cl
ATOM     17  C   UNL     1       2.454   4.178  20.671  0.00  0.00    +0.000 A 
ATOM     18  C   UNL     1       1.899   5.416  20.464  0.00  0.00    +0.000 A 
ATOM     19  C   UNL     1       2.646   6.164  19.495  0.00  0.00    +0.000 A 
ATOM     20  C   UNL     1       3.744   5.447  19.068  0.00  0.00    +0.000 A 
ATOM     21 CL   UNL     1       4.994   5.909  17.973  0.00  0.00    +0.000 Cl
ATOM     22  S   UNL     1       3.854   3.901  19.766  0.00  0.00    +0.000 S 
ENDBRANCH   1  19
TORSDOF 2
ENDMDL
