MODEL 1
REMARK VINA RESULT:      -8.5      0.000      0.000
REMARK  Name = 
REMARK  7 active torsions:
REMARK  status: ('A' for Active; 'I' for Inactive)
REMARK    1  A    between atoms: C_1  and  C_2
REMARK    2  A    between atoms: C_2  and  N_3
REMARK    3  A    between atoms: C_4  and  C_6
REMARK    4  A    between atoms: C_8  and  N_9
REMARK    5  A    between atoms: N_17  and  C_18
REMARK    6  A    between atoms: C_30  and  O_31
REMARK    7  A    between atoms: C_32  and  O_33
REMARK                            x       y       z     vdW  Elec       q    Type
REMARK                         _______ _______ _______ _____ _____    ______ ____
ROOT
ATOM      1  N   UNL     1      -0.681  10.891  21.839  0.00  0.00    +0.000 N 
ATOM      2  C   UNL     1      -0.803  10.113  22.955  0.00  0.00    +0.000 A 
ATOM      3  N   UNL     1      -0.188   8.951  22.824  0.00  0.00    +0.000 NA
ATOM      4  C   UNL     1       0.395   8.999  21.581  0.00  0.00    +0.000 A 
ATOM      5  C   UNL     1       1.203   8.111  20.858  0.00  0.00    +0.000 A 
ATOM      6  N   UNL     1       1.523   6.844  21.363  0.00  0.00    +0.000 N 
ATOM      7  C   UNL     1       2.253   5.859  20.738  0.00  0.00    +0.000 C 
ATOM      8  O   UNL     1       2.307   4.733  21.226  0.00  0.00    +0.000 OA
ATOM      9  N   UNL     1       2.928   6.263  19.617  0.00  0.00    +0.000 N 
ATOM     10  N   UNL     1       1.678   8.500  19.648  0.00  0.00    +0.000 NA
ATOM     11  C   UNL     1       1.285   9.687  19.161  0.00  0.00    +0.000 A 
ATOM     12 CL   UNL     1       1.903  10.080  17.619  0.00  0.00    +0.000 Cl
ATOM     13  N   UNL     1       0.496  10.606  19.734  0.00  0.00    +0.000 NA
ATOM     14  C   UNL     1       0.101  10.197  20.953  0.00  0.00    +0.000 A 
ATOM     15  H   UNL     1       1.098   6.572  22.244  0.00  0.00    +0.000 HD
ATOM     16  H   UNL     1       3.056   7.267  19.554  0.00  0.00    +0.000 HD
ENDROOT
BRANCH   9  17
ATOM     17  C   UNL     1       3.676   5.475  18.742  0.00  0.00    +0.000 A 
ATOM     18  C   UNL     1       3.081   4.653  17.787  0.00  0.00    +0.000 A 
ATOM     19  C   UNL     1       3.882   3.945  16.887  0.00  0.00    +0.000 A 
ATOM     20  C   UNL     1       5.273   4.022  16.978  0.00  0.00    +0.000 A 
ATOM     21  C   UNL     1       5.859   4.836  17.943  0.00  0.00    +0.000 A 
ATOM     22 CL   UNL     1       7.572   4.898  18.094  0.00  0.00    +0.000 Cl
ATOM     23  C   UNL     1       5.066   5.593  18.800  0.00  0.00    +0.000 A 
ENDBRANCH   9  17
BRANCH   1  26
ATOM     24  C   UNL     1      -2.821  13.546  22.618  0.00  0.00    +0.000 C 
ATOM     25  O   UNL     1      -1.623  12.784  22.848  0.00  0.00    +0.000 OA
ATOM     26  C   UNL     1      -1.199  12.218  21.588  0.00  0.00    +0.000 C 
ATOM     27  C   UNL     1      -2.371  12.333  20.615  0.00  0.00    +0.000 C 
ATOM     28  C   UNL     1      -3.057  13.594  21.110  0.00  0.00    +0.000 C 
BRANCH  24  30
ATOM     29  N   UNL     1      -5.188  13.556  23.170  0.00  0.00    +0.000 N 
ATOM     30  C   UNL     1      -3.985  12.920  23.389  0.00  0.00    +0.000 C 
ATOM     31  O   UNL     1      -3.862  11.927  24.099  0.00  0.00    +0.000 OA
ATOM     32  H   UNL     1      -5.173  14.489  22.771  0.00  0.00    +0.000 HD
BRANCH  29  34
ATOM     33  C   UNL     1      -7.414  14.168  24.028  0.00  0.00    +0.000 C 
ATOM     34  C   UNL     1      -6.438  13.052  23.705  0.00  0.00    +0.000 C 
ENDBRANCH  29  34
ENDBRANCH  24  30
BRANCH  27  35
ATOM     35  O   UNL     1      -1.944  12.462  19.259  0.00  0.00    +0.000 OA
ATOM     36  H   UNL     1      -1.098  12.960  19.282  0.00  0.00    +0.000 HD
ENDBRANCH  27  35
BRANCH  28  37
ATOM     37  O   UNL     1      -2.420  14.728  20.489  0.00  0.00    +0.000 OA
ATOM     38  H   UNL     1      -3.016  15.499  20.513  0.00  0.00    +0.000 HD
ENDBRANCH  28  37
ENDBRANCH   1  26
TORSDOF 6
ENDMDL
MODEL 2
REMARK VINA RESULT:      -8.4      3.245     10.559
REMARK  Name = 
REMARK  7 active torsions:
REMARK  status: ('A' for Active; 'I' for Inactive)
REMARK    1  A    between atoms: C_1  and  C_2
REMARK    2  A    between atoms: C_2  and  N_3
REMARK    3  A    between atoms: C_4  and  C_6
REMARK    4  A    between atoms: C_8  and  N_9
REMARK    5  A    between atoms: N_17  and  C_18
REMARK    6  A    between atoms: C_30  and  O_31
REMARK    7  A    between atoms: C_32  and  O_33
REMARK                            x       y       z     vdW  Elec       q    Type
REMARK                         _______ _______ _______ _____ _____    ______ ____
ROOT
ATOM      1  N   UNL     1       2.516   7.188  19.094  0.00  0.00    +0.000 N 
ATOM      2  C   UNL     1       2.869   7.740  17.896  0.00  0.00    +0.000 A 
ATOM      3  N   UNL     1       2.282   8.906  17.690  0.00  0.00    +0.000 NA
ATOM      4  C   UNL     1       1.548   9.136  18.829  0.00  0.00    +0.000 A 
ATOM      5  C   UNL     1       0.732  10.194  19.253  0.00  0.00    +0.000 A 
ATOM      6  N   UNL     1       0.474  11.292  18.424  0.00  0.00    +0.000 N 
ATOM      7  C   UNL     1      -0.349  12.363  18.691  0.00  0.00    +0.000 C 
ATOM      8  O   UNL     1      -0.618  13.166  17.802  0.00  0.00    +0.000 OA
ATOM      9  N   UNL     1      -0.755  12.467  19.995  0.00  0.00    +0.000 N 
ATOM     10  N   UNL     1       0.188  10.137  20.496  0.00  0.00    +0.000 NA
ATOM     11  C   UNL     1       0.391   9.033  21.230  0.00  0.00    +0.000 A 
ATOM     12 CL   UNL     1      -0.358   9.035  22.765  0.00  0.00    +0.000 Cl
ATOM     13  N   UNL     1       1.118   7.950  20.928  0.00  0.00    +0.000 NA
ATOM     14  C   UNL     1       1.681   8.081  19.713  0.00  0.00    +0.000 A 
ATOM     15  H   UNL     1       0.852  11.265  17.482  0.00  0.00    +0.000 HD
ATOM     16  H   UNL     1      -0.181  11.946  20.648  0.00  0.00    +0.000 HD
ENDROOT
BRANCH   9  17
ATOM     17  C   UNL     1      -1.647  13.393  20.538  0.00  0.00    +0.000 A 
ATOM     18  C   UNL     1      -1.271  14.700  20.841  0.00  0.00    +0.000 A 
ATOM     19  C   UNL     1      -2.227  15.604  21.311  0.00  0.00    +0.000 A 
ATOM     20  C   UNL     1      -3.542  15.185  21.526  0.00  0.00    +0.000 A 
ATOM     21  C   UNL     1      -3.905  13.873  21.232  0.00  0.00    +0.000 A 
ATOM     22 CL   UNL     1      -5.510  13.334  21.540  0.00  0.00    +0.000 Cl
ATOM     23  C   UNL     1      -2.973  12.986  20.703  0.00  0.00    +0.000 A 
ENDBRANCH   9  17
BRANCH   1  26
ATOM     24  C   UNL     1       4.273   4.167  18.950  0.00  0.00    +0.000 C 
ATOM     25  O   UNL     1       4.230   5.592  19.137  0.00  0.00    +0.000 OA
ATOM     26  C   UNL     1       2.939   5.938  19.685  0.00  0.00    +0.000 C 
ATOM     27  C   UNL     1       2.021   4.732  19.494  0.00  0.00    +0.000 C 
ATOM     28  C   UNL     1       3.008   3.581  19.573  0.00  0.00    +0.000 C 
BRANCH  24  30
ATOM     29  N   UNL     1       5.685   4.069  16.975  0.00  0.00    +0.000 N 
ATOM     30  C   UNL     1       4.415   3.847  17.460  0.00  0.00    +0.000 C 
ATOM     31  O   UNL     1       3.496   3.400  16.780  0.00  0.00    +0.000 OA
ATOM     32  H   UNL     1       6.315   4.648  17.520  0.00  0.00    +0.000 HD
BRANCH  29  34
ATOM     33  C   UNL     1       6.865   4.815  14.946  0.00  0.00    +0.000 C 
ATOM     34  C   UNL     1       6.068   3.715  15.621  0.00  0.00    +0.000 C 
ENDBRANCH  29  34
ENDBRANCH  24  30
BRANCH  27  35
ATOM     35  O   UNL     1       1.022   4.641  20.508  0.00  0.00    +0.000 OA
ATOM     36  H   UNL     1       1.058   5.485  21.009  0.00  0.00    +0.000 HD
ENDBRANCH  27  35
BRANCH  28  37
ATOM     37  O   UNL     1       3.186   3.234  20.960  0.00  0.00    +0.000 OA
ATOM     38  H   UNL     1       2.696   3.859  21.525  0.00  0.00    +0.000 HD
ENDBRANCH  28  37
ENDBRANCH   1  26
TORSDOF 6
ENDMDL
MODEL 3
REMARK VINA RESULT:      -8.3      3.246     10.509
REMARK  Name = 
REMARK  7 active torsions:
REMARK  status: ('A' for Active; 'I' for Inactive)
REMARK    1  A    between atoms: C_1  and  C_2
REMARK    2  A    between atoms: C_2  and  N_3
REMARK    3  A    between atoms: C_4  and  C_6
REMARK    4  A    between atoms: C_8  and  N_9
REMARK    5  A    between atoms: N_17  and  C_18
REMARK    6  A    between atoms: C_30  and  O_31
REMARK    7  A    between atoms: C_32  and  O_33
REMARK                            x       y       z     vdW  Elec       q    Type
REMARK                         _______ _______ _______ _____ _____    ______ ____
ROOT
ATOM      1  N   UNL     1       2.527   7.207  19.086  0.00  0.00    +0.000 N 
ATOM      2  C   UNL     1       2.850   7.753  17.877  0.00  0.00    +0.000 A 
ATOM      3  N   UNL     1       2.263   8.922  17.684  0.00  0.00    +0.000 NA
ATOM      4  C   UNL     1       1.562   9.159  18.842  0.00  0.00    +0.000 A 
ATOM      5  C   UNL     1       0.763  10.222  19.286  0.00  0.00    +0.000 A 
ATOM      6  N   UNL     1       0.488  11.319  18.460  0.00  0.00    +0.000 N 
ATOM      7  C   UNL     1      -0.321  12.395  18.747  0.00  0.00    +0.000 C 
ATOM      8  O   UNL     1      -0.611  13.197  17.864  0.00  0.00    +0.000 OA
ATOM      9  N   UNL     1      -0.692  12.505  20.061  0.00  0.00    +0.000 N 
ATOM     10  N   UNL     1       0.253  10.171  20.543  0.00  0.00    +0.000 NA
ATOM     11  C   UNL     1       0.471   9.068  21.274  0.00  0.00    +0.000 A 
ATOM     12 CL   UNL     1      -0.236   9.078  22.829  0.00  0.00    +0.000 Cl
ATOM     13  N   UNL     1       1.183   7.980  20.955  0.00  0.00    +0.000 NA
ATOM     14  C   UNL     1       1.713   8.106  19.725  0.00  0.00    +0.000 A 
ATOM     15  H   UNL     1       0.840  11.287  17.509  0.00  0.00    +0.000 HD
ATOM     16  H   UNL     1      -0.102  11.982  20.700  0.00  0.00    +0.000 HD
ENDROOT
BRANCH   9  17
ATOM     17  C   UNL     1      -1.563  13.436  20.626  0.00  0.00    +0.000 A 
ATOM     18  C   UNL     1      -2.948  13.280  20.586  0.00  0.00    +0.000 A 
ATOM     19  C   UNL     1      -3.768  14.206  21.235  0.00  0.00    +0.000 A 
ATOM     20  C   UNL     1      -3.205  15.311  21.878  0.00  0.00    +0.000 A 
ATOM     21  C   UNL     1      -1.821  15.465  21.902  0.00  0.00    +0.000 A 
ATOM     22 CL   UNL     1      -1.122  16.849  22.648  0.00  0.00    +0.000 Cl
ATOM     23  C   UNL     1      -0.997  14.512  21.312  0.00  0.00    +0.000 A 
ENDBRANCH   9  17
BRANCH   1  26
ATOM     24  C   UNL     1       4.294   4.192  18.916  0.00  0.00    +0.000 C 
ATOM     25  O   UNL     1       4.247   5.617  19.108  0.00  0.00    +0.000 OA
ATOM     26  C   UNL     1       2.960   5.956  19.669  0.00  0.00    +0.000 C 
ATOM     27  C   UNL     1       2.044   4.747  19.481  0.00  0.00    +0.000 C 
ATOM     28  C   UNL     1       3.036   3.599  19.548  0.00  0.00    +0.000 C 
BRANCH  24  30
ATOM     29  N   UNL     1       5.702   4.054  16.940  0.00  0.00    +0.000 N 
ATOM     30  C   UNL     1       4.423   3.878  17.424  0.00  0.00    +0.000 C 
ATOM     31  O   UNL     1       3.489   3.472  16.740  0.00  0.00    +0.000 OA
ATOM     32  H   UNL     1       6.353   4.605  17.490  0.00  0.00    +0.000 HD
BRANCH  29  34
ATOM     33  C   UNL     1       6.801   4.820  14.873  0.00  0.00    +0.000 C 
ATOM     34  C   UNL     1       6.071   3.696  15.584  0.00  0.00    +0.000 C 
ENDBRANCH  29  34
ENDBRANCH  24  30
BRANCH  27  35
ATOM     35  O   UNL     1       1.054   4.649  20.504  0.00  0.00    +0.000 OA
ATOM     36  H   UNL     1       0.731   3.722  20.488  0.00  0.00    +0.000 HD
ENDBRANCH  27  35
BRANCH  28  37
ATOM     37  O   UNL     1       3.228   3.248  20.931  0.00  0.00    +0.000 OA
ATOM     38  H   UNL     1       4.091   2.809  21.047  0.00  0.00    +0.000 HD
ENDBRANCH  28  37
ENDBRANCH   1  26
TORSDOF 6
ENDMDL
MODEL 4
REMARK VINA RESULT:      -8.3      3.186     10.602
REMARK  Name = 
REMARK  7 active torsions:
REMARK  status: ('A' for Active; 'I' for Inactive)
REMARK    1  A    between atoms: C_1  and  C_2
REMARK    2  A    between atoms: C_2  and  N_3
REMARK    3  A    between atoms: C_4  and  C_6
REMARK    4  A    between atoms: C_8  and  N_9
REMARK    5  A    between atoms: N_17  and  C_18
REMARK    6  A    between atoms: C_30  and  O_31
REMARK    7  A    between atoms: C_32  and  O_33
REMARK                            x       y       z     vdW  Elec       q    Type
REMARK                         _______ _______ _______ _____ _____    ______ ____
ROOT
ATOM      1  N   UNL     1       2.634   7.164  18.802  0.00  0.00    +0.000 N 
ATOM      2  C   UNL     1       2.888   7.749  17.595  0.00  0.00    +0.000 A 
ATOM      3  N   UNL     1       2.281   8.916  17.468  0.00  0.00    +0.000 NA
ATOM      4  C   UNL     1       1.640   9.112  18.667  0.00  0.00    +0.000 A 
ATOM      5  C   UNL     1       0.855  10.153  19.184  0.00  0.00    +0.000 A 
ATOM      6  N   UNL     1       0.527  11.270  18.407  0.00  0.00    +0.000 N 
ATOM      7  C   UNL     1      -0.276  12.328  18.767  0.00  0.00    +0.000 C 
ATOM      8  O   UNL     1      -0.620  13.153  17.925  0.00  0.00    +0.000 OA
ATOM      9  N   UNL     1      -0.577  12.396  20.102  0.00  0.00    +0.000 N 
ATOM     10  N   UNL     1       0.414  10.060  20.464  0.00  0.00    +0.000 NA
ATOM     11  C   UNL     1       0.680   8.939  21.150  0.00  0.00    +0.000 A 
ATOM     12 CL   UNL     1       0.057   8.896  22.740  0.00  0.00    +0.000 Cl
ATOM     13  N   UNL     1       1.385   7.868  20.762  0.00  0.00    +0.000 NA
ATOM     14  C   UNL     1       1.848   8.035  19.510  0.00  0.00    +0.000 A 
ATOM     15  H   UNL     1       0.829  11.270  17.437  0.00  0.00    +0.000 HD
ATOM     16  H   UNL     1       0.050  11.862  20.693  0.00  0.00    +0.000 HD
ENDROOT
BRANCH   9  17
ATOM     17  C   UNL     1      -1.426  13.302  20.739  0.00  0.00    +0.000 A 
ATOM     18  C   UNL     1      -1.026  14.596  21.064  0.00  0.00    +0.000 A 
ATOM     19  C   UNL     1      -1.944  15.483  21.632  0.00  0.00    +0.000 A 
ATOM     20  C   UNL     1      -3.242  15.057  21.920  0.00  0.00    +0.000 A 
ATOM     21  C   UNL     1      -3.630  13.758  21.603  0.00  0.00    +0.000 A 
ATOM     22 CL   UNL     1      -5.212  13.210  22.001  0.00  0.00    +0.000 Cl
ATOM     23  C   UNL     1      -2.739  12.890  20.979  0.00  0.00    +0.000 A 
ENDBRANCH   9  17
BRANCH   1  26
ATOM     24  C   UNL     1       5.111   4.714  19.123  0.00  0.00    +0.000 C 
ATOM     25  O   UNL     1       4.543   5.987  19.480  0.00  0.00    +0.000 OA
ATOM     26  C   UNL     1       3.109   5.901  19.324  0.00  0.00    +0.000 C 
ATOM     27  C   UNL     1       2.810   4.651  18.499  0.00  0.00    +0.000 C 
ATOM     28  C   UNL     1       3.957   3.739  18.899  0.00  0.00    +0.000 C 
BRANCH  24  30
ATOM     29  N   UNL     1       5.828   3.887  16.953  0.00  0.00    +0.000 N 
ATOM     30  C   UNL     1       6.009   4.878  17.895  0.00  0.00    +0.000 C 
ATOM     31  O   UNL     1       6.782   5.820  17.750  0.00  0.00    +0.000 OA
ATOM     32  H   UNL     1       5.359   3.033  17.237  0.00  0.00    +0.000 HD
BRANCH  29  34
ATOM     33  C   UNL     1       5.556   4.369  14.554  0.00  0.00    +0.000 C 
ATOM     34  C   UNL     1       6.488   3.918  15.663  0.00  0.00    +0.000 C 
ENDBRANCH  29  34
ENDBRANCH  24  30
BRANCH  27  35
ATOM     35  O   UNL     1       1.544   4.076  18.819  0.00  0.00    +0.000 OA
ATOM     36  H   UNL     1       1.468   3.257  18.283  0.00  0.00    +0.000 HD
ENDBRANCH  27  35
BRANCH  28  37
ATOM     37  O   UNL     1       3.582   3.043  20.103  0.00  0.00    +0.000 OA
ATOM     38  H   UNL     1       3.137   2.205  19.878  0.00  0.00    +0.000 HD
ENDBRANCH  28  37
ENDBRANCH   1  26
TORSDOF 6
ENDMDL
MODEL 5
REMARK VINA RESULT:      -8.1      3.192     10.561
REMARK  Name = 
REMARK  7 active torsions:
REMARK  status: ('A' for Active; 'I' for Inactive)
REMARK    1  A    between atoms: C_1  and  C_2
REMARK    2  A    between atoms: C_2  and  N_3
REMARK    3  A    between atoms: C_4  and  C_6
REMARK    4  A    between atoms: C_8  and  N_9
REMARK    5  A    between atoms: N_17  and  C_18
REMARK    6  A    between atoms: C_30  and  O_31
REMARK    7  A    between atoms: C_32  and  O_33
REMARK                            x       y       z     vdW  Elec       q    Type
REMARK                         _______ _______ _______ _____ _____    ______ ____
ROOT
ATOM      1  N   UNL     1       2.675   7.136  18.767  0.00  0.00    +0.000 N 
ATOM      2  C   UNL     1       2.939   7.750  17.577  0.00  0.00    +0.000 A 
ATOM      3  N   UNL     1       2.290   8.895  17.450  0.00  0.00    +0.000 NA
ATOM      4  C   UNL     1       1.607   9.045  18.632  0.00  0.00    +0.000 A 
ATOM      5  C   UNL     1       0.766  10.045  19.142  0.00  0.00    +0.000 A 
ATOM      6  N   UNL     1       0.416  11.161  18.373  0.00  0.00    +0.000 N 
ATOM      7  C   UNL     1      -0.439  12.180  18.726  0.00  0.00    +0.000 C 
ATOM      8  O   UNL     1      -0.791  13.004  17.886  0.00  0.00    +0.000 OA
ATOM      9  N   UNL     1      -0.781  12.214  20.052  0.00  0.00    +0.000 N 
ATOM     10  N   UNL     1       0.292   9.913  20.406  0.00  0.00    +0.000 NA
ATOM     11  C   UNL     1       0.583   8.792  21.083  0.00  0.00    +0.000 A 
ATOM     12 CL   UNL     1      -0.084   8.698  22.653  0.00  0.00    +0.000 Cl
ATOM     13  N   UNL     1       1.341   7.757  20.699  0.00  0.00    +0.000 NA
ATOM     14  C   UNL     1       1.833   7.963  19.465  0.00  0.00    +0.000 A 
ATOM     15  H   UNL     1       0.746  11.189  17.413  0.00  0.00    +0.000 HD
ATOM     16  H   UNL     1      -0.151  11.695  20.652  0.00  0.00    +0.000 HD
ENDROOT
BRANCH   9  17
ATOM     17  C   UNL     1      -1.685  13.074  20.677  0.00  0.00    +0.000 A 
ATOM     18  C   UNL     1      -3.060  12.988  20.470  0.00  0.00    +0.000 A 
ATOM     19  C   UNL     1      -3.921  13.825  21.183  0.00  0.00    +0.000 A 
ATOM     20  C   UNL     1      -3.403  14.780  22.060  0.00  0.00    +0.000 A 
ATOM     21  C   UNL     1      -2.026  14.866  22.252  0.00  0.00    +0.000 A 
ATOM     22 CL   UNL     1      -1.376  16.072  23.293  0.00  0.00    +0.000 Cl
ATOM     23  C   UNL     1      -1.168  13.992  21.593  0.00  0.00    +0.000 A 
ENDBRANCH   9  17
BRANCH   1  26
ATOM     24  C   UNL     1       5.213   4.746  19.063  0.00  0.00    +0.000 C 
ATOM     25  O   UNL     1       4.617   6.004  19.426  0.00  0.00    +0.000 OA
ATOM     26  C   UNL     1       3.185   5.885  19.283  0.00  0.00    +0.000 C 
ATOM     27  C   UNL     1       2.908   4.628  18.460  0.00  0.00    +0.000 C 
ATOM     28  C   UNL     1       4.080   3.744  18.848  0.00  0.00    +0.000 C 
BRANCH  24  30
ATOM     29  N   UNL     1       5.909   3.953  16.873  0.00  0.00    +0.000 N 
ATOM     30  C   UNL     1       6.095   4.932  17.826  0.00  0.00    +0.000 C 
ATOM     31  O   UNL     1       6.859   5.881  17.684  0.00  0.00    +0.000 OA
ATOM     32  H   UNL     1       5.449   3.092  17.151  0.00  0.00    +0.000 HD
BRANCH  29  34
ATOM     33  C   UNL     1       5.585   4.381  14.470  0.00  0.00    +0.000 C 
ATOM     34  C   UNL     1       6.553   4.006  15.575  0.00  0.00    +0.000 C 
ENDBRANCH  29  34
ENDBRANCH  24  30
BRANCH  27  35
ATOM     35  O   UNL     1       1.659   4.023  18.791  0.00  0.00    +0.000 OA
ATOM     36  H   UNL     1       0.985   4.451  18.219  0.00  0.00    +0.000 HD
ENDBRANCH  27  35
BRANCH  28  37
ATOM     37  O   UNL     1       3.733   3.038  20.055  0.00  0.00    +0.000 OA
ATOM     38  H   UNL     1       4.519   2.587  20.415  0.00  0.00    +0.000 HD
ENDBRANCH  28  37
ENDBRANCH   1  26
TORSDOF 6
ENDMDL
MODEL 6
REMARK VINA RESULT:      -8.1      3.214     10.432
REMARK  Name = 
REMARK  7 active torsions:
REMARK  status: ('A' for Active; 'I' for Inactive)
REMARK    1  A    between atoms: C_1  and  C_2
REMARK    2  A    between atoms: C_2  and  N_3
REMARK    3  A    between atoms: C_4  and  C_6
REMARK    4  A    between atoms: C_8  and  N_9
REMARK    5  A    between atoms: N_17  and  C_18
REMARK    6  A    between atoms: C_30  and  O_31
REMARK    7  A    between atoms: C_32  and  O_33
REMARK                            x       y       z     vdW  Elec       q    Type
REMARK                         _______ _______ _______ _____ _____    ______ ____
ROOT
ATOM      1  N   UNL     1       2.603   7.139  18.705  0.00  0.00    +0.000 N 
ATOM      2  C   UNL     1       2.881   7.747  17.515  0.00  0.00    +0.000 A 
ATOM      3  N   UNL     1       2.315   8.938  17.418  0.00  0.00    +0.000 NA
ATOM      4  C   UNL     1       1.678   9.124  18.621  0.00  0.00    +0.000 A 
ATOM      5  C   UNL     1       0.929  10.177  19.164  0.00  0.00    +0.000 A 
ATOM      6  N   UNL     1       0.643  11.326  18.417  0.00  0.00    +0.000 N 
ATOM      7  C   UNL     1      -0.124  12.402  18.804  0.00  0.00    +0.000 C 
ATOM      8  O   UNL     1      -0.436  13.260  17.984  0.00  0.00    +0.000 OA
ATOM      9  N   UNL     1      -0.426  12.444  20.140  0.00  0.00    +0.000 N 
ATOM     10  N   UNL     1       0.481  10.065  20.440  0.00  0.00    +0.000 NA
ATOM     11  C   UNL     1       0.705   8.918  21.097  0.00  0.00    +0.000 A 
ATOM     12 CL   UNL     1       0.076   8.854  22.683  0.00  0.00    +0.000 Cl
ATOM     13  N   UNL     1       1.373   7.834  20.681  0.00  0.00    +0.000 NA
ATOM     14  C   UNL     1       1.846   8.018  19.435  0.00  0.00    +0.000 A 
ATOM     15  H   UNL     1       0.947  11.341  17.448  0.00  0.00    +0.000 HD
ATOM     16  H   UNL     1       0.180  11.872  20.717  0.00  0.00    +0.000 HD
ENDROOT
BRANCH   9  17
ATOM     17  C   UNL     1      -1.245  13.361  20.799  0.00  0.00    +0.000 A 
ATOM     18  C   UNL     1      -0.792  14.620  21.187  0.00  0.00    +0.000 A 
ATOM     19  C   UNL     1      -1.679  15.525  21.776  0.00  0.00    +0.000 A 
ATOM     20  C   UNL     1      -3.001  15.149  22.021  0.00  0.00    +0.000 A 
ATOM     21  C   UNL     1      -3.443  13.885  21.641  0.00  0.00    +0.000 A 
ATOM     22 CL   UNL     1      -5.057  13.396  21.984  0.00  0.00    +0.000 Cl
ATOM     23  C   UNL     1      -2.581  13.003  20.997  0.00  0.00    +0.000 A 
ENDBRANCH   9  17
BRANCH   1  26
ATOM     24  C   UNL     1       5.103   4.776  19.343  0.00  0.00    +0.000 C 
ATOM     25  O   UNL     1       4.386   5.975  19.684  0.00  0.00    +0.000 OA
ATOM     26  C   UNL     1       3.033   5.847  19.194  0.00  0.00    +0.000 C 
ATOM     27  C   UNL     1       3.011   4.686  18.202  0.00  0.00    +0.000 C 
ATOM     28  C   UNL     1       4.097   3.784  18.762  0.00  0.00    +0.000 C 
BRANCH  24  30
ATOM     29  N   UNL     1       6.257   6.440  17.998  0.00  0.00    +0.000 N 
ATOM     30  C   UNL     1       6.241   5.114  18.377  0.00  0.00    +0.000 C 
ATOM     31  O   UNL     1       7.077   4.294  18.012  0.00  0.00    +0.000 OA
ATOM     32  H   UNL     1       5.419   6.992  18.146  0.00  0.00    +0.000 HD
BRANCH  29  34
ATOM     33  C   UNL     1       7.843   8.307  17.750  0.00  0.00    +0.000 C 
ATOM     34  C   UNL     1       7.321   6.999  17.187  0.00  0.00    +0.000 C 
ENDBRANCH  29  34
ENDBRANCH  24  30
BRANCH  27  35
ATOM     35  O   UNL     1       1.746   4.026  18.162  0.00  0.00    +0.000 OA
ATOM     36  H   UNL     1       1.928   3.095  17.906  0.00  0.00    +0.000 HD
ENDBRANCH  27  35
BRANCH  28  37
ATOM     37  O   UNL     1       3.508   2.942  19.771  0.00  0.00    +0.000 OA
ATOM     38  H   UNL     1       4.097   2.188  19.960  0.00  0.00    +0.000 HD
ENDBRANCH  28  37
ENDBRANCH   1  26
TORSDOF 6
ENDMDL
MODEL 7
REMARK VINA RESULT:      -8.1      2.217      3.169
REMARK  Name = 
REMARK  7 active torsions:
REMARK  status: ('A' for Active; 'I' for Inactive)
REMARK    1  A    between atoms: C_1  and  C_2
REMARK    2  A    between atoms: C_2  and  N_3
REMARK    3  A    between atoms: C_4  and  C_6
REMARK    4  A    between atoms: C_8  and  N_9
REMARK    5  A    between atoms: N_17  and  C_18
REMARK    6  A    between atoms: C_30  and  O_31
REMARK    7  A    between atoms: C_32  and  O_33
REMARK                            x       y       z     vdW  Elec       q    Type
REMARK                         _______ _______ _______ _____ _____    ______ ____
ROOT
ATOM      1  N   UNL     1      -0.437  10.815  22.018  0.00  0.00    +0.000 N 
ATOM      2  C   UNL     1      -0.522  10.045  23.142  0.00  0.00    +0.000 A 
ATOM      3  N   UNL     1       0.054   8.866  22.985  0.00  0.00    +0.000 NA
ATOM      4  C   UNL     1       0.573   8.894  21.714  0.00  0.00    +0.000 A 
ATOM      5  C   UNL     1       1.318   7.981  20.954  0.00  0.00    +0.000 A 
ATOM      6  N   UNL     1       1.629   6.709  21.448  0.00  0.00    +0.000 N 
ATOM      7  C   UNL     1       2.299   5.701  20.791  0.00  0.00    +0.000 C 
ATOM      8  O   UNL     1       2.348   4.576  21.280  0.00  0.00    +0.000 OA
ATOM      9  N   UNL     1       2.926   6.083  19.634  0.00  0.00    +0.000 N 
ATOM     10  N   UNL     1       1.739   8.354  19.719  0.00  0.00    +0.000 NA
ATOM     11  C   UNL     1       1.354   9.549  19.248  0.00  0.00    +0.000 A 
ATOM     12 CL   UNL     1       1.902   9.920  17.673  0.00  0.00    +0.000 Cl
ATOM     13  N   UNL     1       0.621  10.491  19.856  0.00  0.00    +0.000 NA
ATOM     14  C   UNL     1       0.279  10.097  21.096  0.00  0.00    +0.000 A 
ATOM     15  H   UNL     1       1.244   6.451  22.351  0.00  0.00    +0.000 HD
ATOM     16  H   UNL     1       3.078   7.083  19.560  0.00  0.00    +0.000 HD
ENDROOT
BRANCH   9  17
ATOM     17  C   UNL     1       3.606   5.272  18.725  0.00  0.00    +0.000 A 
ATOM     18  C   UNL     1       2.940   4.440  17.827  0.00  0.00    +0.000 A 
ATOM     19  C   UNL     1       3.672   3.708  16.889  0.00  0.00    +0.000 A 
ATOM     20  C   UNL     1       5.067   3.771  16.885  0.00  0.00    +0.000 A 
ATOM     21  C   UNL     1       5.724   4.596  17.794  0.00  0.00    +0.000 A 
ATOM     22 CL   UNL     1       7.444   4.641  17.829  0.00  0.00    +0.000 Cl
ATOM     23  C   UNL     1       4.998   5.376  18.689  0.00  0.00    +0.000 A 
ENDBRANCH   9  17
BRANCH   1  26
ATOM     24  C   UNL     1      -1.901  13.232  19.955  0.00  0.00    +0.000 C 
ATOM     25  O   UNL     1      -1.997  12.082  20.815  0.00  0.00    +0.000 OA
ATOM     26  C   UNL     1      -0.932  12.155  21.788  0.00  0.00    +0.000 C 
ATOM     27  C   UNL     1       0.075  13.192  21.291  0.00  0.00    +0.000 C 
ATOM     28  C   UNL     1      -0.824  14.150  20.531  0.00  0.00    +0.000 C 
BRANCH  24  30
ATOM     29  N   UNL     1      -2.509  11.856  18.046  0.00  0.00    +0.000 N 
ATOM     30  C   UNL     1      -1.604  12.780  18.523  0.00  0.00    +0.000 C 
ATOM     31  O   UNL     1      -0.677  13.229  17.858  0.00  0.00    +0.000 OA
ATOM     32  H   UNL     1      -3.094  11.366  18.715  0.00  0.00    +0.000 HD
BRANCH  29  34
ATOM     33  C   UNL     1      -2.406   9.877  16.585  0.00  0.00    +0.000 C 
ATOM     34  C   UNL     1      -2.485  11.389  16.674  0.00  0.00    +0.000 C 
ENDBRANCH  29  34
ENDBRANCH  24  30
BRANCH  27  35
ATOM     35  O   UNL     1       0.757  13.845  22.360  0.00  0.00    +0.000 OA
ATOM     36  H   UNL     1       0.301  14.704  22.496  0.00  0.00    +0.000 HD
ENDBRANCH  27  35
BRANCH  28  37
ATOM     37  O   UNL     1      -1.359  15.107  21.466  0.00  0.00    +0.000 OA
ATOM     38  H   UNL     1      -1.813  15.824  20.987  0.00  0.00    +0.000 HD
ENDBRANCH  28  37
ENDBRANCH   1  26
TORSDOF 6
ENDMDL
MODEL 8
REMARK VINA RESULT:      -8.0      1.027      1.191
REMARK  Name = 
REMARK  7 active torsions:
REMARK  status: ('A' for Active; 'I' for Inactive)
REMARK    1  A    between atoms: C_1  and  C_2
REMARK    2  A    between atoms: C_2  and  N_3
REMARK    3  A    between atoms: C_4  and  C_6
REMARK    4  A    between atoms: C_8  and  N_9
REMARK    5  A    between atoms: N_17  and  C_18
REMARK    6  A    between atoms: C_30  and  O_31
REMARK    7  A    between atoms: C_32  and  O_33
REMARK                            x       y       z     vdW  Elec       q    Type
REMARK                         _______ _______ _______ _____ _____    ______ ____
ROOT
ATOM      1  N   UNL     1      -0.851  11.107  21.927  0.00  0.00    +0.000 N 
ATOM      2  C   UNL     1      -0.904  10.325  23.044  0.00  0.00    +0.000 A 
ATOM      3  N   UNL     1      -0.284   9.169  22.875  0.00  0.00    +0.000 NA
ATOM      4  C   UNL     1       0.229   9.229  21.602  0.00  0.00    +0.000 A 
ATOM      5  C   UNL     1       1.005   8.351  20.832  0.00  0.00    +0.000 A 
ATOM      6  N   UNL     1       1.366   7.087  21.314  0.00  0.00    +0.000 N 
ATOM      7  C   UNL     1       2.071   6.111  20.646  0.00  0.00    +0.000 C 
ATOM      8  O   UNL     1       2.165   4.985  21.125  0.00  0.00    +0.000 OA
ATOM      9  N   UNL     1       2.679   6.527  19.490  0.00  0.00    +0.000 N 
ATOM     10  N   UNL     1       1.408   8.750  19.599  0.00  0.00    +0.000 NA
ATOM     11  C   UNL     1       0.976   9.934  19.140  0.00  0.00    +0.000 A 
ATOM     12 CL   UNL     1       1.504  10.339  17.567  0.00  0.00    +0.000 Cl
ATOM     13  N   UNL     1       0.210  10.842  19.759  0.00  0.00    +0.000 NA
ATOM     14  C   UNL     1      -0.112  10.425  20.996  0.00  0.00    +0.000 A 
ATOM     15  H   UNL     1       0.994   6.807  22.216  0.00  0.00    +0.000 HD
ATOM     16  H   UNL     1       2.793   7.532  19.424  0.00  0.00    +0.000 HD
ENDROOT
BRANCH   9  17
ATOM     17  C   UNL     1       3.386   5.750  18.572  0.00  0.00    +0.000 A 
ATOM     18  C   UNL     1       4.298   6.303  17.675  0.00  0.00    +0.000 A 
ATOM     19  C   UNL     1       5.033   5.466  16.831  0.00  0.00    +0.000 A 
ATOM     20  C   UNL     1       4.817   4.087  16.851  0.00  0.00    +0.000 A 
ATOM     21  C   UNL     1       3.894   3.545  17.742  0.00  0.00    +0.000 A 
ATOM     22 CL   UNL     1       3.585   1.852  17.738  0.00  0.00    +0.000 Cl
ATOM     23  C   UNL     1       3.206   4.366  18.629  0.00  0.00    +0.000 A 
ENDBRANCH   9  17
BRANCH   1  26
ATOM     24  C   UNL     1      -3.062  13.688  22.759  0.00  0.00    +0.000 C 
ATOM     25  O   UNL     1      -1.850  12.946  22.980  0.00  0.00    +0.000 OA
ATOM     26  C   UNL     1      -1.398  12.429  21.710  0.00  0.00    +0.000 C 
ATOM     27  C   UNL     1      -2.560  12.548  20.725  0.00  0.00    +0.000 C 
ATOM     28  C   UNL     1      -3.280  13.777  21.250  0.00  0.00    +0.000 C 
BRANCH  24  30
ATOM     29  N   UNL     1      -5.444  13.588  23.231  0.00  0.00    +0.000 N 
ATOM     30  C   UNL     1      -4.221  13.011  23.496  0.00  0.00    +0.000 C 
ATOM     31  O   UNL     1      -4.074  12.030  24.217  0.00  0.00    +0.000 OA
ATOM     32  H   UNL     1      -5.460  14.518  22.825  0.00  0.00    +0.000 HD
BRANCH  29  34
ATOM     33  C   UNL     1      -7.668  14.102  24.155  0.00  0.00    +0.000 C 
ATOM     34  C   UNL     1      -6.686  13.028  23.727  0.00  0.00    +0.000 C 
ENDBRANCH  29  34
ENDBRANCH  24  30
BRANCH  27  35
ATOM     35  O   UNL     1      -2.119  12.729  19.380  0.00  0.00    +0.000 OA
ATOM     36  H   UNL     1      -2.865  13.150  18.899  0.00  0.00    +0.000 HD
ENDBRANCH  27  35
BRANCH  28  37
ATOM     37  O   UNL     1      -2.663  14.943  20.672  0.00  0.00    +0.000 OA
ATOM     38  H   UNL     1      -2.992  15.748  21.114  0.00  0.00    +0.000 HD
ENDBRANCH  28  37
ENDBRANCH   1  26
TORSDOF 6
ENDMDL
MODEL 9
REMARK VINA RESULT:      -8.0      3.266     10.347
REMARK  Name = 
REMARK  7 active torsions:
REMARK  status: ('A' for Active; 'I' for Inactive)
REMARK    1  A    between atoms: C_1  and  C_2
REMARK    2  A    between atoms: C_2  and  N_3
REMARK    3  A    between atoms: C_4  and  C_6
REMARK    4  A    between atoms: C_8  and  N_9
REMARK    5  A    between atoms: N_17  and  C_18
REMARK    6  A    between atoms: C_30  and  O_31
REMARK    7  A    between atoms: C_32  and  O_33
REMARK                            x       y       z     vdW  Elec       q    Type
REMARK                         _______ _______ _______ _____ _____    ______ ____
ROOT
ATOM      1  N   UNL     1       2.526   7.115  18.709  0.00  0.00    +0.000 N 
ATOM      2  C   UNL     1       2.768   7.704  17.501  0.00  0.00    +0.000 A 
ATOM      3  N   UNL     1       2.249   8.917  17.423  0.00  0.00    +0.000 NA
ATOM      4  C   UNL     1       1.682   9.137  18.654  0.00  0.00    +0.000 A 
ATOM      5  C   UNL     1       1.006  10.224  19.226  0.00  0.00    +0.000 A 
ATOM      6  N   UNL     1       0.731  11.380  18.485  0.00  0.00    +0.000 N 
ATOM      7  C   UNL     1       0.031  12.489  18.902  0.00  0.00    +0.000 C 
ATOM      8  O   UNL     1      -0.286  13.355  18.090  0.00  0.00    +0.000 OA
ATOM      9  N   UNL     1      -0.201  12.553  20.250  0.00  0.00    +0.000 N 
ATOM     10  N   UNL     1       0.619  10.139  20.524  0.00  0.00    +0.000 NA
ATOM     11  C   UNL     1       0.828   8.987  21.178  0.00  0.00    +0.000 A 
ATOM     12 CL   UNL     1       0.278   8.960  22.794  0.00  0.00    +0.000 Cl
ATOM     13  N   UNL     1       1.428   7.873  20.738  0.00  0.00    +0.000 NA
ATOM     14  C   UNL     1       1.844   8.030  19.468  0.00  0.00    +0.000 A 
ATOM     15  H   UNL     1       0.986  11.376  17.502  0.00  0.00    +0.000 HD
ATOM     16  H   UNL     1       0.409  11.959  20.801  0.00  0.00    +0.000 HD
ENDROOT
BRANCH   9  17
ATOM     17  C   UNL     1      -0.947  13.507  20.943  0.00  0.00    +0.000 A 
ATOM     18  C   UNL     1      -2.337  13.563  20.870  0.00  0.00    +0.000 A 
ATOM     19  C   UNL     1      -3.035  14.492  21.646  0.00  0.00    +0.000 A 
ATOM     20  C   UNL     1      -2.338  15.395  22.451  0.00  0.00    +0.000 A 
ATOM     21  C   UNL     1      -0.948  15.341  22.508  0.00  0.00    +0.000 A 
ATOM     22 CL   UNL     1      -0.079  16.482  23.458  0.00  0.00    +0.000 Cl
ATOM     23  C   UNL     1      -0.251  14.376  21.787  0.00  0.00    +0.000 A 
ENDBRANCH   9  17
BRANCH   1  26
ATOM     24  C   UNL     1       4.972   4.696  19.343  0.00  0.00    +0.000 C 
ATOM     25  O   UNL     1       4.274   5.904  19.692  0.00  0.00    +0.000 OA
ATOM     26  C   UNL     1       2.924   5.809  19.186  0.00  0.00    +0.000 C 
ATOM     27  C   UNL     1       2.891   4.661  18.179  0.00  0.00    +0.000 C 
ATOM     28  C   UNL     1       3.953   3.731  18.739  0.00  0.00    +0.000 C 
BRANCH  24  30
ATOM     29  N   UNL     1       6.095   6.320  17.927  0.00  0.00    +0.000 N 
ATOM     30  C   UNL     1       6.127   5.024  18.395  0.00  0.00    +0.000 C 
ATOM     31  O   UNL     1       7.011   4.222  18.113  0.00  0.00    +0.000 OA
ATOM     32  H   UNL     1       5.228   6.841  18.010  0.00  0.00    +0.000 HD
BRANCH  29  34
ATOM     33  C   UNL     1       7.836   8.056  17.785  0.00  0.00    +0.000 C 
ATOM     34  C   UNL     1       7.161   6.875  17.115  0.00  0.00    +0.000 C 
ENDBRANCH  29  34
ENDBRANCH  24  30
BRANCH  27  35
ATOM     35  O   UNL     1       1.615   4.026  18.116  0.00  0.00    +0.000 OA
ATOM     36  H   UNL     1       1.753   3.172  17.653  0.00  0.00    +0.000 HD
ENDBRANCH  27  35
BRANCH  28  37
ATOM     37  O   UNL     1       3.337   2.888  19.731  0.00  0.00    +0.000 OA
ATOM     38  H   UNL     1       3.583   1.957  19.577  0.00  0.00    +0.000 HD
ENDBRANCH  28  37
ENDBRANCH   1  26
TORSDOF 6
ENDMDL
