MODEL 1
REMARK VINA RESULT:      -6.0      0.000      0.000
REMARK  Name = 
REMARK  4 active torsions:
REMARK  status: ('A' for Active; 'I' for Inactive)
REMARK    1  A    between atoms: C_2  and  C_3
REMARK    2  A    between atoms: C_3  and  C_4
REMARK    3  A    between atoms: N_6  and  N_7
REMARK    4  A    between atoms: N_7  and  C_8
REMARK                            x       y       z     vdW  Elec       q    Type
REMARK                         _______ _______ _______ _____ _____    ______ ____
ROOT
ATOM      1  N   UNL     1       5.694   3.917  18.528  0.00  0.00    +0.000 N 
ATOM      2  H   UNL     1       6.237   3.515  19.296  0.00  0.00    +0.000 HD
ENDROOT
BRANCH   1   3
ATOM      3  C   UNL     1       4.305   3.666  18.628  0.00  0.00    +0.000 A 
ATOM      4  C   UNL     1       3.475   3.904  17.522  0.00  0.00    +0.000 A 
ATOM      5  C   UNL     1       2.091   3.720  17.608  0.00  0.00    +0.000 A 
ATOM      6  C   UNL     1       1.515   3.319  18.812  0.00  0.00    +0.000 A 
ATOM      7  C   UNL     1       2.325   3.115  19.925  0.00  0.00    +0.000 A 
ATOM      8 CL   UNL     1       1.618   2.647  21.423  0.00  0.00    +0.000 Cl
ATOM      9  C   UNL     1       3.705   3.294  19.839  0.00  0.00    +0.000 A 
ENDBRANCH   1   3
BRANCH   1  11
ATOM     10  C   UNL     1       7.005   5.817  18.378  0.00  0.00    +0.000 C 
ATOM     11  N   UNL     1       6.087   5.050  17.870  0.00  0.00    +0.000 NA
BRANCH  10  13
ATOM     12  N   UNL     1       7.625   7.905  16.962  0.00  0.00    +0.000 NA
ATOM     13  C   UNL     1       7.347   6.960  17.580  0.00  0.00    +0.000 C 
ENDBRANCH  10  13
BRANCH  10  14
ATOM     14  C   UNL     1       7.613   5.521  19.641  0.00  0.00    +0.000 C 
ATOM     15  N   UNL     1       8.077   5.276  20.678  0.00  0.00    +0.000 NA
ENDBRANCH  10  14
ENDBRANCH   1  11
TORSDOF 4
ENDMDL
MODEL 2
REMARK VINA RESULT:      -6.0      2.270      2.803
REMARK  Name = 
REMARK  4 active torsions:
REMARK  status: ('A' for Active; 'I' for Inactive)
REMARK    1  A    between atoms: C_2  and  C_3
REMARK    2  A    between atoms: C_3  and  C_4
REMARK    3  A    between atoms: N_6  and  N_7
REMARK    4  A    between atoms: N_7  and  C_8
REMARK                            x       y       z     vdW  Elec       q    Type
REMARK                         _______ _______ _______ _____ _____    ______ ____
ROOT
ATOM      1  N   UNL     1       5.230   3.812  17.595  0.00  0.00    +0.000 N 
ATOM      2  H   UNL     1       5.845   4.463  18.088  0.00  0.00    +0.000 HD
ENDROOT
BRANCH   1   3
ATOM      3  C   UNL     1       3.940   3.712  18.168  0.00  0.00    +0.000 A 
ATOM      4  C   UNL     1       2.817   4.093  17.418  0.00  0.00    +0.000 A 
ATOM      5  C   UNL     1       1.534   4.060  17.976  0.00  0.00    +0.000 A 
ATOM      6  C   UNL     1       1.361   3.669  19.302  0.00  0.00    +0.000 A 
ATOM      7  C   UNL     1       2.473   3.324  20.065  0.00  0.00    +0.000 A 
ATOM      8 CL   UNL     1       2.270   2.867  21.713  0.00  0.00    +0.000 Cl
ATOM      9  C   UNL     1       3.751   3.352  19.509  0.00  0.00    +0.000 A 
ENDBRANCH   1   3
BRANCH   1  11
ATOM     10  C   UNL     1       6.116   4.316  15.518  0.00  0.00    +0.000 C 
ATOM     11  N   UNL     1       5.349   3.570  16.254  0.00  0.00    +0.000 NA
BRANCH  10  13
ATOM     12  N   UNL     1       6.246   3.665  13.007  0.00  0.00    +0.000 NA
ATOM     13  C   UNL     1       6.175   3.943  14.133  0.00  0.00    +0.000 C 
ENDBRANCH  10  13
BRANCH  10  14
ATOM     14  C   UNL     1       6.839   5.422  16.073  0.00  0.00    +0.000 C 
ATOM     15  N   UNL     1       7.403   6.321  16.547  0.00  0.00    +0.000 NA
ENDBRANCH  10  14
ENDBRANCH   1  11
TORSDOF 4
ENDMDL
MODEL 3
REMARK VINA RESULT:      -5.9      1.331      2.102
REMARK  Name = 
REMARK  4 active torsions:
REMARK  status: ('A' for Active; 'I' for Inactive)
REMARK    1  A    between atoms: C_2  and  C_3
REMARK    2  A    between atoms: C_3  and  C_4
REMARK    3  A    between atoms: N_6  and  N_7
REMARK    4  A    between atoms: N_7  and  C_8
REMARK                            x       y       z     vdW  Elec       q    Type
REMARK                         _______ _______ _______ _____ _____    ______ ____
ROOT
ATOM      1  N   UNL     1       5.323   3.575  18.122  0.00  0.00    +0.000 N 
ATOM      2  H   UNL     1       5.812   2.708  18.355  0.00  0.00    +0.000 HD
ENDROOT
BRANCH   1   3
ATOM      3  C   UNL     1       3.951   3.556  18.466  0.00  0.00    +0.000 A 
ATOM      4  C   UNL     1       2.997   3.999  17.537  0.00  0.00    +0.000 A 
ATOM      5  C   UNL     1       1.638   4.046  17.867  0.00  0.00    +0.000 A 
ATOM      6  C   UNL     1       1.218   3.674  19.143  0.00  0.00    +0.000 A 
ATOM      7  C   UNL     1       2.160   3.267  20.083  0.00  0.00    +0.000 A 
ATOM      8 CL   UNL     1       1.652   2.833  21.669  0.00  0.00    +0.000 Cl
ATOM      9  C   UNL     1       3.514   3.216  19.754  0.00  0.00    +0.000 A 
ENDBRANCH   1   3
BRANCH   1  11
ATOM     10  C   UNL     1       6.464   5.245  16.999  0.00  0.00    +0.000 C 
ATOM     11  N   UNL     1       5.955   4.788  18.103  0.00  0.00    +0.000 NA
BRANCH  10  13
ATOM     12  N   UNL     1       7.603   7.570  17.204  0.00  0.00    +0.000 NA
ATOM     13  C   UNL     1       7.078   6.539  17.105  0.00  0.00    +0.000 C 
ENDBRANCH  10  13
BRANCH  10  14
ATOM     14  C   UNL     1       6.402   4.495  15.780  0.00  0.00    +0.000 C 
ATOM     15  N   UNL     1       6.373   3.863  14.804  0.00  0.00    +0.000 NA
ENDBRANCH  10  14
ENDBRANCH   1  11
TORSDOF 4
ENDMDL
MODEL 4
REMARK VINA RESULT:      -5.9      1.358      1.392
REMARK  Name = 
REMARK  4 active torsions:
REMARK  status: ('A' for Active; 'I' for Inactive)
REMARK    1  A    between atoms: C_2  and  C_3
REMARK    2  A    between atoms: C_3  and  C_4
REMARK    3  A    between atoms: N_6  and  N_7
REMARK    4  A    between atoms: N_7  and  C_8
REMARK                            x       y       z     vdW  Elec       q    Type
REMARK                         _______ _______ _______ _____ _____    ______ ____
ROOT
ATOM      1  N   UNL     1       4.173   5.620  18.796  0.00  0.00    +0.000 N 
ATOM      2  H   UNL     1       3.875   6.465  19.289  0.00  0.00    +0.000 HD
ENDROOT
BRANCH   1   3
ATOM      3  C   UNL     1       3.274   4.537  18.942  0.00  0.00    +0.000 A 
ATOM      4  C   UNL     1       2.725   3.933  17.801  0.00  0.00    +0.000 A 
ATOM      5  C   UNL     1       1.790   2.898  17.914  0.00  0.00    +0.000 A 
ATOM      6  C   UNL     1       1.372   2.471  19.173  0.00  0.00    +0.000 A 
ATOM      7  C   UNL     1       1.884   3.088  20.310  0.00  0.00    +0.000 A 
ATOM      8 CL   UNL     1       1.352   2.586  21.869  0.00  0.00    +0.000 Cl
ATOM      9  C   UNL     1       2.819   4.117  20.199  0.00  0.00    +0.000 A 
ENDBRANCH   1   3
BRANCH   1  11
ATOM     10  C   UNL     1       6.225   5.604  17.728  0.00  0.00    +0.000 C 
ATOM     11  N   UNL     1       4.929   5.667  17.657  0.00  0.00    +0.000 NA
BRANCH  10  13
ATOM     12  N   UNL     1       7.422   5.650  15.423  0.00  0.00    +0.000 NA
ATOM     13  C   UNL     1       6.902   5.638  16.462  0.00  0.00    +0.000 C 
ENDBRANCH  10  13
BRANCH  10  14
ATOM     14  C   UNL     1       6.902   5.507  18.986  0.00  0.00    +0.000 C 
ATOM     15  N   UNL     1       7.422   5.422  20.022  0.00  0.00    +0.000 NA
ENDBRANCH  10  14
ENDBRANCH   1  11
TORSDOF 4
ENDMDL
MODEL 5
REMARK VINA RESULT:      -5.9      2.559      2.826
REMARK  Name = 
REMARK  4 active torsions:
REMARK  status: ('A' for Active; 'I' for Inactive)
REMARK    1  A    between atoms: C_2  and  C_3
REMARK    2  A    between atoms: C_3  and  C_4
REMARK    3  A    between atoms: N_6  and  N_7
REMARK    4  A    between atoms: N_7  and  C_8
REMARK                            x       y       z     vdW  Elec       q    Type
REMARK                         _______ _______ _______ _____ _____    ______ ____
ROOT
ATOM      1  N   UNL     1       5.116   3.118  16.919  0.00  0.00    +0.000 N 
ATOM      2  H   UNL     1       5.666   2.622  17.625  0.00  0.00    +0.000 HD
ENDROOT
BRANCH   1   3
ATOM      3  C   UNL     1       3.908   3.656  17.423  0.00  0.00    +0.000 A 
ATOM      4  C   UNL     1       2.807   2.812  17.634  0.00  0.00    +0.000 A 
ATOM      5  C   UNL     1       1.583   3.324  18.077  0.00  0.00    +0.000 A 
ATOM      6  C   UNL     1       1.436   4.693  18.290  0.00  0.00    +0.000 A 
ATOM      7  C   UNL     1       2.512   5.543  18.050  0.00  0.00    +0.000 A 
ATOM      8 CL   UNL     1       2.330   7.239  18.283  0.00  0.00    +0.000 Cl
ATOM      9  C   UNL     1       3.734   5.034  17.612  0.00  0.00    +0.000 A 
ENDBRANCH   1   3
BRANCH   1  11
ATOM     10  C   UNL     1       6.799   4.415  16.006  0.00  0.00    +0.000 C 
ATOM     11  N   UNL     1       5.695   3.748  15.853  0.00  0.00    +0.000 NA
BRANCH  10  13
ATOM     12  N   UNL     1       7.707   5.493  13.824  0.00  0.00    +0.000 NA
ATOM     13  C   UNL     1       7.319   5.008  14.805  0.00  0.00    +0.000 C 
ENDBRANCH  10  13
BRANCH  10  14
ATOM     14  C   UNL     1       7.430   4.535  17.286  0.00  0.00    +0.000 C 
ATOM     15  N   UNL     1       7.961   4.605  18.317  0.00  0.00    +0.000 NA
ENDBRANCH  10  14
ENDBRANCH   1  11
TORSDOF 4
ENDMDL
MODEL 6
REMARK VINA RESULT:      -5.9      1.800      2.474
REMARK  Name = 
REMARK  4 active torsions:
REMARK  status: ('A' for Active; 'I' for Inactive)
REMARK    1  A    between atoms: C_2  and  C_3
REMARK    2  A    between atoms: C_3  and  C_4
REMARK    3  A    between atoms: N_6  and  N_7
REMARK    4  A    between atoms: N_7  and  C_8
REMARK                            x       y       z     vdW  Elec       q    Type
REMARK                         _______ _______ _______ _____ _____    ______ ____
ROOT
ATOM      1  N   UNL     1       5.207   3.266  19.030  0.00  0.00    +0.000 N 
ATOM      2  H   UNL     1       5.537   2.299  19.081  0.00  0.00    +0.000 HD
ENDROOT
BRANCH   1   3
ATOM      3  C   UNL     1       3.875   3.431  19.475  0.00  0.00    +0.000 A 
ATOM      4  C   UNL     1       2.979   2.354  19.394  0.00  0.00    +0.000 A 
ATOM      5  C   UNL     1       1.640   2.502  19.772  0.00  0.00    +0.000 A 
ATOM      6  C   UNL     1       1.173   3.738  20.214  0.00  0.00    +0.000 A 
ATOM      7  C   UNL     1       2.046   4.821  20.265  0.00  0.00    +0.000 A 
ATOM      8 CL   UNL     1       1.470   6.359  20.783  0.00  0.00    +0.000 Cl
ATOM      9  C   UNL     1       3.381   4.675  19.892  0.00  0.00    +0.000 A 
ENDBRANCH   1   3
BRANCH   1  11
ATOM     10  C   UNL     1       6.591   4.870  18.101  0.00  0.00    +0.000 C 
ATOM     11  N   UNL     1       6.054   4.333  19.155  0.00  0.00    +0.000 NA
BRANCH  10  13
ATOM     12  N   UNL     1       8.116   6.926  18.546  0.00  0.00    +0.000 NA
ATOM     13  C   UNL     1       7.440   5.999  18.363  0.00  0.00    +0.000 C 
ENDBRANCH  10  13
BRANCH  10  14
ATOM     14  C   UNL     1       6.339   4.357  16.788  0.00  0.00    +0.000 C 
ATOM     15  N   UNL     1       6.144   3.910  15.733  0.00  0.00    +0.000 NA
ENDBRANCH  10  14
ENDBRANCH   1  11
TORSDOF 4
ENDMDL
MODEL 7
REMARK VINA RESULT:      -5.9      3.196      5.654
REMARK  Name = 
REMARK  4 active torsions:
REMARK  status: ('A' for Active; 'I' for Inactive)
REMARK    1  A    between atoms: C_2  and  C_3
REMARK    2  A    between atoms: C_3  and  C_4
REMARK    3  A    between atoms: N_6  and  N_7
REMARK    4  A    between atoms: N_7  and  C_8
REMARK                            x       y       z     vdW  Elec       q    Type
REMARK                         _______ _______ _______ _____ _____    ______ ____
ROOT
ATOM      1  N   UNL     1       5.209   3.189  18.686  0.00  0.00    +0.000 N 
ATOM      2  H   UNL     1       5.164   2.436  17.996  0.00  0.00    +0.000 HD
ENDROOT
BRANCH   1   3
ATOM      3  C   UNL     1       5.512   4.451  18.124  0.00  0.00    +0.000 A 
ATOM      4  C   UNL     1       4.784   4.909  17.014  0.00  0.00    +0.000 A 
ATOM      5  C   UNL     1       5.098   6.126  16.401  0.00  0.00    +0.000 A 
ATOM      6  C   UNL     1       6.161   6.892  16.875  0.00  0.00    +0.000 A 
ATOM      7  C   UNL     1       6.911   6.430  17.952  0.00  0.00    +0.000 A 
ATOM      8 CL   UNL     1       8.244   7.356  18.525  0.00  0.00    +0.000 Cl
ATOM      9  C   UNL     1       6.597   5.219  18.567  0.00  0.00    +0.000 A 
ENDBRANCH   1   3
BRANCH   1  11
ATOM     10  C   UNL     1       3.219   2.823  19.808  0.00  0.00    +0.000 C 
ATOM     11  N   UNL     1       4.471   3.168  19.838  0.00  0.00    +0.000 NA
BRANCH  10  13
ATOM     12  N   UNL     1       2.007   2.790  22.105  0.00  0.00    +0.000 NA
ATOM     13  C   UNL     1       2.562   2.816  21.085  0.00  0.00    +0.000 C 
ENDBRANCH  10  13
BRANCH  10  14
ATOM     14  C   UNL     1       2.566   2.479  18.580  0.00  0.00    +0.000 C 
ATOM     15  N   UNL     1       2.065   2.210  17.566  0.00  0.00    +0.000 NA
ENDBRANCH  10  14
ENDBRANCH   1  11
TORSDOF 4
ENDMDL
MODEL 8
REMARK VINA RESULT:      -5.8      1.461      2.082
REMARK  Name = 
REMARK  4 active torsions:
REMARK  status: ('A' for Active; 'I' for Inactive)
REMARK    1  A    between atoms: C_2  and  C_3
REMARK    2  A    between atoms: C_3  and  C_4
REMARK    3  A    between atoms: N_6  and  N_7
REMARK    4  A    between atoms: N_7  and  C_8
REMARK                            x       y       z     vdW  Elec       q    Type
REMARK                         _______ _______ _______ _____ _____    ______ ____
ROOT
ATOM      1  N   UNL     1       6.089   4.202  18.410  0.00  0.00    +0.000 N 
ATOM      2  H   UNL     1       6.616   3.430  18.826  0.00  0.00    +0.000 HD
ENDROOT
BRANCH   1   3
ATOM      3  C   UNL     1       4.688   4.011  18.448  0.00  0.00    +0.000 A 
ATOM      4  C   UNL     1       4.053   3.320  17.405  0.00  0.00    +0.000 A 
ATOM      5  C   UNL     1       2.663   3.165  17.385  0.00  0.00    +0.000 A 
ATOM      6  C   UNL     1       1.885   3.722  18.398  0.00  0.00    +0.000 A 
ATOM      7  C   UNL     1       2.502   4.440  19.419  0.00  0.00    +0.000 A 
ATOM      8 CL   UNL     1       1.546   5.156  20.658  0.00  0.00    +0.000 Cl
ATOM      9  C   UNL     1       3.888   4.592  19.442  0.00  0.00    +0.000 A 
ENDBRANCH   1   3
BRANCH   1  11
ATOM     10  C   UNL     1       7.049   6.007  17.327  0.00  0.00    +0.000 C 
ATOM     11  N   UNL     1       6.554   5.488  18.411  0.00  0.00    +0.000 NA
BRANCH  10  13
ATOM     12  N   UNL     1       7.851   8.465  17.574  0.00  0.00    +0.000 NA
ATOM     13  C   UNL     1       7.479   7.372  17.452  0.00  0.00    +0.000 C 
ENDBRANCH  10  13
BRANCH  10  14
ATOM     14  C   UNL     1       7.145   5.254  16.113  0.00  0.00    +0.000 C 
ATOM     15  N   UNL     1       7.253   4.657  15.121  0.00  0.00    +0.000 NA
ENDBRANCH  10  14
ENDBRANCH   1  11
TORSDOF 4
ENDMDL
MODEL 9
REMARK VINA RESULT:      -5.8      3.296      5.830
REMARK  Name = 
REMARK  4 active torsions:
REMARK  status: ('A' for Active; 'I' for Inactive)
REMARK    1  A    between atoms: C_2  and  C_3
REMARK    2  A    between atoms: C_3  and  C_4
REMARK    3  A    between atoms: N_6  and  N_7
REMARK    4  A    between atoms: N_7  and  C_8
REMARK                            x       y       z     vdW  Elec       q    Type
REMARK                         _______ _______ _______ _____ _____    ______ ____
ROOT
ATOM      1  N   UNL     1       3.839   5.627  19.010  0.00  0.00    +0.000 N 
ATOM      2  H   UNL     1       3.656   6.632  18.949  0.00  0.00    +0.000 HD
ENDROOT
BRANCH   1   3
ATOM      3  C   UNL     1       5.030   5.231  18.358  0.00  0.00    +0.000 A 
ATOM      4  C   UNL     1       6.268   5.445  18.983  0.00  0.00    +0.000 A 
ATOM      5  C   UNL     1       7.466   5.116  18.339  0.00  0.00    +0.000 A 
ATOM      6  C   UNL     1       7.442   4.592  17.049  0.00  0.00    +0.000 A 
ATOM      7  C   UNL     1       6.221   4.408  16.406  0.00  0.00    +0.000 A 
ATOM      8 CL   UNL     1       6.185   3.787  14.801  0.00  0.00    +0.000 Cl
ATOM      9  C   UNL     1       5.026   4.732  17.048  0.00  0.00    +0.000 A 
ENDBRANCH   1   3
BRANCH   1  11
ATOM     10  C   UNL     1       2.436   4.029  19.920  0.00  0.00    +0.000 C 
ATOM     11  N   UNL     1       3.413   4.872  20.068  0.00  0.00    +0.000 NA
BRANCH  10  13
ATOM     12  N   UNL     1       1.797   2.674  22.042  0.00  0.00    +0.000 NA
ATOM     13  C   UNL     1       2.101   3.278  21.098  0.00  0.00    +0.000 C 
ENDBRANCH  10  13
BRANCH  10  14
ATOM     14  C   UNL     1       1.760   3.878  18.666  0.00  0.00    +0.000 C 
ATOM     15  N   UNL     1       1.183   3.755  17.665  0.00  0.00    +0.000 NA
ENDBRANCH  10  14
ENDBRANCH   1  11
TORSDOF 4
ENDMDL
