MODEL 1
REMARK VINA RESULT:      -7.5      0.000      0.000
REMARK  Name = 
REMARK  12 active torsions:
REMARK  status: ('A' for Active; 'I' for Inactive)
REMARK    1  A    between atoms: O_1  and  C_2
REMARK    2  A    between atoms: C_2  and  C_3
REMARK    3  A    between atoms: C_5  and  O_6
REMARK    4  A    between atoms: O_6  and  C_7
REMARK    5  A    between atoms: C_10  and  O_11
REMARK    6  A    between atoms: C_13  and  O_14
REMARK    7  A    between atoms: C_18  and  C_19
REMARK    8  A    between atoms: C_22  and  O_23
REMARK    9  A    between atoms: C_24  and  O_25
REMARK   10  A    between atoms: C_27  and  O_28
REMARK   11  A    between atoms: C_29  and  O_30
REMARK   12  A    between atoms: C_31  and  O_32
REMARK                            x       y       z     vdW  Elec       q    Type
REMARK                         _______ _______ _______ _____ _____    ______ ____
ROOT
ATOM      1  C   UNL     1       2.655   7.573  18.095  0.00  0.00    +0.000 A 
ATOM      2  C   UNL     1       2.582   8.903  17.742  0.00  0.00    +0.000 A 
ATOM      3  C   UNL     1       1.919   9.751  18.601  0.00  0.00    +0.000 A 
ATOM      4  C   UNL     1       1.844  11.151  18.400  0.00  0.00    +0.000 A 
ATOM      5  C   UNL     1       1.195  11.968  19.316  0.00  0.00    +0.000 A 
ATOM      6  C   UNL     1       0.623  11.401  20.444  0.00  0.00    +0.000 A 
ATOM      7  C   UNL     1       0.683  10.024  20.664  0.00  0.00    +0.000 A 
ATOM      8  C   UNL     1       1.329   9.186  19.743  0.00  0.00    +0.000 A 
ATOM      9  O   UNL     1       1.393   7.955  20.037  0.00  0.00    +0.000 OA
ATOM     10  C   UNL     1       1.940   7.136  19.237  0.00  0.00    +0.000 A 
ENDROOT
BRANCH  10  11
ATOM     11  C   UNL     1       1.968   5.719  19.701  0.00  0.00    +0.000 A 
ATOM     12  C   UNL     1       2.443   5.369  20.988  0.00  0.00    +0.000 A 
ATOM     13  C   UNL     1       2.318   4.077  21.507  0.00  0.00    +0.000 A 
ATOM     14  C   UNL     1       1.758   3.090  20.717  0.00  0.00    +0.000 A 
ATOM     15  C   UNL     1       1.355   3.383  19.420  0.00  0.00    +0.000 A 
ATOM     16  C   UNL     1       1.459   4.676  18.902  0.00  0.00    +0.000 A 
BRANCH  14  17
ATOM     17  O   UNL     1       1.575   1.816  21.178  0.00  0.00    +0.000 OA
ATOM     18  H   UNL     1       1.533   1.220  20.409  0.00  0.00    +0.000 HD
ENDBRANCH  14  17
BRANCH  15  19
ATOM     19  O   UNL     1       0.820   2.395  18.641  0.00  0.00    +0.000 OA
ATOM     20  H   UNL     1       0.424   1.763  19.280  0.00  0.00    +0.000 HD
ENDBRANCH  15  19
ENDBRANCH  10  11
BRANCH   4  21
ATOM     21  O   UNL     1       2.422  11.811  17.354  0.00  0.00    +0.000 OA
ATOM     22  H   UNL     1       2.228  12.761  17.359  0.00  0.00    +0.000 HD
ENDBRANCH   4  21
BRANCH   6  23
ATOM     23  O   UNL     1       0.004  12.183  21.375  0.00  0.00    +0.000 OA
ATOM     24  H   UNL     1       0.629  12.407  22.086  0.00  0.00    +0.000 HD
ENDBRANCH   6  23
BRANCH   1  25
ATOM     25  O   UNL     1       3.388   6.655  17.380  0.00  0.00    +0.000 OA
BRANCH  25  28
ATOM     26  C   UNL     1       4.961   4.514  18.261  0.00  0.00    +0.000 C 
ATOM     27  O   UNL     1       5.344   5.898  18.456  0.00  0.00    +0.000 OA
ATOM     28  C   UNL     1       4.818   6.747  17.424  0.00  0.00    +0.000 C 
ATOM     29  C   UNL     1       5.436   6.366  16.062  0.00  0.00    +0.000 C 
ATOM     30  C   UNL     1       5.145   4.882  15.772  0.00  0.00    +0.000 C 
ATOM     31  C   UNL     1       5.580   3.998  16.956  0.00  0.00    +0.000 C 
BRANCH  29  32
ATOM     32  O   UNL     1       4.971   7.184  14.986  0.00  0.00    +0.000 OA
ATOM     33  H   UNL     1       3.998   7.280  15.025  0.00  0.00    +0.000 HD
ENDBRANCH  29  32
BRANCH  30  34
ATOM     34  O   UNL     1       5.830   4.437  14.594  0.00  0.00    +0.000 OA
ATOM     35  H   UNL     1       5.902   5.215  14.010  0.00  0.00    +0.000 HD
ENDBRANCH  30  34
BRANCH  31  36
ATOM     36  O   UNL     1       7.020   3.998  17.026  0.00  0.00    +0.000 OA
ATOM     37  H   UNL     1       7.374   4.321  16.177  0.00  0.00    +0.000 HD
ENDBRANCH  31  36
BRANCH  26  38
ATOM     38  C   UNL     1       5.414   3.723  19.491  0.00  0.00    +0.000 C 
BRANCH  38  39
ATOM     39  O   UNL     1       4.958   2.372  19.370  0.00  0.00    +0.000 OA
ATOM     40  H   UNL     1       4.864   2.196  18.416  0.00  0.00    +0.000 HD
ENDBRANCH  38  39
ENDBRANCH  26  38
ENDBRANCH  25  28
ENDBRANCH   1  25
TORSDOF 12
ENDMDL
MODEL 2
REMARK VINA RESULT:      -7.3      0.539      1.162
REMARK  Name = 
REMARK  12 active torsions:
REMARK  status: ('A' for Active; 'I' for Inactive)
REMARK    1  A    between atoms: O_1  and  C_2
REMARK    2  A    between atoms: C_2  and  C_3
REMARK    3  A    between atoms: C_5  and  O_6
REMARK    4  A    between atoms: O_6  and  C_7
REMARK    5  A    between atoms: C_10  and  O_11
REMARK    6  A    between atoms: C_13  and  O_14
REMARK    7  A    between atoms: C_18  and  C_19
REMARK    8  A    between atoms: C_22  and  O_23
REMARK    9  A    between atoms: C_24  and  O_25
REMARK   10  A    between atoms: C_27  and  O_28
REMARK   11  A    between atoms: C_29  and  O_30
REMARK   12  A    between atoms: C_31  and  O_32
REMARK                            x       y       z     vdW  Elec       q    Type
REMARK                         _______ _______ _______ _____ _____    ______ ____
ROOT
ATOM      1  C   UNL     1       2.650   7.648  17.925  0.00  0.00    +0.000 A 
ATOM      2  C   UNL     1       2.673   9.002  17.672  0.00  0.00    +0.000 A 
ATOM      3  C   UNL     1       1.973   9.821  18.530  0.00  0.00    +0.000 A 
ATOM      4  C   UNL     1       1.985  11.233  18.432  0.00  0.00    +0.000 A 
ATOM      5  C   UNL     1       1.292  12.016  19.346  0.00  0.00    +0.000 A 
ATOM      6  C   UNL     1       0.590  11.401  20.371  0.00  0.00    +0.000 A 
ATOM      7  C   UNL     1       0.564  10.009  20.488  0.00  0.00    +0.000 A 
ATOM      8  C   UNL     1       1.253   9.207  19.567  0.00  0.00    +0.000 A 
ATOM      9  O   UNL     1       1.230   7.956  19.770  0.00  0.00    +0.000 OA
ATOM     10  C   UNL     1       1.810   7.169  18.962  0.00  0.00    +0.000 A 
ENDROOT
BRANCH  10  11
ATOM     11  C   UNL     1       1.727   5.723  19.315  0.00  0.00    +0.000 A 
ATOM     12  C   UNL     1       1.486   4.732  18.333  0.00  0.00    +0.000 A 
ATOM     13  C   UNL     1       1.576   3.364  18.610  0.00  0.00    +0.000 A 
ATOM     14  C   UNL     1       1.858   2.961  19.901  0.00  0.00    +0.000 A 
ATOM     15  C   UNL     1       2.020   3.908  20.906  0.00  0.00    +0.000 A 
ATOM     16  C   UNL     1       1.951   5.275  20.632  0.00  0.00    +0.000 A 
BRANCH  14  17
ATOM     17  O   UNL     1       1.994   1.640  20.229  0.00  0.00    +0.000 OA
ATOM     18  H   UNL     1       1.116   1.300  20.477  0.00  0.00    +0.000 HD
ENDBRANCH  14  17
BRANCH  15  19
ATOM     19  O   UNL     1       2.280   3.496  22.183  0.00  0.00    +0.000 OA
ATOM     20  H   UNL     1       2.036   2.545  22.192  0.00  0.00    +0.000 HD
ENDBRANCH  15  19
ENDBRANCH  10  11
BRANCH   4  21
ATOM     21  O   UNL     1       2.690  11.934  17.496  0.00  0.00    +0.000 OA
ATOM     22  H   UNL     1       3.182  11.357  16.891  0.00  0.00    +0.000 HD
ENDBRANCH   4  21
BRANCH   6  23
ATOM     23  O   UNL     1      -0.076  12.146  21.299  0.00  0.00    +0.000 OA
ATOM     24  H   UNL     1      -1.034  11.993  21.220  0.00  0.00    +0.000 HD
ENDBRANCH   6  23
BRANCH   1  25
ATOM     25  O   UNL     1       3.402   6.745  17.211  0.00  0.00    +0.000 OA
BRANCH  25  28
ATOM     26  C   UNL     1       4.958   4.680  18.280  0.00  0.00    +0.000 C 
ATOM     27  O   UNL     1       5.332   6.075  18.385  0.00  0.00    +0.000 OA
ATOM     28  C   UNL     1       4.830   6.846  17.283  0.00  0.00    +0.000 C 
ATOM     29  C   UNL     1       5.483   6.372  15.967  0.00  0.00    +0.000 C 
ATOM     30  C   UNL     1       5.202   4.870  15.776  0.00  0.00    +0.000 C 
ATOM     31  C   UNL     1       5.610   4.074  17.031  0.00  0.00    +0.000 C 
BRANCH  29  32
ATOM     32  O   UNL     1       5.042   7.109  14.824  0.00  0.00    +0.000 OA
ATOM     33  H   UNL     1       4.382   6.594  14.318  0.00  0.00    +0.000 HD
ENDBRANCH  29  32
BRANCH  30  34
ATOM     34  O   UNL     1       5.917   4.345  14.650  0.00  0.00    +0.000 OA
ATOM     35  H   UNL     1       6.843   4.241  14.939  0.00  0.00    +0.000 HD
ENDBRANCH  30  34
BRANCH  31  36
ATOM     36  O   UNL     1       7.047   4.085  17.135  0.00  0.00    +0.000 OA
ATOM     37  H   UNL     1       7.369   3.165  17.122  0.00  0.00    +0.000 HD
ENDBRANCH  31  36
BRANCH  26  38
ATOM     38  C   UNL     1       5.383   3.980  19.574  0.00  0.00    +0.000 C 
BRANCH  38  39
ATOM     39  O   UNL     1       5.270   2.564  19.397  0.00  0.00    +0.000 OA
ATOM     40  H   UNL     1       4.852   2.427  18.527  0.00  0.00    +0.000 HD
ENDBRANCH  38  39
ENDBRANCH  26  38
ENDBRANCH  25  28
ENDBRANCH   1  25
TORSDOF 12
ENDMDL
MODEL 3
REMARK VINA RESULT:      -7.3      1.638      2.310
REMARK  Name = 
REMARK  12 active torsions:
REMARK  status: ('A' for Active; 'I' for Inactive)
REMARK    1  A    between atoms: O_1  and  C_2
REMARK    2  A    between atoms: C_2  and  C_3
REMARK    3  A    between atoms: C_5  and  O_6
REMARK    4  A    between atoms: O_6  and  C_7
REMARK    5  A    between atoms: C_10  and  O_11
REMARK    6  A    between atoms: C_13  and  O_14
REMARK    7  A    between atoms: C_18  and  C_19
REMARK    8  A    between atoms: C_22  and  O_23
REMARK    9  A    between atoms: C_24  and  O_25
REMARK   10  A    between atoms: C_27  and  O_28
REMARK   11  A    between atoms: C_29  and  O_30
REMARK   12  A    between atoms: C_31  and  O_32
REMARK                            x       y       z     vdW  Elec       q    Type
REMARK                         _______ _______ _______ _____ _____    ______ ____
ROOT
ATOM      1  C   UNL     1       2.726   6.800  18.271  0.00  0.00    +0.000 A 
ATOM      2  C   UNL     1       2.356   8.117  18.435  0.00  0.00    +0.000 A 
ATOM      3  C   UNL     1       1.640   8.439  19.566  0.00  0.00    +0.000 A 
ATOM      4  C   UNL     1       1.272   9.766  19.897  0.00  0.00    +0.000 A 
ATOM      5  C   UNL     1       0.582  10.042  21.070  0.00  0.00    +0.000 A 
ATOM      6  C   UNL     1       0.259   9.002  21.928  0.00  0.00    +0.000 A 
ATOM      7  C   UNL     1       0.611   7.685  21.623  0.00  0.00    +0.000 A 
ATOM      8  C   UNL     1       1.302   7.391  20.438  0.00  0.00    +0.000 A 
ATOM      9  O   UNL     1       1.637   6.182  20.257  0.00  0.00    +0.000 OA
ATOM     10  C   UNL     1       2.240   5.841  19.195  0.00  0.00    +0.000 A 
ENDROOT
BRANCH  10  11
ATOM     11  C   UNL     1       2.594   4.396  19.103  0.00  0.00    +0.000 A 
ATOM     12  C   UNL     1       2.143   3.588  18.032  0.00  0.00    +0.000 A 
ATOM     13  C   UNL     1       2.601   2.282  17.832  0.00  0.00    +0.000 A 
ATOM     14  C   UNL     1       3.488   1.739  18.743  0.00  0.00    +0.000 A 
ATOM     15  C   UNL     1       3.889   2.478  19.849  0.00  0.00    +0.000 A 
ATOM     16  C   UNL     1       3.450   3.789  20.043  0.00  0.00    +0.000 A 
BRANCH  14  17
ATOM     17  O   UNL     1       4.001   0.481  18.585  0.00  0.00    +0.000 OA
ATOM     18  H   UNL     1       4.969   0.557  18.517  0.00  0.00    +0.000 HD
ENDBRANCH  14  17
BRANCH  15  19
ATOM     19  O   UNL     1       4.751   1.923  20.753  0.00  0.00    +0.000 OA
ATOM     20  H   UNL     1       4.341   1.064  20.993  0.00  0.00    +0.000 HD
ENDBRANCH  15  19
ENDBRANCH  10  11
BRANCH   4  21
ATOM     21  O   UNL     1       1.592  10.862  19.149  0.00  0.00    +0.000 OA
ATOM     22  H   UNL     1       1.923  11.598  19.689  0.00  0.00    +0.000 HD
ENDBRANCH   4  21
BRANCH   6  23
ATOM     23  O   UNL     1      -0.393   9.248  23.100  0.00  0.00    +0.000 OA
ATOM     24  H   UNL     1      -0.811   8.431  23.423  0.00  0.00    +0.000 HD
ENDBRANCH   6  23
BRANCH   1  25
ATOM     25  O   UNL     1       3.539   6.379  17.245  0.00  0.00    +0.000 OA
BRANCH  25  28
ATOM     26  C   UNL     1       5.854   5.021  18.037  0.00  0.00    +0.000 C 
ATOM     27  O   UNL     1       5.725   6.461  18.123  0.00  0.00    +0.000 OA
ATOM     28  C   UNL     1       4.836   6.977  17.120  0.00  0.00    +0.000 C 
ATOM     29  C   UNL     1       5.425   6.728  15.715  0.00  0.00    +0.000 C 
ATOM     30  C   UNL     1       5.667   5.219  15.529  0.00  0.00    +0.000 C 
ATOM     31  C   UNL     1       6.498   4.651  16.696  0.00  0.00    +0.000 C 
BRANCH  29  32
ATOM     32  O   UNL     1       4.600   7.233  14.663  0.00  0.00    +0.000 OA
ATOM     33  H   UNL     1       5.054   7.961  14.192  0.00  0.00    +0.000 HD
ENDBRANCH  29  32
BRANCH  30  34
ATOM     34  O   UNL     1       6.357   4.948  14.302  0.00  0.00    +0.000 OA
ATOM     35  H   UNL     1       7.217   4.562  14.553  0.00  0.00    +0.000 HD
ENDBRANCH  30  34
BRANCH  31  36
ATOM     36  O   UNL     1       7.839   5.169  16.599  0.00  0.00    +0.000 OA
ATOM     37  H   UNL     1       7.800   6.073  16.238  0.00  0.00    +0.000 HD
ENDBRANCH  31  36
BRANCH  26  38
ATOM     38  C   UNL     1       6.673   4.550  19.242  0.00  0.00    +0.000 C 
BRANCH  38  39
ATOM     39  O   UNL     1       7.686   5.521  19.527  0.00  0.00    +0.000 OA
ATOM     40  H   UNL     1       7.946   5.383  20.456  0.00  0.00    +0.000 HD
ENDBRANCH  38  39
ENDBRANCH  26  38
ENDBRANCH  25  28
ENDBRANCH   1  25
TORSDOF 12
ENDMDL
MODEL 4
REMARK VINA RESULT:      -6.9      1.754      4.774
REMARK  Name = 
REMARK  12 active torsions:
REMARK  status: ('A' for Active; 'I' for Inactive)
REMARK    1  A    between atoms: O_1  and  C_2
REMARK    2  A    between atoms: C_2  and  C_3
REMARK    3  A    between atoms: C_5  and  O_6
REMARK    4  A    between atoms: O_6  and  C_7
REMARK    5  A    between atoms: C_10  and  O_11
REMARK    6  A    between atoms: C_13  and  O_14
REMARK    7  A    between atoms: C_18  and  C_19
REMARK    8  A    between atoms: C_22  and  O_23
REMARK    9  A    between atoms: C_24  and  O_25
REMARK   10  A    between atoms: C_27  and  O_28
REMARK   11  A    between atoms: C_29  and  O_30
REMARK   12  A    between atoms: C_31  and  O_32
REMARK                            x       y       z     vdW  Elec       q    Type
REMARK                         _______ _______ _______ _____ _____    ______ ____
ROOT
ATOM      1  C   UNL     1       2.695   6.685  19.661  0.00  0.00    +0.000 A 
ATOM      2  C   UNL     1       1.698   7.327  20.365  0.00  0.00    +0.000 A 
ATOM      3  C   UNL     1       1.252   8.534  19.875  0.00  0.00    +0.000 A 
ATOM      4  C   UNL     1       0.178   9.254  20.454  0.00  0.00    +0.000 A 
ATOM      5  C   UNL     1      -0.259  10.449  19.898  0.00  0.00    +0.000 A 
ATOM      6  C   UNL     1       0.363  10.935  18.759  0.00  0.00    +0.000 A 
ATOM      7  C   UNL     1       1.424  10.243  18.171  0.00  0.00    +0.000 A 
ATOM      8  C   UNL     1       1.881   9.038  18.725  0.00  0.00    +0.000 A 
ATOM      9  O   UNL     1       2.809   8.439  18.105  0.00  0.00    +0.000 OA
ATOM     10  C   UNL     1       3.288   7.358  18.564  0.00  0.00    +0.000 A 
ENDROOT
BRANCH  10  11
ATOM     11  C   UNL     1       4.364   6.740  17.739  0.00  0.00    +0.000 A 
ATOM     12  C   UNL     1       4.277   6.685  16.327  0.00  0.00    +0.000 A 
ATOM     13  C   UNL     1       5.345   6.270  15.525  0.00  0.00    +0.000 A 
ATOM     14  C   UNL     1       6.512   5.847  16.133  0.00  0.00    +0.000 A 
ATOM     15  C   UNL     1       6.602   5.814  17.520  0.00  0.00    +0.000 A 
ATOM     16  C   UNL     1       5.546   6.245  18.325  0.00  0.00    +0.000 A 
BRANCH  14  17
ATOM     17  O   UNL     1       7.605   5.463  15.405  0.00  0.00    +0.000 OA
ATOM     18  H   UNL     1       7.952   6.248  14.946  0.00  0.00    +0.000 HD
ENDBRANCH  14  17
BRANCH  15  19
ATOM     19  O   UNL     1       7.754   5.376  18.110  0.00  0.00    +0.000 OA
ATOM     20  H   UNL     1       7.525   5.279  19.060  0.00  0.00    +0.000 HD
ENDBRANCH  15  19
ENDBRANCH  10  11
BRANCH   4  21
ATOM     21  O   UNL     1      -0.534   8.832  21.539  0.00  0.00    +0.000 OA
ATOM     22  H   UNL     1      -0.058   8.168  22.063  0.00  0.00    +0.000 HD
ENDBRANCH   4  21
BRANCH   6  23
ATOM     23  O   UNL     1      -0.064  12.092  18.176  0.00  0.00    +0.000 OA
ATOM     24  H   UNL     1      -0.967  11.974  17.832  0.00  0.00    +0.000 HD
ENDBRANCH   6  23
BRANCH   1  25
ATOM     25  O   UNL     1       3.139   5.425  19.986  0.00  0.00    +0.000 OA
BRANCH  25  28
ATOM     26  C   UNL     1       3.799   3.382  18.190  0.00  0.00    +0.000 C 
ATOM     27  O   UNL     1       2.433   3.802  18.428  0.00  0.00    +0.000 OA
ATOM     28  C   UNL     1       2.258   4.317  19.757  0.00  0.00    +0.000 C 
ATOM     29  C   UNL     1       2.502   3.198  20.793  0.00  0.00    +0.000 C 
ATOM     30  C   UNL     1       3.916   2.625  20.594  0.00  0.00    +0.000 C 
ATOM     31  C   UNL     1       4.139   2.215  19.126  0.00  0.00    +0.000 C 
BRANCH  29  32
ATOM     32  O   UNL     1       2.326   3.635  22.143  0.00  0.00    +0.000 OA
ATOM     33  H   UNL     1       1.704   4.390  22.180  0.00  0.00    +0.000 HD
ENDBRANCH  29  32
BRANCH  30  34
ATOM     34  O   UNL     1       4.136   1.478  21.427  0.00  0.00    +0.000 OA
ATOM     35  H   UNL     1       5.060   1.204  21.273  0.00  0.00    +0.000 HD
ENDBRANCH  30  34
BRANCH  31  36
ATOM     36  O   UNL     1       3.322   1.063  18.841  0.00  0.00    +0.000 OA
ATOM     37  H   UNL     1       3.858   0.259  18.971  0.00  0.00    +0.000 HD
ENDBRANCH  31  36
BRANCH  26  38
ATOM     38  C   UNL     1       3.928   3.016  16.709  0.00  0.00    +0.000 C 
BRANCH  38  39
ATOM     39  O   UNL     1       5.310   2.818  16.396  0.00  0.00    +0.000 OA
ATOM     40  H   UNL     1       5.676   2.259  17.105  0.00  0.00    +0.000 HD
ENDBRANCH  38  39
ENDBRANCH  26  38
ENDBRANCH  25  28
ENDBRANCH   1  25
TORSDOF 12
ENDMDL
MODEL 5
REMARK VINA RESULT:      -6.9      1.045      1.265
REMARK  Name = 
REMARK  12 active torsions:
REMARK  status: ('A' for Active; 'I' for Inactive)
REMARK    1  A    between atoms: O_1  and  C_2
REMARK    2  A    between atoms: C_2  and  C_3
REMARK    3  A    between atoms: C_5  and  O_6
REMARK    4  A    between atoms: O_6  and  C_7
REMARK    5  A    between atoms: C_10  and  O_11
REMARK    6  A    between atoms: C_13  and  O_14
REMARK    7  A    between atoms: C_18  and  C_19
REMARK    8  A    between atoms: C_22  and  O_23
REMARK    9  A    between atoms: C_24  and  O_25
REMARK   10  A    between atoms: C_27  and  O_28
REMARK   11  A    between atoms: C_29  and  O_30
REMARK   12  A    between atoms: C_31  and  O_32
REMARK                            x       y       z     vdW  Elec       q    Type
REMARK                         _______ _______ _______ _____ _____    ______ ____
ROOT
ATOM      1  C   UNL     1       3.032   7.166  17.960  0.00  0.00    +0.000 A 
ATOM      2  C   UNL     1       2.948   8.480  17.550  0.00  0.00    +0.000 A 
ATOM      3  C   UNL     1       2.199   9.339  18.323  0.00  0.00    +0.000 A 
ATOM      4  C   UNL     1       2.101  10.727  18.062  0.00  0.00    +0.000 A 
ATOM      5  C   UNL     1       1.364  11.558  18.895  0.00  0.00    +0.000 A 
ATOM      6  C   UNL     1       0.724  11.017  19.999  0.00  0.00    +0.000 A 
ATOM      7  C   UNL     1       0.806   9.651  20.277  0.00  0.00    +0.000 A 
ATOM      8  C   UNL     1       1.542   8.799  19.441  0.00  0.00    +0.000 A 
ATOM      9  O   UNL     1       1.618   7.582  19.788  0.00  0.00    +0.000 OA
ATOM     10  C   UNL     1       2.245   6.752  19.063  0.00  0.00    +0.000 A 
ENDROOT
BRANCH  10  11
ATOM     11  C   UNL     1       2.277   5.355  19.583  0.00  0.00    +0.000 A 
ATOM     12  C   UNL     1       2.401   5.081  20.966  0.00  0.00    +0.000 A 
ATOM     13  C   UNL     1       2.260   3.792  21.492  0.00  0.00    +0.000 A 
ATOM     14  C   UNL     1       2.043   2.738  20.625  0.00  0.00    +0.000 A 
ATOM     15  C   UNL     1       1.995   2.962  19.254  0.00  0.00    +0.000 A 
ATOM     16  C   UNL     1       2.117   4.248  18.726  0.00  0.00    +0.000 A 
BRANCH  14  17
ATOM     17  O   UNL     1       1.861   1.460  21.078  0.00  0.00    +0.000 OA
ATOM     18  H   UNL     1       2.495   1.303  21.800  0.00  0.00    +0.000 HD
ENDBRANCH  14  17
BRANCH  15  19
ATOM     19  O   UNL     1       1.799   1.908  18.406  0.00  0.00    +0.000 OA
ATOM     20  H   UNL     1       2.315   2.138  17.602  0.00  0.00    +0.000 HD
ENDBRANCH  15  19
ENDBRANCH  10  11
BRANCH   4  21
ATOM     21  O   UNL     1       2.738  11.364  17.036  0.00  0.00    +0.000 OA
ATOM     22  H   UNL     1       3.373  10.790  16.578  0.00  0.00    +0.000 HD
ENDBRANCH   4  21
BRANCH   6  23
ATOM     23  O   UNL     1       0.017  11.814  20.850  0.00  0.00    +0.000 OA
ATOM     24  H   UNL     1       0.391  12.712  20.849  0.00  0.00    +0.000 HD
ENDBRANCH   6  23
BRANCH   1  25
ATOM     25  O   UNL     1       3.840   6.245  17.338  0.00  0.00    +0.000 OA
BRANCH  25  28
ATOM     26  C   UNL     1       6.206   5.296  18.493  0.00  0.00    +0.000 C 
ATOM     27  O   UNL     1       6.088   6.628  17.936  0.00  0.00    +0.000 OA
ATOM     28  C   UNL     1       5.125   6.677  16.871  0.00  0.00    +0.000 C 
ATOM     29  C   UNL     1       5.603   5.807  15.689  0.00  0.00    +0.000 C 
ATOM     30  C   UNL     1       5.826   4.365  16.180  0.00  0.00    +0.000 C 
ATOM     31  C   UNL     1       6.743   4.345  17.417  0.00  0.00    +0.000 C 
BRANCH  29  32
ATOM     32  O   UNL     1       4.700   5.822  14.581  0.00  0.00    +0.000 OA
ATOM     33  H   UNL     1       4.216   4.973  14.523  0.00  0.00    +0.000 HD
ENDBRANCH  29  32
BRANCH  30  34
ATOM     34  O   UNL     1       6.418   3.552  15.158  0.00  0.00    +0.000 OA
ATOM     35  H   UNL     1       6.126   3.928  14.307  0.00  0.00    +0.000 HD
ENDBRANCH  30  34
BRANCH  31  36
ATOM     36  O   UNL     1       8.074   4.716  17.009  0.00  0.00    +0.000 OA
ATOM     37  H   UNL     1       8.562   5.038  17.789  0.00  0.00    +0.000 HD
ENDBRANCH  31  36
BRANCH  26  38
ATOM     38  C   UNL     1       7.114   5.380  19.723  0.00  0.00    +0.000 C 
BRANCH  38  39
ATOM     39  O   UNL     1       8.230   6.225  19.422  0.00  0.00    +0.000 OA
ATOM     40  H   UNL     1       8.779   5.739  18.779  0.00  0.00    +0.000 HD
ENDBRANCH  38  39
ENDBRANCH  26  38
ENDBRANCH  25  28
ENDBRANCH   1  25
TORSDOF 12
ENDMDL
MODEL 6
REMARK VINA RESULT:      -6.9      1.716      5.027
REMARK  Name = 
REMARK  12 active torsions:
REMARK  status: ('A' for Active; 'I' for Inactive)
REMARK    1  A    between atoms: O_1  and  C_2
REMARK    2  A    between atoms: C_2  and  C_3
REMARK    3  A    between atoms: C_5  and  O_6
REMARK    4  A    between atoms: O_6  and  C_7
REMARK    5  A    between atoms: C_10  and  O_11
REMARK    6  A    between atoms: C_13  and  O_14
REMARK    7  A    between atoms: C_18  and  C_19
REMARK    8  A    between atoms: C_22  and  O_23
REMARK    9  A    between atoms: C_24  and  O_25
REMARK   10  A    between atoms: C_27  and  O_28
REMARK   11  A    between atoms: C_29  and  O_30
REMARK   12  A    between atoms: C_31  and  O_32
REMARK                            x       y       z     vdW  Elec       q    Type
REMARK                         _______ _______ _______ _____ _____    ______ ____
ROOT
ATOM      1  C   UNL     1       3.547   5.940  19.482  0.00  0.00    +0.000 A 
ATOM      2  C   UNL     1       2.629   6.599  20.271  0.00  0.00    +0.000 A 
ATOM      3  C   UNL     1       2.043   7.731  19.752  0.00  0.00    +0.000 A 
ATOM      4  C   UNL     1       1.025   8.452  20.423  0.00  0.00    +0.000 A 
ATOM      5  C   UNL     1       0.439   9.567  19.838  0.00  0.00    +0.000 A 
ATOM      6  C   UNL     1       0.854   9.970  18.578  0.00  0.00    +0.000 A 
ATOM      7  C   UNL     1       1.857   9.276  17.898  0.00  0.00    +0.000 A 
ATOM      8  C   UNL     1       2.462   8.152  18.479  0.00  0.00    +0.000 A 
ATOM      9  O   UNL     1       3.323   7.540  17.779  0.00  0.00    +0.000 OA
ATOM     10  C   UNL     1       3.929   6.531  18.253  0.00  0.00    +0.000 A 
ENDROOT
BRANCH  10  11
ATOM     11  C   UNL     1       4.907   5.888  17.329  0.00  0.00    +0.000 A 
ATOM     12  C   UNL     1       4.775   5.986  15.923  0.00  0.00    +0.000 A 
ATOM     13  C   UNL     1       5.768   5.542  15.044  0.00  0.00    +0.000 A 
ATOM     14  C   UNL     1       6.898   4.937  15.562  0.00  0.00    +0.000 A 
ATOM     15  C   UNL     1       7.021   4.753  16.934  0.00  0.00    +0.000 A 
ATOM     16  C   UNL     1       6.042   5.211  17.818  0.00  0.00    +0.000 A 
BRANCH  14  17
ATOM     17  O   UNL     1       7.920   4.513  14.758  0.00  0.00    +0.000 OA
ATOM     18  H   UNL     1       8.759   4.691  15.220  0.00  0.00    +0.000 HD
ENDBRANCH  14  17
BRANCH  15  19
ATOM     19  O   UNL     1       8.134   4.136  17.434  0.00  0.00    +0.000 OA
ATOM     20  H   UNL     1       8.831   4.829  17.417  0.00  0.00    +0.000 HD
ENDBRANCH  15  19
ENDBRANCH  10  11
BRANCH   4  21
ATOM     21  O   UNL     1       0.508   8.103  21.637  0.00  0.00    +0.000 OA
ATOM     22  H   UNL     1       0.508   7.143  21.781  0.00  0.00    +0.000 HD
ENDBRANCH   4  21
BRANCH   6  23
ATOM     23  O   UNL     1       0.277  11.044  17.969  0.00  0.00    +0.000 OA
ATOM     24  H   UNL     1       0.279  10.918  17.004  0.00  0.00    +0.000 HD
ENDBRANCH   6  23
BRANCH   1  25
ATOM     25  O   UNL     1       4.110   4.738  19.844  0.00  0.00    +0.000 OA
BRANCH  25  28
ATOM     26  C   UNL     1       2.056   3.483  18.416  0.00  0.00    +0.000 C 
ATOM     27  O   UNL     1       1.972   3.746  19.838  0.00  0.00    +0.000 OA
ATOM     28  C   UNL     1       3.268   3.753  20.456  0.00  0.00    +0.000 C 
ATOM     29  C   UNL     1       3.904   2.350  20.362  0.00  0.00    +0.000 C 
ATOM     30  C   UNL     1       3.989   1.931  18.883  0.00  0.00    +0.000 C 
ATOM     31  C   UNL     1       2.618   2.074  18.195  0.00  0.00    +0.000 C 
BRANCH  29  32
ATOM     32  O   UNL     1       5.193   2.276  20.976  0.00  0.00    +0.000 OA
ATOM     33  H   UNL     1       5.313   3.012  21.609  0.00  0.00    +0.000 HD
ENDBRANCH  29  32
BRANCH  30  34
ATOM     34  O   UNL     1       4.429   0.573  18.750  0.00  0.00    +0.000 OA
ATOM     35  H   UNL     1       3.871   0.046  19.351  0.00  0.00    +0.000 HD
ENDBRANCH  30  34
BRANCH  31  36
ATOM     36  O   UNL     1       1.731   1.069  18.726  0.00  0.00    +0.000 OA
ATOM     37  H   UNL     1       1.333   0.579  17.982  0.00  0.00    +0.000 HD
ENDBRANCH  31  36
BRANCH  26  38
ATOM     38  C   UNL     1       0.658   3.668  17.820  0.00  0.00    +0.000 C 
BRANCH  38  39
ATOM     39  O   UNL     1       0.719   4.652  16.782  0.00  0.00    +0.000 OA
ATOM     40  H   UNL     1       1.461   5.243  17.006  0.00  0.00    +0.000 HD
ENDBRANCH  38  39
ENDBRANCH  26  38
ENDBRANCH  25  28
ENDBRANCH   1  25
TORSDOF 12
ENDMDL
MODEL 7
REMARK VINA RESULT:      -6.8      1.582      4.832
REMARK  Name = 
REMARK  12 active torsions:
REMARK  status: ('A' for Active; 'I' for Inactive)
REMARK    1  A    between atoms: O_1  and  C_2
REMARK    2  A    between atoms: C_2  and  C_3
REMARK    3  A    between atoms: C_5  and  O_6
REMARK    4  A    between atoms: O_6  and  C_7
REMARK    5  A    between atoms: C_10  and  O_11
REMARK    6  A    between atoms: C_13  and  O_14
REMARK    7  A    between atoms: C_18  and  C_19
REMARK    8  A    between atoms: C_22  and  O_23
REMARK    9  A    between atoms: C_24  and  O_25
REMARK   10  A    between atoms: C_27  and  O_28
REMARK   11  A    between atoms: C_29  and  O_30
REMARK   12  A    between atoms: C_31  and  O_32
REMARK                            x       y       z     vdW  Elec       q    Type
REMARK                         _______ _______ _______ _____ _____    ______ ____
ROOT
ATOM      1  C   UNL     1       2.583   6.805  19.132  0.00  0.00    +0.000 A 
ATOM      2  C   UNL     1       1.672   7.608  19.785  0.00  0.00    +0.000 A 
ATOM      3  C   UNL     1       1.558   8.913  19.362  0.00  0.00    +0.000 A 
ATOM      4  C   UNL     1       0.603   9.815  19.890  0.00  0.00    +0.000 A 
ATOM      5  C   UNL     1       0.503  11.111  19.402  0.00  0.00    +0.000 A 
ATOM      6  C   UNL     1       1.345  11.518  18.378  0.00  0.00    +0.000 A 
ATOM      7  C   UNL     1       2.295  10.646  17.842  0.00  0.00    +0.000 A 
ATOM      8  C   UNL     1       2.412   9.336  18.330  0.00  0.00    +0.000 A 
ATOM      9  O   UNL     1       3.256   8.585  17.757  0.00  0.00    +0.000 OA
ATOM     10  C   UNL     1       3.433   7.398  18.165  0.00  0.00    +0.000 A 
ENDROOT
BRANCH  10  11
ATOM     11  C   UNL     1       4.441   6.608  17.401  0.00  0.00    +0.000 A 
ATOM     12  C   UNL     1       4.586   6.748  16.000  0.00  0.00    +0.000 A 
ATOM     13  C   UNL     1       5.634   6.152  15.291  0.00  0.00    +0.000 A 
ATOM     14  C   UNL     1       6.533   5.354  15.973  0.00  0.00    +0.000 A 
ATOM     15  C   UNL     1       6.372   5.132  17.336  0.00  0.00    +0.000 A 
ATOM     16  C   UNL     1       5.339   5.739  18.052  0.00  0.00    +0.000 A 
BRANCH  14  17
ATOM     17  O   UNL     1       7.600   4.772  15.345  0.00  0.00    +0.000 OA
ATOM     18  H   UNL     1       8.389   4.913  15.898  0.00  0.00    +0.000 HD
ENDBRANCH  14  17
BRANCH  15  19
ATOM     19  O   UNL     1       7.257   4.325  17.996  0.00  0.00    +0.000 OA
ATOM     20  H   UNL     1       6.736   3.938  18.734  0.00  0.00    +0.000 HD
ENDBRANCH  15  19
ENDBRANCH  10  11
BRANCH   4  21
ATOM     21  O   UNL     1      -0.307   9.495  20.856  0.00  0.00    +0.000 OA
ATOM     22  H   UNL     1      -1.220   9.682  20.584  0.00  0.00    +0.000 HD
ENDBRANCH   4  21
BRANCH   6  23
ATOM     23  O   UNL     1       1.249  12.776  17.861  0.00  0.00    +0.000 OA
ATOM     24  H   UNL     1       0.549  13.270  18.322  0.00  0.00    +0.000 HD
ENDBRANCH   6  23
BRANCH   1  25
ATOM     25  O   UNL     1       2.704   5.460  19.386  0.00  0.00    +0.000 OA
BRANCH  25  28
ATOM     26  C   UNL     1       3.356   2.808  18.773  0.00  0.00    +0.000 C 
ATOM     27  O   UNL     1       2.404   3.578  17.998  0.00  0.00    +0.000 OA
ATOM     28  C   UNL     1       1.744   4.571  18.800  0.00  0.00    +0.000 C 
ATOM     29  C   UNL     1       0.889   3.887  19.888  0.00  0.00    +0.000 C 
ATOM     30  C   UNL     1       1.793   2.982  20.745  0.00  0.00    +0.000 C 
ATOM     31  C   UNL     1       2.607   2.023  19.857  0.00  0.00    +0.000 C 
BRANCH  29  32
ATOM     32  O   UNL     1       0.186   4.816  20.716  0.00  0.00    +0.000 OA
ATOM     33  H   UNL     1       0.028   4.433  21.603  0.00  0.00    +0.000 HD
ENDBRANCH  29  32
BRANCH  30  34
ATOM     34  O   UNL     1       1.023   2.204  21.672  0.00  0.00    +0.000 OA
ATOM     35  H   UNL     1       1.639   1.555  22.059  0.00  0.00    +0.000 HD
ENDBRANCH  30  34
BRANCH  31  36
ATOM     36  O   UNL     1       1.707   1.059  19.276  0.00  0.00    +0.000 OA
ATOM     37  H   UNL     1       0.793   1.302  19.513  0.00  0.00    +0.000 HD
ENDBRANCH  31  36
BRANCH  26  38
ATOM     38  C   UNL     1       4.126   1.905  17.807  0.00  0.00    +0.000 C 
BRANCH  38  39
ATOM     39  O   UNL     1       4.365   0.642  18.438  0.00  0.00    +0.000 OA
ATOM     40  H   UNL     1       3.490   0.243  18.596  0.00  0.00    +0.000 HD
ENDBRANCH  38  39
ENDBRANCH  26  38
ENDBRANCH  25  28
ENDBRANCH   1  25
TORSDOF 12
ENDMDL
MODEL 8
REMARK VINA RESULT:      -6.8      1.408      1.862
REMARK  Name = 
REMARK  12 active torsions:
REMARK  status: ('A' for Active; 'I' for Inactive)
REMARK    1  A    between atoms: O_1  and  C_2
REMARK    2  A    between atoms: C_2  and  C_3
REMARK    3  A    between atoms: C_5  and  O_6
REMARK    4  A    between atoms: O_6  and  C_7
REMARK    5  A    between atoms: C_10  and  O_11
REMARK    6  A    between atoms: C_13  and  O_14
REMARK    7  A    between atoms: C_18  and  C_19
REMARK    8  A    between atoms: C_22  and  O_23
REMARK    9  A    between atoms: C_24  and  O_25
REMARK   10  A    between atoms: C_27  and  O_28
REMARK   11  A    between atoms: C_29  and  O_30
REMARK   12  A    between atoms: C_31  and  O_32
REMARK                            x       y       z     vdW  Elec       q    Type
REMARK                         _______ _______ _______ _____ _____    ______ ____
ROOT
ATOM      1  C   UNL     1       3.051   6.760  18.155  0.00  0.00    +0.000 A 
ATOM      2  C   UNL     1       2.800   8.047  17.732  0.00  0.00    +0.000 A 
ATOM      3  C   UNL     1       2.096   8.869  18.583  0.00  0.00    +0.000 A 
ATOM      4  C   UNL     1       1.845  10.235  18.307  0.00  0.00    +0.000 A 
ATOM      5  C   UNL     1       1.162  11.031  19.217  0.00  0.00    +0.000 A 
ATOM      6  C   UNL     1       0.731  10.478  20.413  0.00  0.00    +0.000 A 
ATOM      7  C   UNL     1       0.967   9.134  20.707  0.00  0.00    +0.000 A 
ATOM      8  C   UNL     1       1.649   8.316  19.794  0.00  0.00    +0.000 A 
ATOM      9  O   UNL     1       1.875   7.122  20.154  0.00  0.00    +0.000 OA
ATOM     10  C   UNL     1       2.464   6.320  19.367  0.00  0.00    +0.000 A 
ENDROOT
BRANCH  10  11
ATOM     11  C   UNL     1       2.687   4.949  19.909  0.00  0.00    +0.000 A 
ATOM     12  C   UNL     1       3.790   4.161  19.502  0.00  0.00    +0.000 A 
ATOM     13  C   UNL     1       4.115   2.950  20.121  0.00  0.00    +0.000 A 
ATOM     14  C   UNL     1       3.301   2.477  21.132  0.00  0.00    +0.000 A 
ATOM     15  C   UNL     1       2.165   3.187  21.501  0.00  0.00    +0.000 A 
ATOM     16  C   UNL     1       1.846   4.406  20.900  0.00  0.00    +0.000 A 
BRANCH  14  17
ATOM     17  O   UNL     1       3.584   1.317  21.801  0.00  0.00    +0.000 OA
ATOM     18  H   UNL     1       2.760   0.996  22.209  0.00  0.00    +0.000 HD
ENDBRANCH  14  17
BRANCH  15  19
ATOM     19  O   UNL     1       1.357   2.699  22.490  0.00  0.00    +0.000 OA
ATOM     20  H   UNL     1       0.598   3.322  22.520  0.00  0.00    +0.000 HD
ENDBRANCH  15  19
ENDBRANCH  10  11
BRANCH   4  21
ATOM     21  O   UNL     1       2.276  10.886  17.187  0.00  0.00    +0.000 OA
ATOM     22  H   UNL     1       1.639  10.833  16.457  0.00  0.00    +0.000 HD
ENDBRANCH   4  21
BRANCH   6  23
ATOM     23  O   UNL     1       0.084  11.244  21.337  0.00  0.00    +0.000 OA
ATOM     24  H   UNL     1      -0.622  10.725  21.760  0.00  0.00    +0.000 HD
ENDBRANCH   6  23
BRANCH   1  25
ATOM     25  O   UNL     1       3.841   5.886  17.445  0.00  0.00    +0.000 OA
BRANCH  25  28
ATOM     26  C   UNL     1       6.380   5.327  18.481  0.00  0.00    +0.000 C 
ATOM     27  O   UNL     1       6.068   6.569  17.802  0.00  0.00    +0.000 OA
ATOM     28  C   UNL     1       5.029   6.396  16.826  0.00  0.00    +0.000 C 
ATOM     29  C   UNL     1       5.512   5.455  15.702  0.00  0.00    +0.000 C 
ATOM     30  C   UNL     1       5.935   4.109  16.318  0.00  0.00    +0.000 C 
ATOM     31  C   UNL     1       6.939   4.323  17.466  0.00  0.00    +0.000 C 
BRANCH  29  32
ATOM     32  O   UNL     1       4.532   5.250  14.682  0.00  0.00    +0.000 OA
ATOM     33  H   UNL     1       3.631   5.275  15.063  0.00  0.00    +0.000 HD
ENDBRANCH  29  32
BRANCH  30  34
ATOM     34  O   UNL     1       6.538   3.253  15.337  0.00  0.00    +0.000 OA
ATOM     35  H   UNL     1       6.790   3.830  14.592  0.00  0.00    +0.000 HD
ENDBRANCH  30  34
BRANCH  31  36
ATOM     36  O   UNL     1       8.185   4.785  16.907  0.00  0.00    +0.000 OA
ATOM     37  H   UNL     1       8.164   4.649  15.941  0.00  0.00    +0.000 HD
ENDBRANCH  31  36
BRANCH  26  38
ATOM     38  C   UNL     1       7.363   5.643  19.611  0.00  0.00    +0.000 C 
BRANCH  38  39
ATOM     39  O   UNL     1       8.301   6.623  19.154  0.00  0.00    +0.000 OA
ATOM     40  H   UNL     1       8.980   6.701  19.849  0.00  0.00    +0.000 HD
ENDBRANCH  38  39
ENDBRANCH  26  38
ENDBRANCH  25  28
ENDBRANCH   1  25
TORSDOF 12
ENDMDL
MODEL 9
REMARK VINA RESULT:      -6.8      1.756      5.113
REMARK  Name = 
REMARK  12 active torsions:
REMARK  status: ('A' for Active; 'I' for Inactive)
REMARK    1  A    between atoms: O_1  and  C_2
REMARK    2  A    between atoms: C_2  and  C_3
REMARK    3  A    between atoms: C_5  and  O_6
REMARK    4  A    between atoms: O_6  and  C_7
REMARK    5  A    between atoms: C_10  and  O_11
REMARK    6  A    between atoms: C_13  and  O_14
REMARK    7  A    between atoms: C_18  and  C_19
REMARK    8  A    between atoms: C_22  and  O_23
REMARK    9  A    between atoms: C_24  and  O_25
REMARK   10  A    between atoms: C_27  and  O_28
REMARK   11  A    between atoms: C_29  and  O_30
REMARK   12  A    between atoms: C_31  and  O_32
REMARK                            x       y       z     vdW  Elec       q    Type
REMARK                         _______ _______ _______ _____ _____    ______ ____
ROOT
ATOM      1  C   UNL     1       3.796   5.677  19.205  0.00  0.00    +0.000 A 
ATOM      2  C   UNL     1       3.052   6.429  20.089  0.00  0.00    +0.000 A 
ATOM      3  C   UNL     1       2.398   7.532  19.590  0.00  0.00    +0.000 A 
ATOM      4  C   UNL     1       1.535   8.338  20.372  0.00  0.00    +0.000 A 
ATOM      5  C   UNL     1       0.868   9.419  19.811  0.00  0.00    +0.000 A 
ATOM      6  C   UNL     1       1.048   9.704  18.466  0.00  0.00    +0.000 A 
ATOM      7  C   UNL     1       1.895   8.924  17.675  0.00  0.00    +0.000 A 
ATOM      8  C   UNL     1       2.579   7.833  18.230  0.00  0.00    +0.000 A 
ATOM      9  O   UNL     1       3.285   7.138  17.439  0.00  0.00    +0.000 OA
ATOM     10  C   UNL     1       3.952   6.153  17.879  0.00  0.00    +0.000 A 
ENDROOT
BRANCH  10  11
ATOM     11  C   UNL     1       4.730   5.405  16.851  0.00  0.00    +0.000 A 
ATOM     12  C   UNL     1       4.214   4.241  16.232  0.00  0.00    +0.000 A 
ATOM     13  C   UNL     1       4.847   3.625  15.147  0.00  0.00    +0.000 A 
ATOM     14  C   UNL     1       6.047   4.138  14.695  0.00  0.00    +0.000 A 
ATOM     15  C   UNL     1       6.621   5.232  15.332  0.00  0.00    +0.000 A 
ATOM     16  C   UNL     1       5.985   5.863  16.403  0.00  0.00    +0.000 A 
BRANCH  14  17
ATOM     17  O   UNL     1       6.698   3.604  13.617  0.00  0.00    +0.000 OA
ATOM     18  H   UNL     1       7.620   3.432  13.877  0.00  0.00    +0.000 HD
ENDBRANCH  14  17
BRANCH  15  19
ATOM     19  O   UNL     1       7.818   5.719  14.887  0.00  0.00    +0.000 OA
ATOM     20  H   UNL     1       7.618   6.103  14.006  0.00  0.00    +0.000 HD
ENDBRANCH  15  19
ENDBRANCH  10  11
BRANCH   4  21
ATOM     21  O   UNL     1       1.248   8.108  21.687  0.00  0.00    +0.000 OA
ATOM     22  H   UNL     1       1.908   7.543  22.119  0.00  0.00    +0.000 HD
ENDBRANCH   4  21
BRANCH   6  23
ATOM     23  O   UNL     1       0.384  10.742  17.882  0.00  0.00    +0.000 OA
ATOM     24  H   UNL     1      -0.170  10.412  17.153  0.00  0.00    +0.000 HD
ENDBRANCH   6  23
BRANCH   1  25
ATOM     25  O   UNL     1       4.397   4.493  19.560  0.00  0.00    +0.000 OA
BRANCH  25  28
ATOM     26  C   UNL     1       1.995   3.357  18.682  0.00  0.00    +0.000 C 
ATOM     27  O   UNL     1       2.257   3.649  20.076  0.00  0.00    +0.000 OA
ATOM     28  C   UNL     1       3.659   3.578  20.381  0.00  0.00    +0.000 C 
ATOM     29  C   UNL     1       4.167   2.133  20.189  0.00  0.00    +0.000 C 
ATOM     30  C   UNL     1       3.882   1.685  18.744  0.00  0.00    +0.000 C 
ATOM     31  C   UNL     1       2.401   1.909  18.384  0.00  0.00    +0.000 C 
BRANCH  29  32
ATOM     32  O   UNL     1       5.556   1.981  20.492  0.00  0.00    +0.000 OA
ATOM     33  H   UNL     1       5.824   2.612  21.192  0.00  0.00    +0.000 HD
ENDBRANCH  29  32
BRANCH  30  34
ATOM     34  O   UNL     1       4.193   0.297  18.557  0.00  0.00    +0.000 OA
ATOM     35  H   UNL     1       4.995   0.270  18.003  0.00  0.00    +0.000 HD
ENDBRANCH  30  34
BRANCH  31  36
ATOM     36  O   UNL     1       1.599   0.976  19.136  0.00  0.00    +0.000 OA
ATOM     37  H   UNL     1       0.659   1.144  18.940  0.00  0.00    +0.000 HD
ENDBRANCH  31  36
BRANCH  26  38
ATOM     38  C   UNL     1       0.511   3.627  18.417  0.00  0.00    +0.000 C 
BRANCH  38  39
ATOM     39  O   UNL     1      -0.270   2.975  19.424  0.00  0.00    +0.000 OA
ATOM     40  H   UNL     1       0.304   2.294  19.820  0.00  0.00    +0.000 HD
ENDBRANCH  38  39
ENDBRANCH  26  38
ENDBRANCH  25  28
ENDBRANCH   1  25
TORSDOF 12
ENDMDL
