MODEL 1
REMARK VINA RESULT:      -7.1      0.000      0.000
REMARK  Name = 
REMARK  3 active torsions:
REMARK  status: ('A' for Active; 'I' for Inactive)
REMARK    1  A    between atoms: O_1  and  C_2
REMARK    2  A    between atoms: C_4  and  C_5
REMARK    3  A    between atoms: C_5  and  C_6
REMARK                            x       y       z     vdW  Elec       q    Type
REMARK                         _______ _______ _______ _____ _____    ______ ____
ROOT
ATOM      1  C   UNL     1       2.027   3.797  17.710  0.00  0.00    +0.000 A 
ATOM      2  N   UNL     1       3.076   3.921  16.891  0.00  0.00    +0.000 NA
ATOM      3  C   UNL     1       4.260   3.571  17.427  0.00  0.00    +0.000 A 
ATOM      4  N   UNL     1       4.428   3.115  18.689  0.00  0.00    +0.000 NA
ATOM      5  C   UNL     1       3.345   3.037  19.479  0.00  0.00    +0.000 A 
ATOM      6  C   UNL     1       3.483   2.656  20.808  0.00  0.00    +0.000 A 
ATOM      7  C   UNL     1       2.391   2.622  21.684  0.00  0.00    +0.000 A 
ATOM      8  C   UNL     1       1.118   2.927  21.216  0.00  0.00    +0.000 A 
ATOM      9  C   UNL     1       0.949   3.284  19.883  0.00  0.00    +0.000 A 
ATOM     10  C   UNL     1       2.069   3.365  19.025  0.00  0.00    +0.000 A 
ENDROOT
BRANCH   1  11
ATOM     11  O   UNL     1       0.858   4.212  17.143  0.00  0.00    +0.000 OA
ATOM     12  H   UNL     1       0.622   3.420  16.630  0.00  0.00    +0.000 HD
ENDBRANCH   1  11
BRANCH   3  13
ATOM     13  C   UNL     1       5.509   3.803  16.602  0.00  0.00    +0.000 C 
BRANCH  13  14
ATOM     14  C   UNL     1       6.245   5.041  17.044  0.00  0.00    +0.000 A 
ATOM     15  C   UNL     1       7.365   5.124  17.852  0.00  0.00    +0.000 A 
ATOM     16  C   UNL     1       7.734   6.470  18.134  0.00  0.00    +0.000 A 
ATOM     17  C   UNL     1       6.912   7.371  17.497  0.00  0.00    +0.000 A 
ATOM     18  S   UNL     1       5.708   6.595  16.561  0.00  0.00    +0.000 S 
ENDBRANCH  13  14
ENDBRANCH   3  13
TORSDOF 3
ENDMDL
MODEL 2
REMARK VINA RESULT:      -7.1      0.791      1.014
REMARK  Name = 
REMARK  3 active torsions:
REMARK  status: ('A' for Active; 'I' for Inactive)
REMARK    1  A    between atoms: O_1  and  C_2
REMARK    2  A    between atoms: C_4  and  C_5
REMARK    3  A    between atoms: C_5  and  C_6
REMARK                            x       y       z     vdW  Elec       q    Type
REMARK                         _______ _______ _______ _____ _____    ______ ____
ROOT
ATOM      1  C   UNL     1       2.043   3.869  17.717  0.00  0.00    +0.000 A 
ATOM      2  N   UNL     1       3.092   4.049  16.909  0.00  0.00    +0.000 NA
ATOM      3  C   UNL     1       4.284   3.726  17.444  0.00  0.00    +0.000 A 
ATOM      4  N   UNL     1       4.460   3.245  18.695  0.00  0.00    +0.000 NA
ATOM      5  C   UNL     1       3.376   3.110  19.475  0.00  0.00    +0.000 A 
ATOM      6  C   UNL     1       3.519   2.700  20.796  0.00  0.00    +0.000 A 
ATOM      7  C   UNL     1       2.423   2.606  21.663  0.00  0.00    +0.000 A 
ATOM      8  C   UNL     1       1.143   2.880  21.194  0.00  0.00    +0.000 A 
ATOM      9  C   UNL     1       0.970   3.265  19.869  0.00  0.00    +0.000 A 
ATOM     10  C   UNL     1       2.092   3.406  19.022  0.00  0.00    +0.000 A 
ENDROOT
BRANCH   1  11
ATOM     11  O   UNL     1       0.863   4.258  17.154  0.00  0.00    +0.000 OA
ATOM     12  H   UNL     1       1.156   4.436  16.243  0.00  0.00    +0.000 HD
ENDBRANCH   1  11
BRANCH   3  13
ATOM     13  C   UNL     1       5.529   4.022  16.634  0.00  0.00    +0.000 C 
BRANCH  13  14
ATOM     14  C   UNL     1       6.237   5.255  17.132  0.00  0.00    +0.000 A 
ATOM     15  C   UNL     1       5.987   6.575  16.799  0.00  0.00    +0.000 A 
ATOM     16  C   UNL     1       6.918   7.471  17.394  0.00  0.00    +0.000 A 
ATOM     17  C   UNL     1       7.821   6.814  18.198  0.00  0.00    +0.000 A 
ATOM     18  S   UNL     1       7.541   5.127  18.236  0.00  0.00    +0.000 S 
ENDBRANCH  13  14
ENDBRANCH   3  13
TORSDOF 3
ENDMDL
MODEL 3
REMARK VINA RESULT:      -7.1      2.228      2.880
REMARK  Name = 
REMARK  3 active torsions:
REMARK  status: ('A' for Active; 'I' for Inactive)
REMARK    1  A    between atoms: O_1  and  C_2
REMARK    2  A    between atoms: C_4  and  C_5
REMARK    3  A    between atoms: C_5  and  C_6
REMARK                            x       y       z     vdW  Elec       q    Type
REMARK                         _______ _______ _______ _____ _____    ______ ____
ROOT
ATOM      1  C   UNL     1       2.264   6.126  19.868  0.00  0.00    +0.000 A 
ATOM      2  N   UNL     1       3.050   6.868  19.082  0.00  0.00    +0.000 NA
ATOM      3  C   UNL     1       3.423   6.277  17.931  0.00  0.00    +0.000 A 
ATOM      4  N   UNL     1       3.052   5.034  17.549  0.00  0.00    +0.000 NA
ATOM      5  C   UNL     1       2.285   4.321  18.389  0.00  0.00    +0.000 A 
ATOM      6  C   UNL     1       1.951   3.008  18.077  0.00  0.00    +0.000 A 
ATOM      7  C   UNL     1       1.207   2.207  18.952  0.00  0.00    +0.000 A 
ATOM      8  C   UNL     1       0.740   2.739  20.149  0.00  0.00    +0.000 A 
ATOM      9  C   UNL     1       1.037   4.057  20.472  0.00  0.00    +0.000 A 
ATOM     10  C   UNL     1       1.834   4.836  19.602  0.00  0.00    +0.000 A 
ENDROOT
BRANCH   1  11
ATOM     11  O   UNL     1       1.954   6.742  21.044  0.00  0.00    +0.000 OA
ATOM     12  H   UNL     1       1.413   6.051  21.465  0.00  0.00    +0.000 HD
ENDBRANCH   1  11
BRANCH   3  13
ATOM     13  C   UNL     1       4.415   7.006  17.048  0.00  0.00    +0.000 C 
BRANCH  13  14
ATOM     14  C   UNL     1       5.452   6.071  16.485  0.00  0.00    +0.000 A 
ATOM     15  C   UNL     1       5.542   5.573  15.197  0.00  0.00    +0.000 A 
ATOM     16  C   UNL     1       6.604   4.638  15.048  0.00  0.00    +0.000 A 
ATOM     17  C   UNL     1       7.320   4.486  16.213  0.00  0.00    +0.000 A 
ATOM     18  S   UNL     1       6.714   5.469  17.475  0.00  0.00    +0.000 S 
ENDBRANCH  13  14
ENDBRANCH   3  13
TORSDOF 3
ENDMDL
MODEL 4
REMARK VINA RESULT:      -7.0      2.220      2.995
REMARK  Name = 
REMARK  3 active torsions:
REMARK  status: ('A' for Active; 'I' for Inactive)
REMARK    1  A    between atoms: O_1  and  C_2
REMARK    2  A    between atoms: C_4  and  C_5
REMARK    3  A    between atoms: C_5  and  C_6
REMARK                            x       y       z     vdW  Elec       q    Type
REMARK                         _______ _______ _______ _____ _____    ______ ____
ROOT
ATOM      1  C   UNL     1       4.649   2.961  19.829  0.00  0.00    +0.000 A 
ATOM      2  N   UNL     1       5.581   3.734  19.263  0.00  0.00    +0.000 NA
ATOM      3  C   UNL     1       5.197   5.002  19.020  0.00  0.00    +0.000 A 
ATOM      4  N   UNL     1       3.977   5.505  19.314  0.00  0.00    +0.000 NA
ATOM      5  C   UNL     1       3.069   4.678  19.855  0.00  0.00    +0.000 A 
ATOM      6  C   UNL     1       1.776   5.129  20.094  0.00  0.00    +0.000 A 
ATOM      7  C   UNL     1       0.780   4.283  20.598  0.00  0.00    +0.000 A 
ATOM      8  C   UNL     1       1.088   2.966  20.920  0.00  0.00    +0.000 A 
ATOM      9  C   UNL     1       2.380   2.498  20.716  0.00  0.00    +0.000 A 
ATOM     10  C   UNL     1       3.361   3.349  20.157  0.00  0.00    +0.000 A 
ENDROOT
BRANCH   1  11
ATOM     11  O   UNL     1       5.062   1.674  20.008  0.00  0.00    +0.000 OA
ATOM     12  H   UNL     1       5.550   1.763  20.845  0.00  0.00    +0.000 HD
ENDBRANCH   1  11
BRANCH   3  13
ATOM     13  C   UNL     1       6.155   5.901  18.267  0.00  0.00    +0.000 C 
BRANCH  13  14
ATOM     14  C   UNL     1       6.181   5.579  16.796  0.00  0.00    +0.000 A 
ATOM     15  C   UNL     1       5.320   6.028  15.809  0.00  0.00    +0.000 A 
ATOM     16  C   UNL     1       5.593   5.441  14.542  0.00  0.00    +0.000 A 
ATOM     17  C   UNL     1       6.680   4.599  14.590  0.00  0.00    +0.000 A 
ATOM     18  S   UNL     1       7.367   4.523  16.154  0.00  0.00    +0.000 S 
ENDBRANCH  13  14
ENDBRANCH   3  13
TORSDOF 3
ENDMDL
MODEL 5
REMARK VINA RESULT:      -7.0      2.045      2.472
REMARK  Name = 
REMARK  3 active torsions:
REMARK  status: ('A' for Active; 'I' for Inactive)
REMARK    1  A    between atoms: O_1  and  C_2
REMARK    2  A    between atoms: C_4  and  C_5
REMARK    3  A    between atoms: C_5  and  C_6
REMARK                            x       y       z     vdW  Elec       q    Type
REMARK                         _______ _______ _______ _____ _____    ______ ____
ROOT
ATOM      1  C   UNL     1       2.496   6.077  19.374  0.00  0.00    +0.000 A 
ATOM      2  N   UNL     1       3.401   6.614  18.549  0.00  0.00    +0.000 NA
ATOM      3  C   UNL     1       3.791   5.816  17.537  0.00  0.00    +0.000 A 
ATOM      4  N   UNL     1       3.329   4.564  17.323  0.00  0.00    +0.000 NA
ATOM      5  C   UNL     1       2.442   4.062  18.198  0.00  0.00    +0.000 A 
ATOM      6  C   UNL     1       2.005   2.750  18.067  0.00  0.00    +0.000 A 
ATOM      7  C   UNL     1       1.130   2.166  18.992  0.00  0.00    +0.000 A 
ATOM      8  C   UNL     1       0.638   2.921  20.051  0.00  0.00    +0.000 A 
ATOM      9  C   UNL     1       1.039   4.245  20.189  0.00  0.00    +0.000 A 
ATOM     10  C   UNL     1       1.963   4.803  19.277  0.00  0.00    +0.000 A 
ENDROOT
BRANCH   1  11
ATOM     11  O   UNL     1       2.170   6.899  20.412  0.00  0.00    +0.000 OA
ATOM     12  H   UNL     1       1.836   6.247  21.052  0.00  0.00    +0.000 HD
ENDBRANCH   1  11
BRANCH   3  13
ATOM     13  C   UNL     1       4.905   6.307  16.635  0.00  0.00    +0.000 C 
BRANCH  13  14
ATOM     14  C   UNL     1       6.160   6.604  17.413  0.00  0.00    +0.000 A 
ATOM     15  C   UNL     1       6.969   7.724  17.329  0.00  0.00    +0.000 A 
ATOM     16  C   UNL     1       8.126   7.621  18.150  0.00  0.00    +0.000 A 
ATOM     17  C   UNL     1       8.142   6.448  18.870  0.00  0.00    +0.000 A 
ATOM     18  S   UNL     1       6.765   5.482  18.557  0.00  0.00    +0.000 S 
ENDBRANCH  13  14
ENDBRANCH   3  13
TORSDOF 3
ENDMDL
MODEL 6
REMARK VINA RESULT:      -7.0      2.111      2.814
REMARK  Name = 
REMARK  3 active torsions:
REMARK  status: ('A' for Active; 'I' for Inactive)
REMARK    1  A    between atoms: O_1  and  C_2
REMARK    2  A    between atoms: C_4  and  C_5
REMARK    3  A    between atoms: C_5  and  C_6
REMARK                            x       y       z     vdW  Elec       q    Type
REMARK                         _______ _______ _______ _____ _____    ______ ____
ROOT
ATOM      1  C   UNL     1       4.633   2.897  19.851  0.00  0.00    +0.000 A 
ATOM      2  N   UNL     1       5.602   3.639  19.305  0.00  0.00    +0.000 NA
ATOM      3  C   UNL     1       5.272   4.923  19.073  0.00  0.00    +0.000 A 
ATOM      4  N   UNL     1       4.069   5.471  19.358  0.00  0.00    +0.000 NA
ATOM      5  C   UNL     1       3.122   4.674  19.880  0.00  0.00    +0.000 A 
ATOM      6  C   UNL     1       1.846   5.174  20.110  0.00  0.00    +0.000 A 
ATOM      7  C   UNL     1       0.811   4.363  20.593  0.00  0.00    +0.000 A 
ATOM      8  C   UNL     1       1.063   3.030  20.902  0.00  0.00    +0.000 A 
ATOM      9  C   UNL     1       2.338   2.514  20.707  0.00  0.00    +0.000 A 
ATOM     10  C   UNL     1       3.358   3.332  20.169  0.00  0.00    +0.000 A 
ENDROOT
BRANCH   1  11
ATOM     11  O   UNL     1       4.994   1.592  20.019  0.00  0.00    +0.000 OA
ATOM     12  H   UNL     1       5.960   1.685  20.085  0.00  0.00    +0.000 HD
ENDBRANCH   1  11
BRANCH   3  13
ATOM     13  C   UNL     1       6.273   5.792  18.341  0.00  0.00    +0.000 C 
BRANCH  13  14
ATOM     14  C   UNL     1       6.355   5.437  16.879  0.00  0.00    +0.000 A 
ATOM     15  C   UNL     1       7.287   4.632  16.249  0.00  0.00    +0.000 A 
ATOM     16  C   UNL     1       7.109   4.595  14.838  0.00  0.00    +0.000 A 
ATOM     17  C   UNL     1       6.020   5.336  14.439  0.00  0.00    +0.000 A 
ATOM     18  S   UNL     1       5.218   6.065  15.763  0.00  0.00    +0.000 S 
ENDBRANCH  13  14
ENDBRANCH   3  13
TORSDOF 3
ENDMDL
MODEL 7
REMARK VINA RESULT:      -6.8      2.245      5.662
REMARK  Name = 
REMARK  3 active torsions:
REMARK  status: ('A' for Active; 'I' for Inactive)
REMARK    1  A    between atoms: O_1  and  C_2
REMARK    2  A    between atoms: C_4  and  C_5
REMARK    3  A    between atoms: C_5  and  C_6
REMARK                            x       y       z     vdW  Elec       q    Type
REMARK                         _______ _______ _______ _____ _____    ______ ____
ROOT
ATOM      1  C   UNL     1       5.255   5.938  16.509  0.00  0.00    +0.000 A 
ATOM      2  N   UNL     1       4.464   4.865  16.603  0.00  0.00    +0.000 NA
ATOM      3  C   UNL     1       4.688   4.087  17.679  0.00  0.00    +0.000 A 
ATOM      4  N   UNL     1       5.623   4.332  18.623  0.00  0.00    +0.000 NA
ATOM      5  C   UNL     1       6.411   5.408  18.465  0.00  0.00    +0.000 A 
ATOM      6  C   UNL     1       7.442   5.651  19.365  0.00  0.00    +0.000 A 
ATOM      7  C   UNL     1       8.326   6.724  19.203  0.00  0.00    +0.000 A 
ATOM      8  C   UNL     1       8.154   7.610  18.145  0.00  0.00    +0.000 A 
ATOM      9  C   UNL     1       7.113   7.405  17.247  0.00  0.00    +0.000 A 
ATOM     10  C   UNL     1       6.262   6.286  17.394  0.00  0.00    +0.000 A 
ENDROOT
BRANCH   1  11
ATOM     11  O   UNL     1       5.030   6.668  15.379  0.00  0.00    +0.000 OA
ATOM     12  H   UNL     1       4.064   6.576  15.302  0.00  0.00    +0.000 HD
ENDBRANCH   1  11
BRANCH   3  13
ATOM     13  C   UNL     1       3.917   2.788  17.788  0.00  0.00    +0.000 C 
BRANCH  13  14
ATOM     14  C   UNL     1       2.808   2.881  18.803  0.00  0.00    +0.000 A 
ATOM     15  C   UNL     1       1.473   3.168  18.582  0.00  0.00    +0.000 A 
ATOM     16  C   UNL     1       0.730   3.263  19.793  0.00  0.00    +0.000 A 
ATOM     17  C   UNL     1       1.511   3.001  20.895  0.00  0.00    +0.000 A 
ATOM     18  S   UNL     1       3.127   2.638  20.468  0.00  0.00    +0.000 S 
ENDBRANCH  13  14
ENDBRANCH   3  13
TORSDOF 3
ENDMDL
MODEL 8
REMARK VINA RESULT:      -6.8      2.159      2.703
REMARK  Name = 
REMARK  3 active torsions:
REMARK  status: ('A' for Active; 'I' for Inactive)
REMARK    1  A    between atoms: O_1  and  C_2
REMARK    2  A    between atoms: C_4  and  C_5
REMARK    3  A    between atoms: C_5  and  C_6
REMARK                            x       y       z     vdW  Elec       q    Type
REMARK                         _______ _______ _______ _____ _____    ______ ____
ROOT
ATOM      1  C   UNL     1       2.258   6.132  19.874  0.00  0.00    +0.000 A 
ATOM      2  N   UNL     1       3.083   6.837  19.093  0.00  0.00    +0.000 NA
ATOM      3  C   UNL     1       3.453   6.220  17.955  0.00  0.00    +0.000 A 
ATOM      4  N   UNL     1       3.046   4.987  17.581  0.00  0.00    +0.000 NA
ATOM      5  C   UNL     1       2.240   4.311  18.416  0.00  0.00    +0.000 A 
ATOM      6  C   UNL     1       1.865   3.007  18.112  0.00  0.00    +0.000 A 
ATOM      7  C   UNL     1       1.079   2.243  18.984  0.00  0.00    +0.000 A 
ATOM      8  C   UNL     1       0.611   2.804  20.167  0.00  0.00    +0.000 A 
ATOM      9  C   UNL     1       0.950   4.115  20.480  0.00  0.00    +0.000 A 
ATOM     10  C   UNL     1       1.788   4.855  19.616  0.00  0.00    +0.000 A 
ENDROOT
BRANCH   1  11
ATOM     11  O   UNL     1       1.951   6.772  21.039  0.00  0.00    +0.000 OA
ATOM     12  H   UNL     1       2.653   6.426  21.618  0.00  0.00    +0.000 HD
ENDBRANCH   1  11
BRANCH   3  13
ATOM     13  C   UNL     1       4.485   6.904  17.081  0.00  0.00    +0.000 C 
BRANCH  13  14
ATOM     14  C   UNL     1       5.581   5.957  16.668  0.00  0.00    +0.000 A 
ATOM     15  C   UNL     1       6.627   5.477  17.436  0.00  0.00    +0.000 A 
ATOM     16  C   UNL     1       7.527   4.670  16.685  0.00  0.00    +0.000 A 
ATOM     17  C   UNL     1       7.116   4.522  15.380  0.00  0.00    +0.000 A 
ATOM     18  S   UNL     1       5.651   5.348  15.069  0.00  0.00    +0.000 S 
ENDBRANCH  13  14
ENDBRANCH   3  13
TORSDOF 3
ENDMDL
MODEL 9
REMARK VINA RESULT:      -6.8      2.014      2.366
REMARK  Name = 
REMARK  3 active torsions:
REMARK  status: ('A' for Active; 'I' for Inactive)
REMARK    1  A    between atoms: O_1  and  C_2
REMARK    2  A    between atoms: C_4  and  C_5
REMARK    3  A    between atoms: C_5  and  C_6
REMARK                            x       y       z     vdW  Elec       q    Type
REMARK                         _______ _______ _______ _____ _____    ______ ____
ROOT
ATOM      1  C   UNL     1       2.484   6.042  19.431  0.00  0.00    +0.000 A 
ATOM      2  N   UNL     1       3.410   6.601  18.647  0.00  0.00    +0.000 NA
ATOM      3  C   UNL     1       3.829   5.832  17.624  0.00  0.00    +0.000 A 
ATOM      4  N   UNL     1       3.373   4.586  17.363  0.00  0.00    +0.000 NA
ATOM      5  C   UNL     1       2.463   4.061  18.199  0.00  0.00    +0.000 A 
ATOM      6  C   UNL     1       2.030   2.753  18.019  0.00  0.00    +0.000 A 
ATOM      7  C   UNL     1       1.131   2.144  18.903  0.00  0.00    +0.000 A 
ATOM      8  C   UNL     1       0.609   2.869  19.968  0.00  0.00    +0.000 A 
ATOM      9  C   UNL     1       1.005   4.188  20.154  0.00  0.00    +0.000 A 
ATOM     10  C   UNL     1       1.954   4.771  19.284  0.00  0.00    +0.000 A 
ENDROOT
BRANCH   1  11
ATOM     11  O   UNL     1       2.128   6.835  20.483  0.00  0.00    +0.000 OA
ATOM     12  H   UNL     1       1.523   6.237  20.955  0.00  0.00    +0.000 HD
ENDBRANCH   1  11
BRANCH   3  13
ATOM     13  C   UNL     1       4.967   6.347  16.768  0.00  0.00    +0.000 C 
BRANCH  13  14
ATOM     14  C   UNL     1       6.251   6.446  17.550  0.00  0.00    +0.000 A 
ATOM     15  C   UNL     1       6.785   5.524  18.432  0.00  0.00    +0.000 A 
ATOM     16  C   UNL     1       7.972   5.995  19.059  0.00  0.00    +0.000 A 
ATOM     17  C   UNL     1       8.333   7.243  18.603  0.00  0.00    +0.000 A 
ATOM     18  S   UNL     1       7.246   7.835  17.422  0.00  0.00    +0.000 S 
ENDBRANCH  13  14
ENDBRANCH   3  13
TORSDOF 3
ENDMDL
