MODEL 1
REMARK VINA RESULT:      -8.9      0.000      0.000
REMARK  Name = 
REMARK  4 active torsions:
REMARK  status: ('A' for Active; 'I' for Inactive)
REMARK    1  A    between atoms: C_2  and  C_25
REMARK    2  A    between atoms: N_3  and  C_4
REMARK    3  A    between atoms: C_8  and  C_9
REMARK    4  A    between atoms: C_12  and  C_13
REMARK                            x       y       z     vdW  Elec       q    Type
REMARK                         _______ _______ _______ _____ _____    ______ ____
ROOT
ATOM      1  C   UNL     1       4.138   4.765  17.503  0.00  0.00    +0.000 A 
ATOM      2  C   UNL     1       4.208   3.747  18.457  0.00  0.00    +0.000 A 
ATOM      3  C   UNL     1       3.644   3.907  19.715  0.00  0.00    +0.000 A 
ATOM      4  C   UNL     1       3.007   5.100  20.035  0.00  0.00    +0.000 A 
ATOM      5  C   UNL     1       2.899   6.157  19.109  0.00  0.00    +0.000 A 
ATOM      6  C   UNL     1       3.504   5.976  17.845  0.00  0.00    +0.000 A 
ENDROOT
BRANCH   5   7
ATOM      7  C   UNL     1       2.125   7.371  19.481  0.00  0.00    +0.000 A 
ATOM      8  C   UNL     1       1.917   8.461  18.618  0.00  0.00    +0.000 A 
ATOM      9  C   UNL     1       1.201   9.606  19.032  0.00  0.00    +0.000 A 
ATOM     10  C   UNL     1       0.674   9.687  20.325  0.00  0.00    +0.000 A 
ATOM     11  C   UNL     1       0.866   8.602  21.182  0.00  0.00    +0.000 A 
ATOM     12  C   UNL     1       1.561   7.467  20.766  0.00  0.00    +0.000 A 
BRANCH  10  13
ATOM     13  C   UNL     1      -0.136  10.800  20.825  0.00  0.00    +0.000 A 
ATOM     14  N   UNL     1       0.060  11.382  21.995  0.00  0.00    +0.000 NA
ATOM     15  C   UNL     1      -0.916  12.325  22.127  0.00  0.00    +0.000 A 
ATOM     16  C   UNL     1      -1.182  13.178  23.206  0.00  0.00    +0.000 A 
ATOM     17  C   UNL     1      -2.276  14.043  23.119  0.00  0.00    +0.000 A 
ATOM     18  C   UNL     1      -3.072  14.070  21.970  0.00  0.00    +0.000 A 
ATOM     19  C   UNL     1      -2.806  13.237  20.872  0.00  0.00    +0.000 A 
ATOM     20  C   UNL     1      -1.719  12.367  20.995  0.00  0.00    +0.000 A 
ATOM     21  N   UNL     1      -1.178  11.412  20.165  0.00  0.00    +0.000 N 
ATOM     22  H   UNL     1      -1.491  11.195  19.232  0.00  0.00    +0.000 HD
ENDBRANCH  10  13
ENDBRANCH   5   7
BRANCH   1  25
ATOM     23  O   UNL     1       6.939   5.002  16.687  0.00  0.00    +0.000 OA
ATOM     24  C   UNL     1       6.030   4.785  15.893  0.00  0.00    +0.000 C 
ATOM     25  N   UNL     1       4.688   4.611  16.205  0.00  0.00    +0.000 N 
ATOM     26  H   UNL     1       4.088   4.203  15.499  0.00  0.00    +0.000 HD
BRANCH  24  27
ATOM     27  C   UNL     1       6.421   4.640  14.473  0.00  0.00    +0.000 A 
ATOM     28  C   UNL     1       5.749   3.676  13.715  0.00  0.00    +0.000 A 
ATOM     29  C   UNL     1       6.168   3.455  12.420  0.00  0.00    +0.000 A 
ATOM     30  N   UNL     1       7.195   4.119  11.851  0.00  0.00    +0.000 NA
ATOM     31  C   UNL     1       7.841   5.031  12.613  0.00  0.00    +0.000 A 
ATOM     32  C   UNL     1       7.491   5.333  13.920  0.00  0.00    +0.000 A 
ENDBRANCH  24  27
ENDBRANCH   1  25
TORSDOF 4
ENDMDL
MODEL 2
REMARK VINA RESULT:      -8.8      0.358      1.376
REMARK  Name = 
REMARK  4 active torsions:
REMARK  status: ('A' for Active; 'I' for Inactive)
REMARK    1  A    between atoms: C_2  and  C_25
REMARK    2  A    between atoms: N_3  and  C_4
REMARK    3  A    between atoms: C_8  and  C_9
REMARK    4  A    between atoms: C_12  and  C_13
REMARK                            x       y       z     vdW  Elec       q    Type
REMARK                         _______ _______ _______ _____ _____    ______ ____
ROOT
ATOM      1  C   UNL     1       4.249   4.574  17.475  0.00  0.00    +0.000 A 
ATOM      2  C   UNL     1       4.303   3.555  18.429  0.00  0.00    +0.000 A 
ATOM      3  C   UNL     1       3.728   3.719  19.682  0.00  0.00    +0.000 A 
ATOM      4  C   UNL     1       3.097   4.916  19.996  0.00  0.00    +0.000 A 
ATOM      5  C   UNL     1       3.005   5.975  19.069  0.00  0.00    +0.000 A 
ATOM      6  C   UNL     1       3.620   5.789  17.810  0.00  0.00    +0.000 A 
ENDROOT
BRANCH   5   7
ATOM      7  C   UNL     1       2.236   7.194  19.434  0.00  0.00    +0.000 A 
ATOM      8  C   UNL     1       2.027   8.277  18.563  0.00  0.00    +0.000 A 
ATOM      9  C   UNL     1       1.316   9.427  18.970  0.00  0.00    +0.000 A 
ATOM     10  C   UNL     1       0.795   9.521  20.264  0.00  0.00    +0.000 A 
ATOM     11  C   UNL     1       0.988   8.443  21.130  0.00  0.00    +0.000 A 
ATOM     12  C   UNL     1       1.678   7.303  20.721  0.00  0.00    +0.000 A 
BRANCH  10  13
ATOM     13  C   UNL     1      -0.009  10.641  20.758  0.00  0.00    +0.000 A 
ATOM     14  N   UNL     1      -0.691  11.458  19.974  0.00  0.00    +0.000 NA
ATOM     15  C   UNL     1      -1.257  12.394  20.789  0.00  0.00    +0.000 A 
ATOM     16  C   UNL     1      -2.032  13.510  20.448  0.00  0.00    +0.000 A 
ATOM     17  C   UNL     1      -2.474  14.353  21.471  0.00  0.00    +0.000 A 
ATOM     18  C   UNL     1      -2.164  14.075  22.805  0.00  0.00    +0.000 A 
ATOM     19  C   UNL     1      -1.407  12.949  23.164  0.00  0.00    +0.000 A 
ATOM     20  C   UNL     1      -0.961  12.135  22.120  0.00  0.00    +0.000 A 
ATOM     21  N   UNL     1      -0.196  10.992  22.077  0.00  0.00    +0.000 N 
ATOM     22  H   UNL     1       0.168  10.494  22.875  0.00  0.00    +0.000 HD
ENDBRANCH  10  13
ENDBRANCH   5   7
BRANCH   1  25
ATOM     23  O   UNL     1       7.075   4.612  16.713  0.00  0.00    +0.000 OA
ATOM     24  C   UNL     1       6.167   4.492  15.898  0.00  0.00    +0.000 C 
ATOM     25  N   UNL     1       4.809   4.416  16.182  0.00  0.00    +0.000 N 
ATOM     26  H   UNL     1       4.193   4.079  15.453  0.00  0.00    +0.000 HD
BRANCH  24  27
ATOM     27  C   UNL     1       6.573   4.359  14.481  0.00  0.00    +0.000 A 
ATOM     28  C   UNL     1       7.552   5.237  14.006  0.00  0.00    +0.000 A 
ATOM     29  C   UNL     1       7.869   5.196  12.664  0.00  0.00    +0.000 A 
ATOM     30  N   UNL     1       7.281   4.355  11.789  0.00  0.00    +0.000 NA
ATOM     31  C   UNL     1       6.323   3.530  12.272  0.00  0.00    +0.000 A 
ATOM     32  C   UNL     1       5.939   3.488  13.603  0.00  0.00    +0.000 A 
ENDBRANCH  24  27
ENDBRANCH   1  25
TORSDOF 4
ENDMDL
MODEL 3
REMARK VINA RESULT:      -8.7      0.816      1.475
REMARK  Name = 
REMARK  4 active torsions:
REMARK  status: ('A' for Active; 'I' for Inactive)
REMARK    1  A    between atoms: C_2  and  C_25
REMARK    2  A    between atoms: N_3  and  C_4
REMARK    3  A    between atoms: C_8  and  C_9
REMARK    4  A    between atoms: C_12  and  C_13
REMARK                            x       y       z     vdW  Elec       q    Type
REMARK                         _______ _______ _______ _____ _____    ______ ____
ROOT
ATOM      1  C   UNL     1       4.030   4.249  17.434  0.00  0.00    +0.000 A 
ATOM      2  C   UNL     1       3.888   3.150  18.287  0.00  0.00    +0.000 A 
ATOM      3  C   UNL     1       3.259   3.279  19.517  0.00  0.00    +0.000 A 
ATOM      4  C   UNL     1       2.770   4.518  19.912  0.00  0.00    +0.000 A 
ATOM      5  C   UNL     1       2.878   5.658  19.089  0.00  0.00    +0.000 A 
ATOM      6  C   UNL     1       3.545   5.503  17.853  0.00  0.00    +0.000 A 
ENDROOT
BRANCH   5   7
ATOM      7  C   UNL     1       2.252   6.932  19.529  0.00  0.00    +0.000 A 
ATOM      8  C   UNL     1       1.743   7.149  20.821  0.00  0.00    +0.000 A 
ATOM      9  C   UNL     1       1.128   8.369  21.179  0.00  0.00    +0.000 A 
ATOM     10  C   UNL     1       1.007   9.405  20.248  0.00  0.00    +0.000 A 
ATOM     11  C   UNL     1       1.522   9.200  18.967  0.00  0.00    +0.000 A 
ATOM     12  C   UNL     1       2.142   8.000  18.620  0.00  0.00    +0.000 A 
BRANCH  10  13
ATOM     13  C   UNL     1       0.445  10.726  20.541  0.00  0.00    +0.000 A 
ATOM     14  N   UNL     1       0.271  11.194  21.764  0.00  0.00    +0.000 NA
ATOM     15  C   UNL     1      -0.321  12.416  21.630  0.00  0.00    +0.000 A 
ATOM     16  C   UNL     1      -0.761  13.299  22.624  0.00  0.00    +0.000 A 
ATOM     17  C   UNL     1      -1.378  14.491  22.232  0.00  0.00    +0.000 A 
ATOM     18  C   UNL     1      -1.531  14.800  20.878  0.00  0.00    +0.000 A 
ATOM     19  C   UNL     1      -1.076  13.936  19.871  0.00  0.00    +0.000 A 
ATOM     20  C   UNL     1      -0.482  12.742  20.290  0.00  0.00    +0.000 A 
ATOM     21  N   UNL     1       0.048  11.666  19.616  0.00  0.00    +0.000 N 
ATOM     22  H   UNL     1       0.132  11.579  18.616  0.00  0.00    +0.000 HD
ENDBRANCH  10  13
ENDBRANCH   5   7
BRANCH   1  25
ATOM     23  O   UNL     1       6.826   4.758  16.732  0.00  0.00    +0.000 OA
ATOM     24  C   UNL     1       5.979   4.438  15.905  0.00  0.00    +0.000 C 
ATOM     25  N   UNL     1       4.649   4.132  16.164  0.00  0.00    +0.000 N 
ATOM     26  H   UNL     1       4.126   3.654  15.441  0.00  0.00    +0.000 HD
BRANCH  24  27
ATOM     27  C   UNL     1       6.445   4.311  14.506  0.00  0.00    +0.000 A 
ATOM     28  C   UNL     1       7.481   5.154  14.093  0.00  0.00    +0.000 A 
ATOM     29  C   UNL     1       7.859   5.122  12.767  0.00  0.00    +0.000 A 
ATOM     30  N   UNL     1       7.278   4.322  11.850  0.00  0.00    +0.000 NA
ATOM     31  C   UNL     1       6.265   3.531  12.272  0.00  0.00    +0.000 A 
ATOM     32  C   UNL     1       5.817   3.483  13.583  0.00  0.00    +0.000 A 
ENDBRANCH  24  27
ENDBRANCH   1  25
TORSDOF 4
ENDMDL
MODEL 4
REMARK VINA RESULT:      -8.6      1.183      1.907
REMARK  Name = 
REMARK  4 active torsions:
REMARK  status: ('A' for Active; 'I' for Inactive)
REMARK    1  A    between atoms: C_2  and  C_25
REMARK    2  A    between atoms: N_3  and  C_4
REMARK    3  A    between atoms: C_8  and  C_9
REMARK    4  A    between atoms: C_12  and  C_13
REMARK                            x       y       z     vdW  Elec       q    Type
REMARK                         _______ _______ _______ _____ _____    ______ ____
ROOT
ATOM      1  C   UNL     1       4.103   4.436  17.520  0.00  0.00    +0.000 A 
ATOM      2  C   UNL     1       4.030   3.454  18.511  0.00  0.00    +0.000 A 
ATOM      3  C   UNL     1       3.421   3.715  19.730  0.00  0.00    +0.000 A 
ATOM      4  C   UNL     1       2.883   4.972  19.974  0.00  0.00    +0.000 A 
ATOM      5  C   UNL     1       2.920   5.998  19.007  0.00  0.00    +0.000 A 
ATOM      6  C   UNL     1       3.568   5.712  17.784  0.00  0.00    +0.000 A 
ENDROOT
BRANCH   5   7
ATOM      7  C   UNL     1       2.245   7.291  19.294  0.00  0.00    +0.000 A 
ATOM      8  C   UNL     1       1.691   7.624  20.542  0.00  0.00    +0.000 A 
ATOM      9  C   UNL     1       1.031   8.854  20.754  0.00  0.00    +0.000 A 
ATOM     10  C   UNL     1       0.908   9.784  19.716  0.00  0.00    +0.000 A 
ATOM     11  C   UNL     1       1.467   9.463  18.477  0.00  0.00    +0.000 A 
ATOM     12  C   UNL     1       2.131   8.254  18.275  0.00  0.00    +0.000 A 
BRANCH  10  13
ATOM     13  C   UNL     1       0.299  11.109  19.853  0.00  0.00    +0.000 A 
ATOM     14  N   UNL     1       0.561  12.124  19.048  0.00  0.00    +0.000 NA
ATOM     15  C   UNL     1      -0.145  13.189  19.525  0.00  0.00    +0.000 A 
ATOM     16  C   UNL     1      -0.171  14.511  19.063  0.00  0.00    +0.000 A 
ATOM     17  C   UNL     1      -0.955  15.442  19.750  0.00  0.00    +0.000 A 
ATOM     18  C   UNL     1      -1.710  15.055  20.860  0.00  0.00    +0.000 A 
ATOM     19  C   UNL     1      -1.710  13.730  21.323  0.00  0.00    +0.000 A 
ATOM     20  C   UNL     1      -0.902  12.824  20.630  0.00  0.00    +0.000 A 
ATOM     21  N   UNL     1      -0.631  11.486  20.796  0.00  0.00    +0.000 N 
ATOM     22  H   UNL     1      -1.042  10.881  21.490  0.00  0.00    +0.000 HD
ENDBRANCH  10  13
ENDBRANCH   5   7
BRANCH   1  25
ATOM     23  O   UNL     1       6.534   5.620  16.398  0.00  0.00    +0.000 OA
ATOM     24  C   UNL     1       5.836   4.822  15.782  0.00  0.00    +0.000 C 
ATOM     25  N   UNL     1       4.701   4.180  16.259  0.00  0.00    +0.000 N 
ATOM     26  H   UNL     1       4.363   3.375  15.746  0.00  0.00    +0.000 HD
BRANCH  24  27
ATOM     27  C   UNL     1       6.291   4.472  14.418  0.00  0.00    +0.000 A 
ATOM     28  C   UNL     1       7.410   5.145  13.919  0.00  0.00    +0.000 A 
ATOM     29  C   UNL     1       7.787   4.907  12.614  0.00  0.00    +0.000 A 
ATOM     30  N   UNL     1       7.130   4.061  11.796  0.00  0.00    +0.000 NA
ATOM     31  C   UNL     1       6.039   3.437  12.298  0.00  0.00    +0.000 A 
ATOM     32  C   UNL     1       5.585   3.601  13.597  0.00  0.00    +0.000 A 
ENDBRANCH  24  27
ENDBRANCH   1  25
TORSDOF 4
ENDMDL
MODEL 5
REMARK VINA RESULT:      -8.5      0.900      1.379
REMARK  Name = 
REMARK  4 active torsions:
REMARK  status: ('A' for Active; 'I' for Inactive)
REMARK    1  A    between atoms: C_2  and  C_25
REMARK    2  A    between atoms: N_3  and  C_4
REMARK    3  A    between atoms: C_8  and  C_9
REMARK    4  A    between atoms: C_12  and  C_13
REMARK                            x       y       z     vdW  Elec       q    Type
REMARK                         _______ _______ _______ _____ _____    ______ ____
ROOT
ATOM      1  C   UNL     1       4.146   4.583  17.495  0.00  0.00    +0.000 A 
ATOM      2  C   UNL     1       4.151   3.561  18.448  0.00  0.00    +0.000 A 
ATOM      3  C   UNL     1       3.575   3.747  19.697  0.00  0.00    +0.000 A 
ATOM      4  C   UNL     1       2.992   4.968  20.009  0.00  0.00    +0.000 A 
ATOM      5  C   UNL     1       2.950   6.031  19.084  0.00  0.00    +0.000 A 
ATOM      6  C   UNL     1       3.565   5.823  17.829  0.00  0.00    +0.000 A 
ENDROOT
BRANCH   5   7
ATOM      7  C   UNL     1       2.229   7.280  19.446  0.00  0.00    +0.000 A 
ATOM      8  C   UNL     1       1.668   7.521  20.712  0.00  0.00    +0.000 A 
ATOM      9  C   UNL     1       0.964   8.712  20.995  0.00  0.00    +0.000 A 
ATOM     10  C   UNL     1       0.805   9.695  20.013  0.00  0.00    +0.000 A 
ATOM     11  C   UNL     1       1.371   9.467  18.758  0.00  0.00    +0.000 A 
ATOM     12  C   UNL     1       2.078   8.296  18.485  0.00  0.00    +0.000 A 
BRANCH  10  13
ATOM     13  C   UNL     1       0.149  10.988  20.228  0.00  0.00    +0.000 A 
ATOM     14  N   UNL     1      -0.900  11.156  21.012  0.00  0.00    +0.000 NA
ATOM     15  C   UNL     1      -1.253  12.470  20.909  0.00  0.00    +0.000 A 
ATOM     16  C   UNL     1      -2.329  13.146  21.499  0.00  0.00    +0.000 A 
ATOM     17  C   UNL     1      -2.505  14.502  21.209  0.00  0.00    +0.000 A 
ATOM     18  C   UNL     1      -1.613  15.170  20.366  0.00  0.00    +0.000 A 
ATOM     19  C   UNL     1      -0.518  14.513  19.785  0.00  0.00    +0.000 A 
ATOM     20  C   UNL     1      -0.378  13.153  20.075  0.00  0.00    +0.000 A 
ATOM     21  N   UNL     1       0.528  12.194  19.683  0.00  0.00    +0.000 N 
ATOM     22  H   UNL     1       1.333  12.348  19.097  0.00  0.00    +0.000 HD
ENDBRANCH  10  13
ENDBRANCH   5   7
BRANCH   1  25
ATOM     23  O   UNL     1       6.742   5.510  16.511  0.00  0.00    +0.000 OA
ATOM     24  C   UNL     1       5.934   4.918  15.804  0.00  0.00    +0.000 C 
ATOM     25  N   UNL     1       4.708   4.405  16.206  0.00  0.00    +0.000 N 
ATOM     26  H   UNL     1       4.254   3.736  15.596  0.00  0.00    +0.000 HD
BRANCH  24  27
ATOM     27  C   UNL     1       6.342   4.682  14.401  0.00  0.00    +0.000 A 
ATOM     28  C   UNL     1       5.631   3.721  13.676  0.00  0.00    +0.000 A 
ATOM     29  C   UNL     1       6.061   3.415  12.402  0.00  0.00    +0.000 A 
ATOM     30  N   UNL     1       7.133   3.993  11.823  0.00  0.00    +0.000 NA
ATOM     31  C   UNL     1       7.815   4.905  12.554  0.00  0.00    +0.000 A 
ATOM     32  C   UNL     1       7.459   5.288  13.837  0.00  0.00    +0.000 A 
ENDBRANCH  24  27
ENDBRANCH   1  25
TORSDOF 4
ENDMDL
MODEL 6
REMARK VINA RESULT:      -8.5      0.818      1.552
REMARK  Name = 
REMARK  4 active torsions:
REMARK  status: ('A' for Active; 'I' for Inactive)
REMARK    1  A    between atoms: C_2  and  C_25
REMARK    2  A    between atoms: N_3  and  C_4
REMARK    3  A    between atoms: C_8  and  C_9
REMARK    4  A    between atoms: C_12  and  C_13
REMARK                            x       y       z     vdW  Elec       q    Type
REMARK                         _______ _______ _______ _____ _____    ______ ____
ROOT
ATOM      1  C   UNL     1       4.109   4.235  17.485  0.00  0.00    +0.000 A 
ATOM      2  C   UNL     1       4.052   3.151  18.365  0.00  0.00    +0.000 A 
ATOM      3  C   UNL     1       3.453   3.274  19.611  0.00  0.00    +0.000 A 
ATOM      4  C   UNL     1       2.908   4.493  19.993  0.00  0.00    +0.000 A 
ATOM      5  C   UNL     1       2.928   5.617  19.143  0.00  0.00    +0.000 A 
ATOM      6  C   UNL     1       3.566   5.471  17.890  0.00  0.00    +0.000 A 
ENDROOT
BRANCH   5   7
ATOM      7  C   UNL     1       2.246   6.866  19.573  0.00  0.00    +0.000 A 
ATOM      8  C   UNL     1       1.622   7.026  20.823  0.00  0.00    +0.000 A 
ATOM      9  C   UNL     1       0.959   8.223  21.171  0.00  0.00    +0.000 A 
ATOM     10  C   UNL     1       0.903   9.293  20.272  0.00  0.00    +0.000 A 
ATOM     11  C   UNL     1       1.531   9.144  19.034  0.00  0.00    +0.000 A 
ATOM     12  C   UNL     1       2.198   7.967  18.699  0.00  0.00    +0.000 A 
BRANCH  10  13
ATOM     13  C   UNL     1       0.296  10.594  20.564  0.00  0.00    +0.000 A 
ATOM     14  N   UNL     1      -0.066  11.460  19.633  0.00  0.00    +0.000 NA
ATOM     15  C   UNL     1      -0.531  12.561  20.289  0.00  0.00    +0.000 A 
ATOM     16  C   UNL     1      -0.985  13.778  19.763  0.00  0.00    +0.000 A 
ATOM     17  C   UNL     1      -1.382  14.782  20.651  0.00  0.00    +0.000 A 
ATOM     18  C   UNL     1      -1.345  14.566  22.031  0.00  0.00    +0.000 A 
ATOM     19  C   UNL     1      -0.913  13.345  22.573  0.00  0.00    +0.000 A 
ATOM     20  C   UNL     1      -0.503  12.366  21.663  0.00  0.00    +0.000 A 
ATOM     21  N   UNL     1      -0.007  11.092  21.811  0.00  0.00    +0.000 N 
ATOM     22  H   UNL     1       0.115  10.603  22.685  0.00  0.00    +0.000 HD
ENDBRANCH  10  13
ENDBRANCH   5   7
BRANCH   1  25
ATOM     23  O   UNL     1       6.530   5.540  16.483  0.00  0.00    +0.000 OA
ATOM     24  C   UNL     1       5.827   4.815  15.788  0.00  0.00    +0.000 C 
ATOM     25  N   UNL     1       4.696   4.122  16.199  0.00  0.00    +0.000 N 
ATOM     26  H   UNL     1       4.354   3.380  15.602  0.00  0.00    +0.000 HD
BRANCH  24  27
ATOM     27  C   UNL     1       6.271   4.619  14.389  0.00  0.00    +0.000 A 
ATOM     28  C   UNL     1       5.584   3.675  13.621  0.00  0.00    +0.000 A 
ATOM     29  C   UNL     1       6.047   3.405  12.350  0.00  0.00    +0.000 A 
ATOM     30  N   UNL     1       7.130   4.004  11.814  0.00  0.00    +0.000 NA
ATOM     31  C   UNL     1       7.788   4.900  12.586  0.00  0.00    +0.000 A 
ATOM     32  C   UNL     1       7.398   5.246  13.870  0.00  0.00    +0.000 A 
ENDBRANCH  24  27
ENDBRANCH   1  25
TORSDOF 4
ENDMDL
MODEL 7
REMARK VINA RESULT:      -8.3      1.127      1.545
REMARK  Name = 
REMARK  4 active torsions:
REMARK  status: ('A' for Active; 'I' for Inactive)
REMARK    1  A    between atoms: C_2  and  C_25
REMARK    2  A    between atoms: N_3  and  C_4
REMARK    3  A    between atoms: C_8  and  C_9
REMARK    4  A    between atoms: C_12  and  C_13
REMARK                            x       y       z     vdW  Elec       q    Type
REMARK                         _______ _______ _______ _____ _____    ______ ____
ROOT
ATOM      1  C   UNL     1       3.979   3.817  17.445  0.00  0.00    +0.000 A 
ATOM      2  C   UNL     1       3.623   2.699  18.203  0.00  0.00    +0.000 A 
ATOM      3  C   UNL     1       2.853   2.831  19.351  0.00  0.00    +0.000 A 
ATOM      4  C   UNL     1       2.437   4.092  19.757  0.00  0.00    +0.000 A 
ATOM      5  C   UNL     1       2.759   5.254  19.027  0.00  0.00    +0.000 A 
ATOM      6  C   UNL     1       3.564   5.093  17.876  0.00  0.00    +0.000 A 
ENDROOT
BRANCH   5   7
ATOM      7  C   UNL     1       2.206   6.563  19.463  0.00  0.00    +0.000 A 
ATOM      8  C   UNL     1       2.212   7.720  18.665  0.00  0.00    +0.000 A 
ATOM      9  C   UNL     1       1.702   8.949  19.139  0.00  0.00    +0.000 A 
ATOM     10  C   UNL     1       1.173   9.049  20.430  0.00  0.00    +0.000 A 
ATOM     11  C   UNL     1       1.154   7.900  21.223  0.00  0.00    +0.000 A 
ATOM     12  C   UNL     1       1.644   6.685  20.747  0.00  0.00    +0.000 A 
BRANCH  10  13
ATOM     13  C   UNL     1       0.565  10.259  20.989  0.00  0.00    +0.000 A 
ATOM     14  N   UNL     1       0.945  11.484  20.673  0.00  0.00    +0.000 NA
ATOM     15  C   UNL     1       0.191  12.330  21.431  0.00  0.00    +0.000 A 
ATOM     16  C   UNL     1       0.241  13.728  21.512  0.00  0.00    +0.000 A 
ATOM     17  C   UNL     1      -0.620  14.377  22.401  0.00  0.00    +0.000 A 
ATOM     18  C   UNL     1      -1.524  13.646  23.176  0.00  0.00    +0.000 A 
ATOM     19  C   UNL     1      -1.602  12.247  23.091  0.00  0.00    +0.000 A 
ATOM     20  C   UNL     1      -0.715  11.623  22.209  0.00  0.00    +0.000 A 
ATOM     21  N   UNL     1      -0.483  10.307  21.881  0.00  0.00    +0.000 N 
ATOM     22  H   UNL     1      -0.991   9.512  22.234  0.00  0.00    +0.000 HD
ENDBRANCH  10  13
ENDBRANCH   5   7
BRANCH   1  25
ATOM     23  O   UNL     1       5.367   5.933  15.974  0.00  0.00    +0.000 OA
ATOM     24  C   UNL     1       5.336   4.768  15.594  0.00  0.00    +0.000 C 
ATOM     25  N   UNL     1       4.744   3.700  16.257  0.00  0.00    +0.000 N 
ATOM     26  H   UNL     1       4.996   2.765  15.964  0.00  0.00    +0.000 HD
BRANCH  24  27
ATOM     27  C   UNL     1       6.052   4.471  14.334  0.00  0.00    +0.000 A 
ATOM     28  C   UNL     1       7.211   5.206  14.062  0.00  0.00    +0.000 A 
ATOM     29  C   UNL     1       7.834   5.016  12.847  0.00  0.00    +0.000 A 
ATOM     30  N   UNL     1       7.382   4.160  11.908  0.00  0.00    +0.000 NA
ATOM     31  C   UNL     1       6.249   3.476  12.189  0.00  0.00    +0.000 A 
ATOM     32  C   UNL     1       5.554   3.588  13.383  0.00  0.00    +0.000 A 
ENDBRANCH  24  27
ENDBRANCH   1  25
TORSDOF 4
ENDMDL
MODEL 8
REMARK VINA RESULT:      -8.2      1.467      2.040
REMARK  Name = 
REMARK  4 active torsions:
REMARK  status: ('A' for Active; 'I' for Inactive)
REMARK    1  A    between atoms: C_2  and  C_25
REMARK    2  A    between atoms: N_3  and  C_4
REMARK    3  A    between atoms: C_8  and  C_9
REMARK    4  A    between atoms: C_12  and  C_13
REMARK                            x       y       z     vdW  Elec       q    Type
REMARK                         _______ _______ _______ _____ _____    ______ ____
ROOT
ATOM      1  C   UNL     1       4.037   4.478  17.502  0.00  0.00    +0.000 A 
ATOM      2  C   UNL     1       3.750   3.477  18.435  0.00  0.00    +0.000 A 
ATOM      3  C   UNL     1       3.021   3.759  19.582  0.00  0.00    +0.000 A 
ATOM      4  C   UNL     1       2.577   5.055  19.811  0.00  0.00    +0.000 A 
ATOM      5  C   UNL     1       2.829   6.101  18.901  0.00  0.00    +0.000 A 
ATOM      6  C   UNL     1       3.594   5.791  17.754  0.00  0.00    +0.000 A 
ENDROOT
BRANCH   5   7
ATOM      7  C   UNL     1       2.247   7.445  19.159  0.00  0.00    +0.000 A 
ATOM      8  C   UNL     1       1.711   7.840  20.397  0.00  0.00    +0.000 A 
ATOM      9  C   UNL     1       1.139   9.119  20.581  0.00  0.00    +0.000 A 
ATOM     10  C   UNL     1       1.090  10.035  19.525  0.00  0.00    +0.000 A 
ATOM     11  C   UNL     1       1.632   9.652  18.297  0.00  0.00    +0.000 A 
ATOM     12  C   UNL     1       2.209   8.395  18.122  0.00  0.00    +0.000 A 
BRANCH  10  13
ATOM     13  C   UNL     1       0.578  11.403  19.634  0.00  0.00    +0.000 A 
ATOM     14  N   UNL     1      -0.378  11.764  20.472  0.00  0.00    +0.000 NA
ATOM     15  C   UNL     1      -0.616  13.087  20.240  0.00  0.00    +0.000 A 
ATOM     16  C   UNL     1      -1.569  13.930  20.827  0.00  0.00    +0.000 A 
ATOM     17  C   UNL     1      -1.645  15.256  20.391  0.00  0.00    +0.000 A 
ATOM     18  C   UNL     1      -0.774  15.732  19.407  0.00  0.00    +0.000 A 
ATOM     19  C   UNL     1       0.199  14.906  18.825  0.00  0.00    +0.000 A 
ATOM     20  C   UNL     1       0.240  13.580  19.264  0.00  0.00    +0.000 A 
ATOM     21  N   UNL     1       1.016  12.497  18.921  0.00  0.00    +0.000 N 
ATOM     22  H   UNL     1       1.776  12.501  18.259  0.00  0.00    +0.000 HD
ENDBRANCH  10  13
ENDBRANCH   5   7
BRANCH   1  25
ATOM     23  O   UNL     1       5.721   6.301  15.951  0.00  0.00    +0.000 OA
ATOM     24  C   UNL     1       5.503   5.144  15.611  0.00  0.00    +0.000 C 
ATOM     25  N   UNL     1       4.760   4.204  16.313  0.00  0.00    +0.000 N 
ATOM     26  H   UNL     1       4.858   3.232  16.050  0.00  0.00    +0.000 HD
BRANCH  24  27
ATOM     27  C   UNL     1       6.149   4.698  14.356  0.00  0.00    +0.000 A 
ATOM     28  C   UNL     1       7.305   5.372  13.951  0.00  0.00    +0.000 A 
ATOM     29  C   UNL     1       7.862   5.039  12.735  0.00  0.00    +0.000 A 
ATOM     30  N   UNL     1       7.347   4.100  11.916  0.00  0.00    +0.000 NA
ATOM     31  C   UNL     1       6.218   3.476  12.323  0.00  0.00    +0.000 A 
ATOM     32  C   UNL     1       5.587   3.731  13.531  0.00  0.00    +0.000 A 
ENDBRANCH  24  27
ENDBRANCH   1  25
TORSDOF 4
ENDMDL
MODEL 9
REMARK VINA RESULT:      -8.2      3.831     11.639
REMARK  Name = 
REMARK  4 active torsions:
REMARK  status: ('A' for Active; 'I' for Inactive)
REMARK    1  A    between atoms: C_2  and  C_25
REMARK    2  A    between atoms: N_3  and  C_4
REMARK    3  A    between atoms: C_8  and  C_9
REMARK    4  A    between atoms: C_12  and  C_13
REMARK                            x       y       z     vdW  Elec       q    Type
REMARK                         _______ _______ _______ _____ _____    ______ ____
ROOT
ATOM      1  C   UNL     1      -2.495  12.519  20.860  0.00  0.00    +0.000 A 
ATOM      2  C   UNL     1      -2.195  12.901  22.170  0.00  0.00    +0.000 A 
ATOM      3  C   UNL     1      -1.149  12.309  22.864  0.00  0.00    +0.000 A 
ATOM      4  C   UNL     1      -0.392  11.318  22.251  0.00  0.00    +0.000 A 
ATOM      5  C   UNL     1      -0.643  10.900  20.929  0.00  0.00    +0.000 A 
ATOM      6  C   UNL     1      -1.730  11.502  20.255  0.00  0.00    +0.000 A 
ENDROOT
BRANCH   5   7
ATOM      7  C   UNL     1       0.260   9.902  20.298  0.00  0.00    +0.000 A 
ATOM      8  C   UNL     1       0.808   8.802  20.981  0.00  0.00    +0.000 A 
ATOM      9  C   UNL     1       1.688   7.900  20.344  0.00  0.00    +0.000 A 
ATOM     10  C   UNL     1       2.044   8.079  19.003  0.00  0.00    +0.000 A 
ATOM     11  C   UNL     1       1.493   9.164  18.317  0.00  0.00    +0.000 A 
ATOM     12  C   UNL     1       0.613  10.044  18.944  0.00  0.00    +0.000 A 
BRANCH  10  13
ATOM     13  C   UNL     1       2.896   7.166  18.238  0.00  0.00    +0.000 A 
ATOM     14  N   UNL     1       2.788   5.849  18.285  0.00  0.00    +0.000 NA
ATOM     15  C   UNL     1       3.779   5.352  17.491  0.00  0.00    +0.000 A 
ATOM     16  C   UNL     1       4.128   4.017  17.244  0.00  0.00    +0.000 A 
ATOM     17  C   UNL     1       5.219   3.756  16.412  0.00  0.00    +0.000 A 
ATOM     18  C   UNL     1       5.932   4.805  15.824  0.00  0.00    +0.000 A 
ATOM     19  C   UNL     1       5.581   6.146  16.044  0.00  0.00    +0.000 A 
ATOM     20  C   UNL     1       4.499   6.379  16.897  0.00  0.00    +0.000 A 
ATOM     21  N   UNL     1       3.893   7.524  17.359  0.00  0.00    +0.000 N 
ATOM     22  H   UNL     1       4.137   8.467  17.100  0.00  0.00    +0.000 HD
ENDBRANCH  10  13
ENDBRANCH   5   7
BRANCH   1  25
ATOM     23  O   UNL     1      -5.378  12.113  21.157  0.00  0.00    +0.000 OA
ATOM     24  C   UNL     1      -4.893  12.845  20.301  0.00  0.00    +0.000 C 
ATOM     25  N   UNL     1      -3.544  13.129  20.127  0.00  0.00    +0.000 N 
ATOM     26  H   UNL     1      -3.300  13.925  19.551  0.00  0.00    +0.000 HD
BRANCH  24  27
ATOM     27  C   UNL     1      -5.852  13.535  19.409  0.00  0.00    +0.000 A 
ATOM     28  C   UNL     1      -6.361  14.765  19.837  0.00  0.00    +0.000 A 
ATOM     29  C   UNL     1      -7.331  15.373  19.069  0.00  0.00    +0.000 A 
ATOM     30  N   UNL     1      -7.816  14.839  17.929  0.00  0.00    +0.000 NA
ATOM     31  C   UNL     1      -7.320  13.639  17.548  0.00  0.00    +0.000 A 
ATOM     32  C   UNL     1      -6.338  12.953  18.244  0.00  0.00    +0.000 A 
ENDBRANCH  24  27
ENDBRANCH   1  25
TORSDOF 4
ENDMDL
