MODEL 1
REMARK VINA RESULT:      -7.9      0.000      0.000
REMARK  Name = 
REMARK  4 active torsions:
REMARK  status: ('A' for Active; 'I' for Inactive)
REMARK    1  A    between atoms: C_2  and  C_3
REMARK    2  A    between atoms: C_3  and  S_4
REMARK    3  A    between atoms: S_4  and  C_5
REMARK    4  A    between atoms: N_9  and  C_10
REMARK                            x       y       z     vdW  Elec       q    Type
REMARK                         _______ _______ _______ _____ _____    ______ ____
ROOT
ATOM      1  C   UNL     1       2.297   6.849  19.845  0.00  0.00    +0.000 C 
ENDROOT
BRANCH   1   3
ATOM      2  O   UNL     1       2.781   7.975  17.777  0.00  0.00    +0.000 OA
ATOM      3  C   UNL     1       2.201   8.016  18.868  0.00  0.00    +0.000 C 
ATOM      4  N   UNL     1       1.401   9.112  19.222  0.00  0.00    +0.000 N 
ATOM      5  C   UNL     1       1.036  10.059  18.164  0.00  0.00    +0.000 C 
ATOM      6  C   UNL     1      -0.473  10.209  18.082  0.00  0.00    +0.000 C 
ATOM      7  C   UNL     1      -1.018  10.732  19.402  0.00  0.00    +0.000 C 
ATOM      8  C   UNL     1      -0.342  10.134  20.612  0.00  0.00    +0.000 A 
ATOM      9  C   UNL     1      -0.921  10.360  21.871  0.00  0.00    +0.000 A 
ATOM     10  C   UNL     1      -0.319   9.878  23.032  0.00  0.00    +0.000 A 
ATOM     11  C   UNL     1       0.894   9.213  22.948  0.00  0.00    +0.000 A 
ATOM     12  C   UNL     1       1.487   8.999  21.701  0.00  0.00    +0.000 A 
ATOM     13  C   UNL     1       0.855   9.398  20.514  0.00  0.00    +0.000 A 
ENDBRANCH   1   3
BRANCH   1  14
ATOM     14  S   UNL     1       1.572   5.333  19.181  0.00  0.00    +0.000 S 
BRANCH  14  15
ATOM     15  C   UNL     1       2.412   4.147  20.141  0.00  0.00    +0.000 A 
ATOM     16  N   UNL     1       1.913   3.612  21.237  0.00  0.00    +0.000 NA
ATOM     17  C   UNL     1       2.733   2.561  21.536  0.00  0.00    +0.000 A 
ATOM     18  C   UNL     1       3.737   2.447  20.606  0.00  0.00    +0.000 A 
ATOM     19  N   UNL     1       3.586   3.518  19.740  0.00  0.00    +0.000 N 
BRANCH  19  20
ATOM     20  C   UNL     1       4.470   3.846  18.675  0.00  0.00    +0.000 A 
ATOM     21  C   UNL     1       4.193   3.401  17.375  0.00  0.00    +0.000 A 
ATOM     22  C   UNL     1       5.034   3.771  16.320  0.00  0.00    +0.000 A 
ATOM     23  C   UNL     1       6.157   4.561  16.563  0.00  0.00    +0.000 A 
ATOM     24 CL   UNL     1       7.178   5.029  15.261  0.00  0.00    +0.000 Cl
ATOM     25  C   UNL     1       6.459   4.972  17.858  0.00  0.00    +0.000 A 
ATOM     26  C   UNL     1       5.621   4.608  18.914  0.00  0.00    +0.000 A 
ENDBRANCH  19  20
ENDBRANCH  14  15
ENDBRANCH   1  14
TORSDOF 4
ENDMDL
MODEL 2
REMARK VINA RESULT:      -7.6      3.724      8.669
REMARK  Name = 
REMARK  4 active torsions:
REMARK  status: ('A' for Active; 'I' for Inactive)
REMARK    1  A    between atoms: C_2  and  C_3
REMARK    2  A    between atoms: C_3  and  S_4
REMARK    3  A    between atoms: S_4  and  C_5
REMARK    4  A    between atoms: N_9  and  C_10
REMARK                            x       y       z     vdW  Elec       q    Type
REMARK                         _______ _______ _______ _____ _____    ______ ____
ROOT
ATOM      1  C   UNL     1       2.118   8.562  18.453  0.00  0.00    +0.000 C 
ENDROOT
BRANCH   1   3
ATOM      2  O   UNL     1       1.549   8.082  20.739  0.00  0.00    +0.000 OA
ATOM      3  C   UNL     1       2.027   7.660  19.680  0.00  0.00    +0.000 C 
ATOM      4  N   UNL     1       2.457   6.330  19.558  0.00  0.00    +0.000 N 
ATOM      5  C   UNL     1       2.058   5.387  20.608  0.00  0.00    +0.000 C 
ATOM      6  C   UNL     1       1.331   4.197  20.005  0.00  0.00    +0.000 C 
ATOM      7  C   UNL     1       2.240   3.470  19.026  0.00  0.00    +0.000 C 
ATOM      8  C   UNL     1       3.083   4.397  18.185  0.00  0.00    +0.000 A 
ATOM      9  C   UNL     1       3.775   3.851  17.092  0.00  0.00    +0.000 A 
ATOM     10  C   UNL     1       4.610   4.643  16.306  0.00  0.00    +0.000 A 
ATOM     11  C   UNL     1       4.801   5.975  16.638  0.00  0.00    +0.000 A 
ATOM     12  C   UNL     1       4.131   6.523  17.734  0.00  0.00    +0.000 A 
ATOM     13  C   UNL     1       3.220   5.767  18.485  0.00  0.00    +0.000 A 
ENDBRANCH   1   3
BRANCH   1  14
ATOM     14  S   UNL     1       0.712   9.688  18.321  0.00  0.00    +0.000 S 
BRANCH  14  15
ATOM     15  C   UNL     1       1.514  11.211  18.591  0.00  0.00    +0.000 A 
ATOM     16  N   UNL     1       2.548  11.624  17.886  0.00  0.00    +0.000 NA
ATOM     17  C   UNL     1       2.709  12.941  18.214  0.00  0.00    +0.000 A 
ATOM     18  C   UNL     1       1.756  13.337  19.121  0.00  0.00    +0.000 A 
ATOM     19  N   UNL     1       1.024  12.204  19.433  0.00  0.00    +0.000 N 
BRANCH  19  20
ATOM     20  C   UNL     1      -0.008  12.135  20.409  0.00  0.00    +0.000 A 
ATOM     21  C   UNL     1       0.193  11.407  21.590  0.00  0.00    +0.000 A 
ATOM     22  C   UNL     1      -0.801  11.385  22.573  0.00  0.00    +0.000 A 
ATOM     23  C   UNL     1      -2.001  12.068  22.370  0.00  0.00    +0.000 A 
ATOM     24 CL   UNL     1      -3.213  12.055  23.588  0.00  0.00    +0.000 Cl
ATOM     25  C   UNL     1      -2.222  12.760  21.184  0.00  0.00    +0.000 A 
ATOM     26  C   UNL     1      -1.231  12.788  20.201  0.00  0.00    +0.000 A 
ENDBRANCH  19  20
ENDBRANCH  14  15
ENDBRANCH   1  14
TORSDOF 4
ENDMDL
MODEL 3
REMARK VINA RESULT:      -7.5      1.179      1.294
REMARK  Name = 
REMARK  4 active torsions:
REMARK  status: ('A' for Active; 'I' for Inactive)
REMARK    1  A    between atoms: C_2  and  C_3
REMARK    2  A    between atoms: C_3  and  S_4
REMARK    3  A    between atoms: S_4  and  C_5
REMARK    4  A    between atoms: N_9  and  C_10
REMARK                            x       y       z     vdW  Elec       q    Type
REMARK                         _______ _______ _______ _____ _____    ______ ____
ROOT
ATOM      1  C   UNL     1       1.456   6.268  20.663  0.00  0.00    +0.000 C 
ENDROOT
BRANCH   1   3
ATOM      2  O   UNL     1       2.733   6.846  18.709  0.00  0.00    +0.000 OA
ATOM      3  C   UNL     1       1.972   7.236  19.602  0.00  0.00    +0.000 C 
ATOM      4  N   UNL     1       1.525   8.565  19.644  0.00  0.00    +0.000 N 
ATOM      5  C   UNL     1       1.740   9.393  18.453  0.00  0.00    +0.000 C 
ATOM      6  C   UNL     1       0.425   9.976  17.967  0.00  0.00    +0.000 C 
ATOM      7  C   UNL     1      -0.194  10.845  19.051  0.00  0.00    +0.000 C 
ATOM      8  C   UNL     1      -0.041  10.275  20.440  0.00  0.00    +0.000 A 
ATOM      9  C   UNL     1      -0.776  10.865  21.481  0.00  0.00    +0.000 A 
ATOM     10  C   UNL     1      -0.642  10.419  22.794  0.00  0.00    +0.000 A 
ATOM     11  C   UNL     1       0.267   9.415  23.085  0.00  0.00    +0.000 A 
ATOM     12  C   UNL     1       1.017   8.834  22.060  0.00  0.00    +0.000 A 
ATOM     13  C   UNL     1       0.833   9.207  20.720  0.00  0.00    +0.000 A 
ENDBRANCH   1   3
BRANCH   1  14
ATOM     14  S   UNL     1       2.658   4.980  21.061  0.00  0.00    +0.000 S 
BRANCH  14  15
ATOM     15  C   UNL     1       2.030   3.669  20.100  0.00  0.00    +0.000 A 
ATOM     16  N   UNL     1       0.925   3.015  20.395  0.00  0.00    +0.000 NA
ATOM     17  C   UNL     1       0.637   2.269  19.286  0.00  0.00    +0.000 A 
ATOM     18  C   UNL     1       1.571   2.480  18.302  0.00  0.00    +0.000 A 
ATOM     19  N   UNL     1       2.524   3.325  18.846  0.00  0.00    +0.000 N 
BRANCH  19  20
ATOM     20  C   UNL     1       3.726   3.731  18.204  0.00  0.00    +0.000 A 
ATOM     21  C   UNL     1       3.763   3.866  16.809  0.00  0.00    +0.000 A 
ATOM     22  C   UNL     1       4.929   4.318  16.184  0.00  0.00    +0.000 A 
ATOM     23  C   UNL     1       6.061   4.613  16.944  0.00  0.00    +0.000 A 
ATOM     24 CL   UNL     1       7.487   5.186  16.174  0.00  0.00    +0.000 Cl
ATOM     25  C   UNL     1       6.044   4.443  18.324  0.00  0.00    +0.000 A 
ATOM     26  C   UNL     1       4.881   3.995  18.953  0.00  0.00    +0.000 A 
ENDBRANCH  19  20
ENDBRANCH  14  15
ENDBRANCH   1  14
TORSDOF 4
ENDMDL
MODEL 4
REMARK VINA RESULT:      -7.4      3.734      8.736
REMARK  Name = 
REMARK  4 active torsions:
REMARK  status: ('A' for Active; 'I' for Inactive)
REMARK    1  A    between atoms: C_2  and  C_3
REMARK    2  A    between atoms: C_3  and  S_4
REMARK    3  A    between atoms: S_4  and  C_5
REMARK    4  A    between atoms: N_9  and  C_10
REMARK                            x       y       z     vdW  Elec       q    Type
REMARK                         _______ _______ _______ _____ _____    ______ ____
ROOT
ATOM      1  C   UNL     1       2.169   8.560  18.349  0.00  0.00    +0.000 C 
ENDROOT
BRANCH   1   3
ATOM      2  O   UNL     1       1.694   7.762  20.567  0.00  0.00    +0.000 OA
ATOM      3  C   UNL     1       2.216   7.527  19.471  0.00  0.00    +0.000 C 
ATOM      4  N   UNL     1       2.827   6.292  19.209  0.00  0.00    +0.000 N 
ATOM      5  C   UNL     1       2.574   5.195  20.149  0.00  0.00    +0.000 C 
ATOM      6  C   UNL     1       2.015   3.987  19.418  0.00  0.00    +0.000 C 
ATOM      7  C   UNL     1       3.008   3.504  18.372  0.00  0.00    +0.000 C 
ATOM      8  C   UNL     1       3.705   4.625  17.640  0.00  0.00    +0.000 A 
ATOM      9  C   UNL     1       4.456   4.302  16.499  0.00  0.00    +0.000 A 
ATOM     10  C   UNL     1       5.165   5.283  15.808  0.00  0.00    +0.000 A 
ATOM     11  C   UNL     1       5.170   6.585  16.282  0.00  0.00    +0.000 A 
ATOM     12  C   UNL     1       4.441   6.913  17.427  0.00  0.00    +0.000 A 
ATOM     13  C   UNL     1       3.651   5.960  18.087  0.00  0.00    +0.000 A 
ENDBRANCH   1   3
BRANCH   1  14
ATOM     14  S   UNL     1       0.738   9.655  18.482  0.00  0.00    +0.000 S 
BRANCH  14  15
ATOM     15  C   UNL     1       1.544  11.191  18.647  0.00  0.00    +0.000 A 
ATOM     16  N   UNL     1       2.554  11.568  17.889  0.00  0.00    +0.000 NA
ATOM     17  C   UNL     1       2.721  12.901  18.142  0.00  0.00    +0.000 A 
ATOM     18  C   UNL     1       1.796  13.342  19.056  0.00  0.00    +0.000 A 
ATOM     19  N   UNL     1       1.077  12.226  19.451  0.00  0.00    +0.000 N 
BRANCH  19  20
ATOM     20  C   UNL     1       0.077  12.207  20.461  0.00  0.00    +0.000 A 
ATOM     21  C   UNL     1      -1.056  13.025  20.339  0.00  0.00    +0.000 A 
ATOM     22  C   UNL     1      -2.065  12.965  21.305  0.00  0.00    +0.000 A 
ATOM     23  C   UNL     1      -1.937  12.110  22.399  0.00  0.00    +0.000 A 
ATOM     24 CL   UNL     1      -3.188  12.024  23.574  0.00  0.00    +0.000 Cl
ATOM     25  C   UNL     1      -0.798  11.325  22.546  0.00  0.00    +0.000 A 
ATOM     26  C   UNL     1       0.212  11.379  21.583  0.00  0.00    +0.000 A 
ENDBRANCH  19  20
ENDBRANCH  14  15
ENDBRANCH   1  14
TORSDOF 4
ENDMDL
MODEL 5
REMARK VINA RESULT:      -7.4      3.146      7.761
REMARK  Name = 
REMARK  4 active torsions:
REMARK  status: ('A' for Active; 'I' for Inactive)
REMARK    1  A    between atoms: C_2  and  C_3
REMARK    2  A    between atoms: C_3  and  S_4
REMARK    3  A    between atoms: S_4  and  C_5
REMARK    4  A    between atoms: N_9  and  C_10
REMARK                            x       y       z     vdW  Elec       q    Type
REMARK                         _______ _______ _______ _____ _____    ______ ____
ROOT
ATOM      1  C   UNL     1       1.539   7.825  20.877  0.00  0.00    +0.000 C 
ENDROOT
BRANCH   1   3
ATOM      2  O   UNL     1       2.056   8.715  18.704  0.00  0.00    +0.000 OA
ATOM      3  C   UNL     1       2.077   7.731  19.452  0.00  0.00    +0.000 C 
ATOM      4  N   UNL     1       2.633   6.513  19.033  0.00  0.00    +0.000 N 
ATOM      5  C   UNL     1       3.445   6.521  17.812  0.00  0.00    +0.000 C 
ATOM      6  C   UNL     1       4.826   5.954  18.089  0.00  0.00    +0.000 C 
ATOM      7  C   UNL     1       4.714   4.520  18.582  0.00  0.00    +0.000 C 
ATOM      8  C   UNL     1       3.558   4.297  19.527  0.00  0.00    +0.000 A 
ATOM      9  C   UNL     1       3.502   3.081  20.226  0.00  0.00    +0.000 A 
ATOM     10  C   UNL     1       2.435   2.792  21.074  0.00  0.00    +0.000 A 
ATOM     11  C   UNL     1       1.390   3.694  21.190  0.00  0.00    +0.000 A 
ATOM     12  C   UNL     1       1.428   4.899  20.485  0.00  0.00    +0.000 A 
ATOM     13  C   UNL     1       2.532   5.248  19.694  0.00  0.00    +0.000 A 
ENDBRANCH   1   3
BRANCH   1  14
ATOM     14  S   UNL     1      -0.112   8.554  20.942  0.00  0.00    +0.000 S 
BRANCH  14  15
ATOM     15  C   UNL     1       0.299  10.246  20.893  0.00  0.00    +0.000 A 
ATOM     16  N   UNL     1       1.185  10.804  21.694  0.00  0.00    +0.000 NA
ATOM     17  C   UNL     1       1.415  12.047  21.174  0.00  0.00    +0.000 A 
ATOM     18  C   UNL     1       0.669  12.245  20.038  0.00  0.00    +0.000 A 
ATOM     19  N   UNL     1      -0.118  11.115  19.889  0.00  0.00    +0.000 N 
BRANCH  19  20
ATOM     20  C   UNL     1      -1.116  10.933  18.893  0.00  0.00    +0.000 A 
ATOM     21  C   UNL     1      -2.316  11.655  18.965  0.00  0.00    +0.000 A 
ATOM     22  C   UNL     1      -3.274  11.516  17.955  0.00  0.00    +0.000 A 
ATOM     23  C   UNL     1      -3.046  10.645  16.890  0.00  0.00    +0.000 A 
ATOM     24 CL   UNL     1      -4.217  10.491  15.641  0.00  0.00    +0.000 Cl
ATOM     25  C   UNL     1      -1.875   9.896  16.833  0.00  0.00    +0.000 A 
ATOM     26  C   UNL     1      -0.915  10.033  17.837  0.00  0.00    +0.000 A 
ENDBRANCH  19  20
ENDBRANCH  14  15
ENDBRANCH   1  14
TORSDOF 4
ENDMDL
MODEL 6
REMARK VINA RESULT:      -7.4      1.299      1.492
REMARK  Name = 
REMARK  4 active torsions:
REMARK  status: ('A' for Active; 'I' for Inactive)
REMARK    1  A    between atoms: C_2  and  C_3
REMARK    2  A    between atoms: C_3  and  S_4
REMARK    3  A    between atoms: S_4  and  C_5
REMARK    4  A    between atoms: N_9  and  C_10
REMARK                            x       y       z     vdW  Elec       q    Type
REMARK                         _______ _______ _______ _____ _____    ______ ____
ROOT
ATOM      1  C   UNL     1       1.892   7.968  19.200  0.00  0.00    +0.000 C 
ENDROOT
BRANCH   1   3
ATOM      2  O   UNL     1       2.228   9.697  17.563  0.00  0.00    +0.000 OA
ATOM      3  C   UNL     1       1.745   9.387  18.658  0.00  0.00    +0.000 C 
ATOM      4  N   UNL     1       1.011  10.312  19.415  0.00  0.00    +0.000 N 
ATOM      5  C   UNL     1       0.584  11.548  18.751  0.00  0.00    +0.000 C 
ATOM      6  C   UNL     1      -0.921  11.716  18.860  0.00  0.00    +0.000 C 
ATOM      7  C   UNL     1      -1.335  11.789  20.322  0.00  0.00    +0.000 C 
ATOM      8  C   UNL     1      -0.574  10.835  21.211  0.00  0.00    +0.000 A 
ATOM      9  C   UNL     1      -1.035  10.646  22.523  0.00  0.00    +0.000 A 
ATOM     10  C   UNL     1      -0.349   9.819  23.410  0.00  0.00    +0.000 A 
ATOM     11  C   UNL     1       0.832   9.216  23.008  0.00  0.00    +0.000 A 
ATOM     12  C   UNL     1       1.309   9.412  21.710  0.00  0.00    +0.000 A 
ATOM     13  C   UNL     1       0.588  10.170  20.775  0.00  0.00    +0.000 A 
ENDBRANCH   1   3
BRANCH   1  14
ATOM     14  S   UNL     1       2.462   6.806  17.940  0.00  0.00    +0.000 S 
BRANCH  14  15
ATOM     15  C   UNL     1       3.103   5.545  18.955  0.00  0.00    +0.000 A 
ATOM     16  N   UNL     1       2.568   5.196  20.108  0.00  0.00    +0.000 NA
ATOM     17  C   UNL     1       3.182   4.025  20.455  0.00  0.00    +0.000 A 
ATOM     18  C   UNL     1       4.093   3.651  19.498  0.00  0.00    +0.000 A 
ATOM     19  N   UNL     1       4.109   4.668  18.558  0.00  0.00    +0.000 N 
BRANCH  19  20
ATOM     20  C   UNL     1       4.981   4.741  17.438  0.00  0.00    +0.000 A 
ATOM     21  C   UNL     1       4.654   4.068  16.252  0.00  0.00    +0.000 A 
ATOM     22  C   UNL     1       5.486   4.185  15.134  0.00  0.00    +0.000 A 
ATOM     23  C   UNL     1       6.650   4.950  15.204  0.00  0.00    +0.000 A 
ATOM     24 CL   UNL     1       7.660   5.107  13.822  0.00  0.00    +0.000 Cl
ATOM     25  C   UNL     1       7.000   5.588  16.390  0.00  0.00    +0.000 A 
ATOM     26  C   UNL     1       6.172   5.477  17.508  0.00  0.00    +0.000 A 
ENDBRANCH  19  20
ENDBRANCH  14  15
ENDBRANCH   1  14
TORSDOF 4
ENDMDL
MODEL 7
REMARK VINA RESULT:      -7.4      1.885      2.464
REMARK  Name = 
REMARK  4 active torsions:
REMARK  status: ('A' for Active; 'I' for Inactive)
REMARK    1  A    between atoms: C_2  and  C_3
REMARK    2  A    between atoms: C_3  and  S_4
REMARK    3  A    between atoms: S_4  and  C_5
REMARK    4  A    between atoms: N_9  and  C_10
REMARK                            x       y       z     vdW  Elec       q    Type
REMARK                         _______ _______ _______ _____ _____    ______ ____
ROOT
ATOM      1  C   UNL     1       1.363   9.091  18.903  0.00  0.00    +0.000 C 
ENDROOT
BRANCH   1   3
ATOM      2  O   UNL     1       2.310  11.031  17.846  0.00  0.00    +0.000 OA
ATOM      3  C   UNL     1       1.624  10.588  18.774  0.00  0.00    +0.000 C 
ATOM      4  N   UNL     1       1.027  11.447  19.709  0.00  0.00    +0.000 N 
ATOM      5  C   UNL     1       0.992  12.879  19.392  0.00  0.00    +0.000 C 
ATOM      6  C   UNL     1      -0.434  13.399  19.441  0.00  0.00    +0.000 C 
ATOM      7  C   UNL     1      -1.015  13.201  20.832  0.00  0.00    +0.000 C 
ATOM      8  C   UNL     1      -0.625  11.888  21.466  0.00  0.00    +0.000 A 
ATOM      9  C   UNL     1      -1.292  11.497  22.638  0.00  0.00    +0.000 A 
ATOM     10  C   UNL     1      -0.943  10.322  23.301  0.00  0.00    +0.000 A 
ATOM     11  C   UNL     1       0.109   9.555  22.827  0.00  0.00    +0.000 A 
ATOM     12  C   UNL     1       0.792   9.946  21.673  0.00  0.00    +0.000 A 
ATOM     13  C   UNL     1       0.401  11.077  20.942  0.00  0.00    +0.000 A 
ENDBRANCH   1   3
BRANCH   1  14
ATOM     14  S   UNL     1       2.512   8.105  17.918  0.00  0.00    +0.000 S 
BRANCH  14  15
ATOM     15  C   UNL     1       2.743   6.748  18.985  0.00  0.00    +0.000 A 
ATOM     16  N   UNL     1       2.062   6.574  20.099  0.00  0.00    +0.000 NA
ATOM     17  C   UNL     1       2.334   5.295  20.497  0.00  0.00    +0.000 A 
ATOM     18  C   UNL     1       3.183   4.679  19.610  0.00  0.00    +0.000 A 
ATOM     19  N   UNL     1       3.518   5.637  18.666  0.00  0.00    +0.000 N 
BRANCH  19  20
ATOM     20  C   UNL     1       4.454   5.459  17.611  0.00  0.00    +0.000 A 
ATOM     21  C   UNL     1       5.611   6.249  17.562  0.00  0.00    +0.000 A 
ATOM     22  C   UNL     1       6.557   6.035  16.555  0.00  0.00    +0.000 A 
ATOM     23  C   UNL     1       6.340   5.055  15.587  0.00  0.00    +0.000 A 
ATOM     24 CL   UNL     1       7.514   4.782  14.361  0.00  0.00    +0.000 Cl
ATOM     25  C   UNL     1       5.175   4.295  15.607  0.00  0.00    +0.000 A 
ATOM     26  C   UNL     1       4.229   4.501  16.612  0.00  0.00    +0.000 A 
ENDBRANCH  19  20
ENDBRANCH  14  15
ENDBRANCH   1  14
TORSDOF 4
ENDMDL
MODEL 8
REMARK VINA RESULT:      -7.3      3.869      8.785
REMARK  Name = 
REMARK  4 active torsions:
REMARK  status: ('A' for Active; 'I' for Inactive)
REMARK    1  A    between atoms: C_2  and  C_3
REMARK    2  A    between atoms: C_3  and  S_4
REMARK    3  A    between atoms: S_4  and  C_5
REMARK    4  A    between atoms: N_9  and  C_10
REMARK                            x       y       z     vdW  Elec       q    Type
REMARK                         _______ _______ _______ _____ _____    ______ ____
ROOT
ATOM      1  C   UNL     1       2.026   8.704  18.582  0.00  0.00    +0.000 C 
ENDROOT
BRANCH   1   3
ATOM      2  O   UNL     1       1.419   8.181  20.849  0.00  0.00    +0.000 OA
ATOM      3  C   UNL     1       1.917   7.780  19.791  0.00  0.00    +0.000 C 
ATOM      4  N   UNL     1       2.355   6.454  19.653  0.00  0.00    +0.000 N 
ATOM      5  C   UNL     1       1.942   5.491  20.679  0.00  0.00    +0.000 C 
ATOM      6  C   UNL     1       1.231   4.310  20.042  0.00  0.00    +0.000 C 
ATOM      7  C   UNL     1       2.160   3.603  19.067  0.00  0.00    +0.000 C 
ATOM      8  C   UNL     1       3.013   4.549  18.257  0.00  0.00    +0.000 A 
ATOM      9  C   UNL     1       3.727   4.026  17.167  0.00  0.00    +0.000 A 
ATOM     10  C   UNL     1       4.572   4.835  16.410  0.00  0.00    +0.000 A 
ATOM     11  C   UNL     1       4.751   6.161  16.769  0.00  0.00    +0.000 A 
ATOM     12  C   UNL     1       4.060   6.687  17.863  0.00  0.00    +0.000 A 
ATOM     13  C   UNL     1       3.139   5.913  18.584  0.00  0.00    +0.000 A 
ENDBRANCH   1   3
BRANCH   1  14
ATOM     14  S   UNL     1       0.427   9.388  18.093  0.00  0.00    +0.000 S 
BRANCH  14  15
ATOM     15  C   UNL     1       0.653  11.053  18.552  0.00  0.00    +0.000 A 
ATOM     16  N   UNL     1       1.833  11.584  18.804  0.00  0.00    +0.000 NA
ATOM     17  C   UNL     1       1.620  12.933  18.859  0.00  0.00    +0.000 A 
ATOM     18  C   UNL     1       0.299  13.228  18.628  0.00  0.00    +0.000 A 
ATOM     19  N   UNL     1      -0.353  12.012  18.505  0.00  0.00    +0.000 N 
BRANCH  19  20
ATOM     20  C   UNL     1      -1.757  11.843  18.353  0.00  0.00    +0.000 A 
ATOM     21  C   UNL     1      -2.617  12.144  19.418  0.00  0.00    +0.000 A 
ATOM     22  C   UNL     1      -4.001  12.030  19.249  0.00  0.00    +0.000 A 
ATOM     23  C   UNL     1      -4.524  11.598  18.031  0.00  0.00    +0.000 A 
ATOM     24 CL   UNL     1      -6.226  11.477  17.821  0.00  0.00    +0.000 Cl
ATOM     25  C   UNL     1      -3.674  11.260  16.983  0.00  0.00    +0.000 A 
ATOM     26  C   UNL     1      -2.292  11.375  17.145  0.00  0.00    +0.000 A 
ENDBRANCH  19  20
ENDBRANCH  14  15
ENDBRANCH   1  14
TORSDOF 4
ENDMDL
MODEL 9
REMARK VINA RESULT:      -7.3      3.885      8.803
REMARK  Name = 
REMARK  4 active torsions:
REMARK  status: ('A' for Active; 'I' for Inactive)
REMARK    1  A    between atoms: C_2  and  C_3
REMARK    2  A    between atoms: C_3  and  S_4
REMARK    3  A    between atoms: S_4  and  C_5
REMARK    4  A    between atoms: N_9  and  C_10
REMARK                            x       y       z     vdW  Elec       q    Type
REMARK                         _______ _______ _______ _____ _____    ______ ____
ROOT
ATOM      1  C   UNL     1       2.040   8.767  18.409  0.00  0.00    +0.000 C 
ENDROOT
BRANCH   1   3
ATOM      2  O   UNL     1       1.471   8.052  20.633  0.00  0.00    +0.000 OA
ATOM      3  C   UNL     1       2.013   7.766  19.559  0.00  0.00    +0.000 C 
ATOM      4  N   UNL     1       2.580   6.500  19.349  0.00  0.00    +0.000 N 
ATOM      5  C   UNL     1       2.257   5.441  20.311  0.00  0.00    +0.000 C 
ATOM      6  C   UNL     1       1.670   4.237  19.597  0.00  0.00    +0.000 C 
ATOM      7  C   UNL     1       2.671   3.684  18.594  0.00  0.00    +0.000 C 
ATOM      8  C   UNL     1       3.433   4.755  17.852  0.00  0.00    +0.000 A 
ATOM      9  C   UNL     1       4.202   4.370  16.742  0.00  0.00    +0.000 A 
ATOM     10  C   UNL     1       4.969   5.302  16.045  0.00  0.00    +0.000 A 
ATOM     11  C   UNL     1       5.014   6.615  16.484  0.00  0.00    +0.000 A 
ATOM     12  C   UNL     1       4.267   7.004  17.598  0.00  0.00    +0.000 A 
ATOM     13  C   UNL     1       3.421   6.103  18.261  0.00  0.00    +0.000 A 
ENDBRANCH   1   3
BRANCH   1  14
ATOM     14  S   UNL     1       0.405   9.446  18.051  0.00  0.00    +0.000 S 
BRANCH  14  15
ATOM     15  C   UNL     1       0.647  11.100  18.541  0.00  0.00    +0.000 A 
ATOM     16  N   UNL     1       1.832  11.617  18.798  0.00  0.00    +0.000 NA
ATOM     17  C   UNL     1       1.630  12.967  18.881  0.00  0.00    +0.000 A 
ATOM     18  C   UNL     1       0.310  13.276  18.662  0.00  0.00    +0.000 A 
ATOM     19  N   UNL     1      -0.353  12.068  18.519  0.00  0.00    +0.000 N 
BRANCH  19  20
ATOM     20  C   UNL     1      -1.758  11.913  18.370  0.00  0.00    +0.000 A 
ATOM     21  C   UNL     1      -2.288  11.476  17.148  0.00  0.00    +0.000 A 
ATOM     22  C   UNL     1      -3.666  11.272  17.020  0.00  0.00    +0.000 A 
ATOM     23  C   UNL     1      -4.514  11.523  18.098  0.00  0.00    +0.000 A 
ATOM     24 CL   UNL     1      -6.204  11.253  17.943  0.00  0.00    +0.000 Cl
ATOM     25  C   UNL     1      -3.999  11.995  19.301  0.00  0.00    +0.000 A 
ATOM     26  C   UNL     1      -2.624  12.197  19.435  0.00  0.00    +0.000 A 
ENDBRANCH  19  20
ENDBRANCH  14  15
ENDBRANCH   1  14
TORSDOF 4
ENDMDL
