MODEL 1
REMARK VINA RESULT:      -8.0      0.000      0.000
REMARK  Name = 
REMARK  3 active torsions:
REMARK  status: ('A' for Active; 'I' for Inactive)
REMARK    1  A    between atoms: C_2  and  C_3
REMARK    2  A    between atoms: C_6  and  C_7
REMARK    3  A    between atoms: N_9  and  C_10
REMARK                            x       y       z     vdW  Elec       q    Type
REMARK                         _______ _______ _______ _____ _____    ______ ____
ROOT
ATOM      1  C   UNL     1       1.888   8.519  18.575  0.00  0.00    +0.000 C 
ATOM      2  O   UNL     1       1.881   8.874  17.400  0.00  0.00    +0.000 OA
ATOM      3  N   UNL     1       2.427   7.342  19.067  0.00  0.00    +0.000 N 
ATOM      4  H   UNL     1       2.245   7.127  20.037  0.00  0.00    +0.000 HD
ENDROOT
BRANCH   3   5
ATOM      5  C   UNL     1       3.094   6.333  18.318  0.00  0.00    +0.000 A 
ATOM      6  C   UNL     1       4.187   6.661  17.506  0.00  0.00    +0.000 A 
ATOM      7  C   UNL     1       4.813   5.702  16.719  0.00  0.00    +0.000 A 
ATOM      8  C   UNL     1       4.357   4.392  16.737  0.00  0.00    +0.000 A 
ATOM      9  C   UNL     1       3.290   4.014  17.559  0.00  0.00    +0.000 A 
ATOM     10  C   UNL     1       2.860   2.677  17.546  0.00  0.00    +0.000 A 
ATOM     11  C   UNL     1       1.804   2.252  18.347  0.00  0.00    +0.000 A 
ATOM     12  C   UNL     1       1.167   3.161  19.178  0.00  0.00    +0.000 A 
ATOM     13  C   UNL     1       1.578   4.500  19.198  0.00  0.00    +0.000 A 
ATOM     14  C   UNL     1       2.644   4.974  18.386  0.00  0.00    +0.000 A 
ENDBRANCH   3   5
BRANCH   1  18
ATOM     15  C   UNL     1      -0.070  11.018  21.484  0.00  0.00    +0.000 A 
ATOM     16  C   UNL     1       0.008   9.635  21.666  0.00  0.00    +0.000 A 
ATOM     17  C   UNL     1       0.644   8.840  20.707  0.00  0.00    +0.000 A 
ATOM     18  C   UNL     1       1.210   9.417  19.557  0.00  0.00    +0.000 A 
ATOM     19  C   UNL     1       1.118  10.799  19.392  0.00  0.00    +0.000 A 
ATOM     20  F   UNL     1       1.646  11.404  18.317  0.00  0.00    +0.000 F 
ATOM     21  C   UNL     1       0.485  11.600  20.341  0.00  0.00    +0.000 A 
BRANCH  15  23
ATOM     22  N   UNL     1      -1.234  12.508  23.259  0.00  0.00    +0.000 NA
ATOM     23  C   UNL     1      -0.712  11.838  22.466  0.00  0.00    +0.000 C 
ENDBRANCH  15  23
ENDBRANCH   1  18
TORSDOF 3
ENDMDL
MODEL 2
REMARK VINA RESULT:      -8.0      1.042      1.459
REMARK  Name = 
REMARK  3 active torsions:
REMARK  status: ('A' for Active; 'I' for Inactive)
REMARK    1  A    between atoms: C_2  and  C_3
REMARK    2  A    between atoms: C_6  and  C_7
REMARK    3  A    between atoms: N_9  and  C_10
REMARK                            x       y       z     vdW  Elec       q    Type
REMARK                         _______ _______ _______ _____ _____    ______ ____
ROOT
ATOM      1  C   UNL     1       1.883   8.463  18.628  0.00  0.00    +0.000 C 
ATOM      2  O   UNL     1       1.815   8.825  17.457  0.00  0.00    +0.000 OA
ATOM      3  N   UNL     1       2.471   7.296  19.087  0.00  0.00    +0.000 N 
ATOM      4  H   UNL     1       2.338   7.071  20.062  0.00  0.00    +0.000 HD
ENDROOT
BRANCH   3   5
ATOM      5  C   UNL     1       3.128   6.308  18.301  0.00  0.00    +0.000 A 
ATOM      6  C   UNL     1       4.198   6.661  17.470  0.00  0.00    +0.000 A 
ATOM      7  C   UNL     1       4.812   5.723  16.649  0.00  0.00    +0.000 A 
ATOM      8  C   UNL     1       4.366   4.409  16.650  0.00  0.00    +0.000 A 
ATOM      9  C   UNL     1       3.321   4.006  17.489  0.00  0.00    +0.000 A 
ATOM     10  C   UNL     1       2.900   2.667  17.458  0.00  0.00    +0.000 A 
ATOM     11  C   UNL     1       1.866   2.218  18.274  0.00  0.00    +0.000 A 
ATOM     12  C   UNL     1       1.243   3.105  19.139  0.00  0.00    +0.000 A 
ATOM     13  C   UNL     1       1.646   4.446  19.178  0.00  0.00    +0.000 A 
ATOM     14  C   UNL     1       2.689   4.945  18.351  0.00  0.00    +0.000 A 
ENDBRANCH   3   5
BRANCH   1  18
ATOM     15  C   UNL     1      -0.016  11.071  21.480  0.00  0.00    +0.000 A 
ATOM     16  C   UNL     1       0.389  11.550  20.231  0.00  0.00    +0.000 A 
ATOM     17  C   UNL     1       1.009  10.688  19.321  0.00  0.00    +0.000 A 
ATOM     18  C   UNL     1       1.230   9.339  19.646  0.00  0.00    +0.000 A 
ATOM     19  C   UNL     1       0.821   8.881  20.899  0.00  0.00    +0.000 A 
ATOM     20  F   UNL     1       1.001   7.601  21.260  0.00  0.00    +0.000 F 
ATOM     21  C   UNL     1       0.204   9.732  21.814  0.00  0.00    +0.000 A 
BRANCH  15  23
ATOM     22  N   UNL     1      -1.175  12.656  23.173  0.00  0.00    +0.000 NA
ATOM     23  C   UNL     1      -0.658  11.946  22.412  0.00  0.00    +0.000 C 
ENDBRANCH  15  23
ENDBRANCH   1  18
TORSDOF 3
ENDMDL
MODEL 3
REMARK VINA RESULT:      -7.9      1.318      1.340
REMARK  Name = 
REMARK  3 active torsions:
REMARK  status: ('A' for Active; 'I' for Inactive)
REMARK    1  A    between atoms: C_2  and  C_3
REMARK    2  A    between atoms: C_6  and  C_7
REMARK    3  A    between atoms: N_9  and  C_10
REMARK                            x       y       z     vdW  Elec       q    Type
REMARK                         _______ _______ _______ _____ _____    ______ ____
ROOT
ATOM      1  C   UNL     1       2.044   7.773  19.561  0.00  0.00    +0.000 C 
ATOM      2  O   UNL     1       2.304   8.073  18.399  0.00  0.00    +0.000 OA
ATOM      3  N   UNL     1       2.422   6.606  20.205  0.00  0.00    +0.000 N 
ATOM      4  H   UNL     1       2.026   6.442  21.120  0.00  0.00    +0.000 HD
ENDROOT
BRANCH   3   5
ATOM      5  C   UNL     1       3.199   5.547  19.660  0.00  0.00    +0.000 A 
ATOM      6  C   UNL     1       4.559   5.735  19.387  0.00  0.00    +0.000 A 
ATOM      7  C   UNL     1       5.321   4.733  18.797  0.00  0.00    +0.000 A 
ATOM      8  C   UNL     1       4.732   3.519  18.475  0.00  0.00    +0.000 A 
ATOM      9  C   UNL     1       3.384   3.277  18.762  0.00  0.00    +0.000 A 
ATOM     10  C   UNL     1       2.828   2.034  18.419  0.00  0.00    +0.000 A 
ATOM     11  C   UNL     1       1.493   1.745  18.685  0.00  0.00    +0.000 A 
ATOM     12  C   UNL     1       0.697   2.696  19.305  0.00  0.00    +0.000 A 
ATOM     13  C   UNL     1       1.234   3.944  19.646  0.00  0.00    +0.000 A 
ATOM     14  C   UNL     1       2.589   4.281  19.381  0.00  0.00    +0.000 A 
ENDBRANCH   3   5
BRANCH   1  18
ATOM     15  C   UNL     1      -0.331  10.504  21.893  0.00  0.00    +0.000 A 
ATOM     16  C   UNL     1       0.420   9.501  22.511  0.00  0.00    +0.000 A 
ATOM     17  C   UNL     1       1.180   8.621  21.736  0.00  0.00    +0.000 A 
ATOM     18  C   UNL     1       1.202   8.733  20.335  0.00  0.00    +0.000 A 
ATOM     19  C   UNL     1       0.443   9.739  19.736  0.00  0.00    +0.000 A 
ATOM     20  F   UNL     1       0.431   9.896  18.403  0.00  0.00    +0.000 F 
ATOM     21  C   UNL     1      -0.320  10.621  20.500  0.00  0.00    +0.000 A 
BRANCH  15  23
ATOM     22  N   UNL     1      -1.732  12.157  23.318  0.00  0.00    +0.000 NA
ATOM     23  C   UNL     1      -1.105  11.414  22.681  0.00  0.00    +0.000 C 
ENDBRANCH  15  23
ENDBRANCH   1  18
TORSDOF 3
ENDMDL
MODEL 4
REMARK VINA RESULT:      -7.5      2.886      7.655
REMARK  Name = 
REMARK  3 active torsions:
REMARK  status: ('A' for Active; 'I' for Inactive)
REMARK    1  A    between atoms: C_2  and  C_3
REMARK    2  A    between atoms: C_6  and  C_7
REMARK    3  A    between atoms: N_9  and  C_10
REMARK                            x       y       z     vdW  Elec       q    Type
REMARK                         _______ _______ _______ _____ _____    ______ ____
ROOT
ATOM      1  C   UNL     1       1.892   8.036  19.258  0.00  0.00    +0.000 C 
ATOM      2  O   UNL     1       1.711   7.799  20.449  0.00  0.00    +0.000 OA
ATOM      3  N   UNL     1       1.359   9.100  18.549  0.00  0.00    +0.000 N 
ATOM      4  H   UNL     1       1.492   9.094  17.548  0.00  0.00    +0.000 HD
ENDROOT
BRANCH   3   5
ATOM      5  C   UNL     1       0.525  10.132  19.062  0.00  0.00    +0.000 A 
ATOM      6  C   UNL     1       0.948  10.911  20.146  0.00  0.00    +0.000 A 
ATOM      7  C   UNL     1       0.123  11.882  20.701  0.00  0.00    +0.000 A 
ATOM      8  C   UNL     1      -1.143  12.094  20.175  0.00  0.00    +0.000 A 
ATOM      9  C   UNL     1      -1.593  11.361  19.071  0.00  0.00    +0.000 A 
ATOM     10  C   UNL     1      -2.881  11.606  18.570  0.00  0.00    +0.000 A 
ATOM     11  C   UNL     1      -3.374  10.905  17.475  0.00  0.00    +0.000 A 
ATOM     12  C   UNL     1      -2.578   9.950  16.860  0.00  0.00    +0.000 A 
ATOM     13  C   UNL     1      -1.293   9.687  17.351  0.00  0.00    +0.000 A 
ATOM     14  C   UNL     1      -0.760  10.374  18.475  0.00  0.00    +0.000 A 
ENDBRANCH   3   5
BRANCH   1  18
ATOM     15  C   UNL     1       4.363   5.312  17.018  0.00  0.00    +0.000 A 
ATOM     16  C   UNL     1       4.510   6.694  16.876  0.00  0.00    +0.000 A 
ATOM     17  C   UNL     1       3.695   7.562  17.608  0.00  0.00    +0.000 A 
ATOM     18  C   UNL     1       2.724   7.061  18.492  0.00  0.00    +0.000 A 
ATOM     19  C   UNL     1       2.589   5.678  18.618  0.00  0.00    +0.000 A 
ATOM     20  F   UNL     1       1.682   5.144  19.451  0.00  0.00    +0.000 F 
ATOM     21  C   UNL     1       3.396   4.804  17.891  0.00  0.00    +0.000 A 
BRANCH  15  23
ATOM     22  N   UNL     1       5.875   3.690  15.675  0.00  0.00    +0.000 NA
ATOM     23  C   UNL     1       5.200   4.418  16.278  0.00  0.00    +0.000 C 
ENDBRANCH  15  23
ENDBRANCH   1  18
TORSDOF 3
ENDMDL
MODEL 5
REMARK VINA RESULT:      -7.5      3.191      7.494
REMARK  Name = 
REMARK  3 active torsions:
REMARK  status: ('A' for Active; 'I' for Inactive)
REMARK    1  A    between atoms: C_2  and  C_3
REMARK    2  A    between atoms: C_6  and  C_7
REMARK    3  A    between atoms: N_9  and  C_10
REMARK                            x       y       z     vdW  Elec       q    Type
REMARK                         _______ _______ _______ _____ _____    ______ ____
ROOT
ATOM      1  C   UNL     1       1.363   9.398  18.686  0.00  0.00    +0.000 C 
ATOM      2  O   UNL     1       1.882  10.396  18.194  0.00  0.00    +0.000 OA
ATOM      3  N   UNL     1       0.089   9.324  19.224  0.00  0.00    +0.000 N 
ATOM      4  H   UNL     1      -0.154   8.471  19.706  0.00  0.00    +0.000 HD
ENDROOT
BRANCH   3   5
ATOM      5  C   UNL     1      -0.869  10.373  19.288  0.00  0.00    +0.000 A 
ATOM      6  C   UNL     1      -0.878  11.258  20.374  0.00  0.00    +0.000 A 
ATOM      7  C   UNL     1      -1.844  12.251  20.486  0.00  0.00    +0.000 A 
ATOM      8  C   UNL     1      -2.818  12.379  19.507  0.00  0.00    +0.000 A 
ATOM      9  C   UNL     1      -2.827  11.537  18.388  0.00  0.00    +0.000 A 
ATOM     10  C   UNL     1      -3.831  11.700  17.421  0.00  0.00    +0.000 A 
ATOM     11  C   UNL     1      -3.881  10.890  16.292  0.00  0.00    +0.000 A 
ATOM     12  C   UNL     1      -2.920   9.906  16.112  0.00  0.00    +0.000 A 
ATOM     13  C   UNL     1      -1.915   9.725  17.071  0.00  0.00    +0.000 A 
ATOM     14  C   UNL     1      -1.838  10.525  18.243  0.00  0.00    +0.000 A 
ENDBRANCH   3   5
BRANCH   1  18
ATOM     15  C   UNL     1       3.842   5.879  18.789  0.00  0.00    +0.000 A 
ATOM     16  C   UNL     1       3.884   6.752  17.700  0.00  0.00    +0.000 A 
ATOM     17  C   UNL     1       3.068   7.887  17.683  0.00  0.00    +0.000 A 
ATOM     18  C   UNL     1       2.201   8.164  18.754  0.00  0.00    +0.000 A 
ATOM     19  C   UNL     1       2.170   7.278  19.831  0.00  0.00    +0.000 A 
ATOM     20  F   UNL     1       1.365   7.495  20.883  0.00  0.00    +0.000 F 
ATOM     21  C   UNL     1       2.979   6.143  19.857  0.00  0.00    +0.000 A 
BRANCH  15  23
ATOM     22  N   UNL     1       5.360   3.777  18.845  0.00  0.00    +0.000 NA
ATOM     23  C   UNL     1       4.681   4.720  18.817  0.00  0.00    +0.000 C 
ENDBRANCH  15  23
ENDBRANCH   1  18
TORSDOF 3
ENDMDL
MODEL 6
REMARK VINA RESULT:      -7.4      2.632      7.767
REMARK  Name = 
REMARK  3 active torsions:
REMARK  status: ('A' for Active; 'I' for Inactive)
REMARK    1  A    between atoms: C_2  and  C_3
REMARK    2  A    between atoms: C_6  and  C_7
REMARK    3  A    between atoms: N_9  and  C_10
REMARK                            x       y       z     vdW  Elec       q    Type
REMARK                         _______ _______ _______ _____ _____    ______ ____
ROOT
ATOM      1  C   UNL     1       2.132   6.643  19.780  0.00  0.00    +0.000 C 
ATOM      2  O   UNL     1       1.674   5.919  20.659  0.00  0.00    +0.000 OA
ATOM      3  N   UNL     1       1.923   8.007  19.657  0.00  0.00    +0.000 N 
ATOM      4  H   UNL     1       2.259   8.446  18.811  0.00  0.00    +0.000 HD
ENDROOT
BRANCH   3   5
ATOM      5  C   UNL     1       1.165   8.834  20.532  0.00  0.00    +0.000 A 
ATOM      6  C   UNL     1       1.281   8.689  21.920  0.00  0.00    +0.000 A 
ATOM      7  C   UNL     1       0.504   9.444  22.790  0.00  0.00    +0.000 A 
ATOM      8  C   UNL     1      -0.403  10.364  22.283  0.00  0.00    +0.000 A 
ATOM      9  C   UNL     1      -0.527  10.564  20.903  0.00  0.00    +0.000 A 
ATOM     10  C   UNL     1      -1.457  11.505  20.433  0.00  0.00    +0.000 A 
ATOM     11  C   UNL     1      -1.616  11.741  19.071  0.00  0.00    +0.000 A 
ATOM     12  C   UNL     1      -0.840  11.040  18.160  0.00  0.00    +0.000 A 
ATOM     13  C   UNL     1       0.087  10.093  18.612  0.00  0.00    +0.000 A 
ATOM     14  C   UNL     1       0.270   9.816  19.994  0.00  0.00    +0.000 A 
ENDBRANCH   3   5
BRANCH   1  18
ATOM     15  C   UNL     1       4.568   4.829  16.727  0.00  0.00    +0.000 A 
ATOM     16  C   UNL     1       4.832   6.125  17.178  0.00  0.00    +0.000 A 
ATOM     17  C   UNL     1       4.026   6.698  18.166  0.00  0.00    +0.000 A 
ATOM     18  C   UNL     1       2.948   5.984  18.717  0.00  0.00    +0.000 A 
ATOM     19  C   UNL     1       2.698   4.693  18.251  0.00  0.00    +0.000 A 
ATOM     20  F   UNL     1       1.686   3.963  18.746  0.00  0.00    +0.000 F 
ATOM     21  C   UNL     1       3.495   4.113  17.266  0.00  0.00    +0.000 A 
BRANCH  15  23
ATOM     22  N   UNL     1       6.061   3.752  14.902  0.00  0.00    +0.000 NA
ATOM     23  C   UNL     1       5.394   4.233  15.722  0.00  0.00    +0.000 C 
ENDBRANCH  15  23
ENDBRANCH   1  18
TORSDOF 3
ENDMDL
MODEL 7
REMARK VINA RESULT:      -7.4      1.562      2.942
REMARK  Name = 
REMARK  3 active torsions:
REMARK  status: ('A' for Active; 'I' for Inactive)
REMARK    1  A    between atoms: C_2  and  C_3
REMARK    2  A    between atoms: C_6  and  C_7
REMARK    3  A    between atoms: N_9  and  C_10
REMARK                            x       y       z     vdW  Elec       q    Type
REMARK                         _______ _______ _______ _____ _____    ______ ____
ROOT
ATOM      1  C   UNL     1       1.925   6.987  19.854  0.00  0.00    +0.000 C 
ATOM      2  O   UNL     1       1.918   6.106  20.709  0.00  0.00    +0.000 OA
ATOM      3  N   UNL     1       2.408   6.865  18.561  0.00  0.00    +0.000 N 
ATOM      4  H   UNL     1       2.464   7.711  18.014  0.00  0.00    +0.000 HD
ENDROOT
BRANCH   3   5
ATOM      5  C   UNL     1       2.962   5.697  17.968  0.00  0.00    +0.000 A 
ATOM      6  C   UNL     1       2.191   4.536  17.835  0.00  0.00    +0.000 A 
ATOM      7  C   UNL     1       2.733   3.367  17.314  0.00  0.00    +0.000 A 
ATOM      8  C   UNL     1       4.060   3.342  16.911  0.00  0.00    +0.000 A 
ATOM      9  C   UNL     1       4.857   4.490  16.995  0.00  0.00    +0.000 A 
ATOM     10  C   UNL     1       6.196   4.422  16.576  0.00  0.00    +0.000 A 
ATOM     11  C   UNL     1       7.028   5.535  16.638  0.00  0.00    +0.000 A 
ATOM     12  C   UNL     1       6.527   6.737  17.116  0.00  0.00    +0.000 A 
ATOM     13  C   UNL     1       5.197   6.821  17.545  0.00  0.00    +0.000 A 
ATOM     14  C   UNL     1       4.320   5.703  17.508  0.00  0.00    +0.000 A 
ENDBRANCH   3   5
BRANCH   1  18
ATOM     15  C   UNL     1       0.463  10.827  21.142  0.00  0.00    +0.000 A 
ATOM     16  C   UNL     1       0.699   9.805  22.065  0.00  0.00    +0.000 A 
ATOM     17  C   UNL     1       1.169   8.563  21.626  0.00  0.00    +0.000 A 
ATOM     18  C   UNL     1       1.410   8.328  20.261  0.00  0.00    +0.000 A 
ATOM     19  C   UNL     1       1.165   9.361  19.355  0.00  0.00    +0.000 A 
ATOM     20  F   UNL     1       1.384   9.194  18.042  0.00  0.00    +0.000 F 
ATOM     21  C   UNL     1       0.696  10.601  19.783  0.00  0.00    +0.000 A 
BRANCH  15  23
ATOM     22  N   UNL     1      -0.395  13.140  21.940  0.00  0.00    +0.000 NA
ATOM     23  C   UNL     1      -0.010  12.103  21.586  0.00  0.00    +0.000 C 
ENDBRANCH  15  23
ENDBRANCH   1  18
TORSDOF 3
ENDMDL
MODEL 8
REMARK VINA RESULT:      -7.4      1.704      1.840
REMARK  Name = 
REMARK  3 active torsions:
REMARK  status: ('A' for Active; 'I' for Inactive)
REMARK    1  A    between atoms: C_2  and  C_3
REMARK    2  A    between atoms: C_6  and  C_7
REMARK    3  A    between atoms: N_9  and  C_10
REMARK                            x       y       z     vdW  Elec       q    Type
REMARK                         _______ _______ _______ _____ _____    ______ ____
ROOT
ATOM      1  C   UNL     1       1.590   8.954  18.425  0.00  0.00    +0.000 C 
ATOM      2  O   UNL     1       2.040   9.220  17.314  0.00  0.00    +0.000 OA
ATOM      3  N   UNL     1       1.884   7.827  19.175  0.00  0.00    +0.000 N 
ATOM      4  H   UNL     1       1.340   7.682  20.013  0.00  0.00    +0.000 HD
ENDROOT
BRANCH   3   5
ATOM      5  C   UNL     1       2.778   6.778  18.819  0.00  0.00    +0.000 A 
ATOM      6  C   UNL     1       3.714   6.963  17.795  0.00  0.00    +0.000 A 
ATOM      7  C   UNL     1       4.553   5.931  17.392  0.00  0.00    +0.000 A 
ATOM      8  C   UNL     1       4.473   4.694  18.014  0.00  0.00    +0.000 A 
ATOM      9  C   UNL     1       3.574   4.476  19.065  0.00  0.00    +0.000 A 
ATOM     10  C   UNL     1       3.524   3.209  19.667  0.00  0.00    +0.000 A 
ATOM     11  C   UNL     1       2.649   2.943  20.715  0.00  0.00    +0.000 A 
ATOM     12  C   UNL     1       1.815   3.949  21.181  0.00  0.00    +0.000 A 
ATOM     13  C   UNL     1       1.846   5.216  20.587  0.00  0.00    +0.000 A 
ATOM     14  C   UNL     1       2.717   5.522  19.506  0.00  0.00    +0.000 A 
ENDBRANCH   3   5
BRANCH   1  18
ATOM     15  C   UNL     1      -1.194  11.745  20.157  0.00  0.00    +0.000 A 
ATOM     16  C   UNL     1       0.012  11.446  20.797  0.00  0.00    +0.000 A 
ATOM     17  C   UNL     1       0.900  10.533  20.220  0.00  0.00    +0.000 A 
ATOM     18  C   UNL     1       0.596   9.909  18.998  0.00  0.00    +0.000 A 
ATOM     19  C   UNL     1      -0.615  10.217  18.377  0.00  0.00    +0.000 A 
ATOM     20  F   UNL     1      -0.954   9.656  17.207  0.00  0.00    +0.000 F 
ATOM     21  C   UNL     1      -1.508  11.125  18.944  0.00  0.00    +0.000 A 
BRANCH  15  23
ATOM     22  N   UNL     1      -2.844  13.444  21.213  0.00  0.00    +0.000 NA
ATOM     23  C   UNL     1      -2.104  12.684  20.737  0.00  0.00    +0.000 C 
ENDBRANCH  15  23
ENDBRANCH   1  18
TORSDOF 3
ENDMDL
MODEL 9
REMARK VINA RESULT:      -7.3      1.722      2.006
REMARK  Name = 
REMARK  3 active torsions:
REMARK  status: ('A' for Active; 'I' for Inactive)
REMARK    1  A    between atoms: C_2  and  C_3
REMARK    2  A    between atoms: C_6  and  C_7
REMARK    3  A    between atoms: N_9  and  C_10
REMARK                            x       y       z     vdW  Elec       q    Type
REMARK                         _______ _______ _______ _____ _____    ______ ____
ROOT
ATOM      1  C   UNL     1       2.072   7.796  19.433  0.00  0.00    +0.000 C 
ATOM      2  O   UNL     1       2.517   7.273  20.450  0.00  0.00    +0.000 OA
ATOM      3  N   UNL     1       2.412   7.466  18.131  0.00  0.00    +0.000 N 
ATOM      4  H   UNL     1       2.060   8.069  17.401  0.00  0.00    +0.000 HD
ENDROOT
BRANCH   3   5
ATOM      5  C   UNL     1       3.317   6.449  17.720  0.00  0.00    +0.000 A 
ATOM      6  C   UNL     1       4.578   6.786  17.213  0.00  0.00    +0.000 A 
ATOM      7  C   UNL     1       5.452   5.810  16.749  0.00  0.00    +0.000 A 
ATOM      8  C   UNL     1       5.079   4.474  16.791  0.00  0.00    +0.000 A 
ATOM      9  C   UNL     1       3.841   4.091  17.321  0.00  0.00    +0.000 A 
ATOM     10  C   UNL     1       3.503   2.728  17.344  0.00  0.00    +0.000 A 
ATOM     11  C   UNL     1       2.286   2.298  17.861  0.00  0.00    +0.000 A 
ATOM     12  C   UNL     1       1.391   3.227  18.370  0.00  0.00    +0.000 A 
ATOM     13  C   UNL     1       1.710   4.591  18.348  0.00  0.00    +0.000 A 
ATOM     14  C   UNL     1       2.938   5.071  17.817  0.00  0.00    +0.000 A 
ENDBRANCH   3   5
BRANCH   1  18
ATOM     15  C   UNL     1      -0.700  11.065  19.847  0.00  0.00    +0.000 A 
ATOM     16  C   UNL     1      -0.070  10.812  18.626  0.00  0.00    +0.000 A 
ATOM     17  C   UNL     1       0.831   9.748  18.513  0.00  0.00    +0.000 A 
ATOM     18  C   UNL     1       1.112   8.925  19.617  0.00  0.00    +0.000 A 
ATOM     19  C   UNL     1       0.475   9.196  20.829  0.00  0.00    +0.000 A 
ATOM     20  F   UNL     1       0.701   8.440  21.914  0.00  0.00    +0.000 F 
ATOM     21  C   UNL     1      -0.424  10.254  20.952  0.00  0.00    +0.000 A 
BRANCH  15  23
ATOM     22  N   UNL     1      -2.389  13.020  20.067  0.00  0.00    +0.000 NA
ATOM     23  C   UNL     1      -1.630  12.146  19.967  0.00  0.00    +0.000 C 
ENDBRANCH  15  23
ENDBRANCH   1  18
TORSDOF 3
ENDMDL
