MODEL 1
REMARK VINA RESULT:      -7.7      0.000      0.000
REMARK  Name = 
REMARK  9 active torsions:
REMARK  status: ('A' for Active; 'I' for Inactive)
REMARK    1  A    between atoms: C_1  and  C_2
REMARK    2  A    between atoms: N_5  and  C_6
REMARK    3  A    between atoms: C_6  and  C_7
REMARK    4  A    between atoms: N_12  and  C_13
REMARK    5  A    between atoms: C_13  and  C_14
REMARK    6  A    between atoms: C_17  and  C_18
REMARK    7  A    between atoms: C_18  and  C_19
REMARK    8  A    between atoms: C_18  and  C_20
REMARK    9  A    between atoms: C_18  and  C_21
REMARK                            x       y       z     vdW  Elec       q    Type
REMARK                         _______ _______ _______ _____ _____    ______ ____
ROOT
ATOM      1  C   UNL     1       3.348   3.960  18.566  0.00  0.00    +0.000 C 
ATOM      2  C   UNL     1       2.668   2.646  18.094  0.00  0.00    +0.000 C 
ATOM      3  C   UNL     1       1.791   2.003  19.160  0.00  0.00    +0.000 C 
ATOM      4  C   UNL     1       0.807   3.017  19.715  0.00  0.00    +0.000 C 
ATOM      5  C   UNL     1       1.546   4.252  20.219  0.00  0.00    +0.000 C 
ATOM      6  N   UNL     1       2.341   4.889  19.151  0.00  0.00    +0.000 NA
ENDROOT
BRANCH   1   7
ATOM      7  C   UNL     1       4.090   4.595  17.359  0.00  0.00    +0.000 C 
BRANCH   7  12
ATOM      8  C   UNL     1       7.932   7.789  17.665  0.00  0.00    +0.000 C 
ATOM      9  C   UNL     1       7.026   6.634  17.846  0.00  0.00    +0.000 A 
ATOM     10  C   UNL     1       7.291   5.405  18.491  0.00  0.00    +0.000 A 
ATOM     11  N   UNL     1       6.260   4.561  18.430  0.00  0.00    +0.000 NA
ATOM     12  N   UNL     1       5.339   5.239  17.723  0.00  0.00    +0.000 N 
ATOM     13  C   UNL     1       5.727   6.507  17.406  0.00  0.00    +0.000 A 
ENDBRANCH   7  12
ENDBRANCH   1   7
BRANCH   6  14
ATOM     14  C   UNL     1       2.928   6.164  19.655  0.00  0.00    +0.000 C 
BRANCH  14  15
ATOM     15  C   UNL     1       2.348   7.439  19.119  0.00  0.00    +0.000 A 
ATOM     16  N   UNL     1       2.496   7.947  17.909  0.00  0.00    +0.000 NA
ATOM     17  C   UNL     1       1.777   9.110  17.951  0.00  0.00    +0.000 A 
ATOM     18  C   UNL     1       1.210   9.283  19.197  0.00  0.00    +0.000 A 
ATOM     19  O   UNL     1       1.579   8.203  19.959  0.00  0.00    +0.000 OA
BRANCH  18  20
ATOM     20  C   UNL     1       0.309  10.331  19.790  0.00  0.00    +0.000 C 
ATOM     21  C   UNL     1      -0.971  10.443  18.942  0.00  0.00    +0.000 C 
ATOM     22  C   UNL     1      -0.078   9.997  21.242  0.00  0.00    +0.000 C 
ATOM     23  C   UNL     1       1.021  11.699  19.789  0.00  0.00    +0.000 C 
ENDBRANCH  18  20
ENDBRANCH  14  15
ENDBRANCH   6  14
TORSDOF 5
ENDMDL
MODEL 2
REMARK VINA RESULT:      -7.6      0.454      1.048
REMARK  Name = 
REMARK  9 active torsions:
REMARK  status: ('A' for Active; 'I' for Inactive)
REMARK    1  A    between atoms: C_1  and  C_2
REMARK    2  A    between atoms: N_5  and  C_6
REMARK    3  A    between atoms: C_6  and  C_7
REMARK    4  A    between atoms: N_12  and  C_13
REMARK    5  A    between atoms: C_13  and  C_14
REMARK    6  A    between atoms: C_17  and  C_18
REMARK    7  A    between atoms: C_18  and  C_19
REMARK    8  A    between atoms: C_18  and  C_20
REMARK    9  A    between atoms: C_18  and  C_21
REMARK                            x       y       z     vdW  Elec       q    Type
REMARK                         _______ _______ _______ _____ _____    ______ ____
ROOT
ATOM      1  C   UNL     1       3.648   3.941  18.168  0.00  0.00    +0.000 C 
ATOM      2  C   UNL     1       2.966   2.642  17.656  0.00  0.00    +0.000 C 
ATOM      3  C   UNL     1       1.953   2.065  18.636  0.00  0.00    +0.000 C 
ATOM      4  C   UNL     1       0.960   3.134  19.057  0.00  0.00    +0.000 C 
ATOM      5  C   UNL     1       1.693   4.351  19.609  0.00  0.00    +0.000 C 
ATOM      6  N   UNL     1       2.625   4.925  18.618  0.00  0.00    +0.000 NA
ENDROOT
BRANCH   1   7
ATOM      7  C   UNL     1       4.542   4.511  17.034  0.00  0.00    +0.000 C 
BRANCH   7  12
ATOM      8  C   UNL     1       8.016   8.047  17.724  0.00  0.00    +0.000 C 
ATOM      9  C   UNL     1       7.209   6.811  17.814  0.00  0.00    +0.000 A 
ATOM     10  C   UNL     1       7.522   5.607  18.484  0.00  0.00    +0.000 A 
ATOM     11  N   UNL     1       6.586   4.671  18.320  0.00  0.00    +0.000 NA
ATOM     12  N   UNL     1       5.681   5.266  17.522  0.00  0.00    +0.000 N 
ATOM     13  C   UNL     1       5.978   6.567  17.244  0.00  0.00    +0.000 A 
ENDBRANCH   7  12
ENDBRANCH   1   7
BRANCH   6  14
ATOM     14  C   UNL     1       3.208   6.189  19.153  0.00  0.00    +0.000 C 
BRANCH  14  15
ATOM     15  C   UNL     1       2.489   7.463  18.823  0.00  0.00    +0.000 A 
ATOM     16  N   UNL     1       2.475   8.108  17.671  0.00  0.00    +0.000 NA
ATOM     17  C   UNL     1       1.686   9.198  17.914  0.00  0.00    +0.000 A 
ATOM     18  C   UNL     1       1.241   9.192  19.221  0.00  0.00    +0.000 A 
ATOM     19  O   UNL     1       1.761   8.070  19.815  0.00  0.00    +0.000 OA
BRANCH  18  20
ATOM     20  C   UNL     1       0.336  10.095  20.012  0.00  0.00    +0.000 C 
ATOM     21  C   UNL     1       1.112  11.357  20.430  0.00  0.00    +0.000 C 
ATOM     22  C   UNL     1      -0.904  10.513  19.201  0.00  0.00    +0.000 C 
ATOM     23  C   UNL     1      -0.149   9.371  21.285  0.00  0.00    +0.000 C 
ENDBRANCH  18  20
ENDBRANCH  14  15
ENDBRANCH   6  14
TORSDOF 5
ENDMDL
MODEL 3
REMARK VINA RESULT:      -7.4      0.622      1.341
REMARK  Name = 
REMARK  9 active torsions:
REMARK  status: ('A' for Active; 'I' for Inactive)
REMARK    1  A    between atoms: C_1  and  C_2
REMARK    2  A    between atoms: N_5  and  C_6
REMARK    3  A    between atoms: C_6  and  C_7
REMARK    4  A    between atoms: N_12  and  C_13
REMARK    5  A    between atoms: C_13  and  C_14
REMARK    6  A    between atoms: C_17  and  C_18
REMARK    7  A    between atoms: C_18  and  C_19
REMARK    8  A    between atoms: C_18  and  C_20
REMARK    9  A    between atoms: C_18  and  C_21
REMARK                            x       y       z     vdW  Elec       q    Type
REMARK                         _______ _______ _______ _____ _____    ______ ____
ROOT
ATOM      1  C   UNL     1       3.160   3.955  18.422  0.00  0.00    +0.000 C 
ATOM      2  C   UNL     1       2.399   2.672  17.990  0.00  0.00    +0.000 C 
ATOM      3  C   UNL     1       1.596   2.037  19.117  0.00  0.00    +0.000 C 
ATOM      4  C   UNL     1       0.697   3.072  19.772  0.00  0.00    +0.000 C 
ATOM      5  C   UNL     1       1.518   4.272  20.230  0.00  0.00    +0.000 C 
ATOM      6  N   UNL     1       2.239   4.904  19.107  0.00  0.00    +0.000 NA
ENDROOT
BRANCH   1   7
ATOM      7  C   UNL     1       3.816   4.589  17.166  0.00  0.00    +0.000 C 
BRANCH   7  12
ATOM      8  C   UNL     1       8.172   5.827  19.298  0.00  0.00    +0.000 C 
ATOM      9  C   UNL     1       7.035   5.695  18.361  0.00  0.00    +0.000 A 
ATOM     10  C   UNL     1       6.785   6.425  17.178  0.00  0.00    +0.000 A 
ATOM     11  N   UNL     1       5.635   6.080  16.596  0.00  0.00    +0.000 NA
ATOM     12  N   UNL     1       5.133   5.143  17.420  0.00  0.00    +0.000 N 
ATOM     13  C   UNL     1       5.963   4.834  18.456  0.00  0.00    +0.000 A 
ENDBRANCH   7  12
ENDBRANCH   1   7
BRANCH   6  14
ATOM     14  C   UNL     1       2.909   6.150  19.579  0.00  0.00    +0.000 C 
BRANCH  14  15
ATOM     15  C   UNL     1       2.405   7.447  19.021  0.00  0.00    +0.000 A 
ATOM     16  N   UNL     1       2.701   7.994  17.856  0.00  0.00    +0.000 NA
ATOM     17  C   UNL     1       1.988   9.161  17.851  0.00  0.00    +0.000 A 
ATOM     18  C   UNL     1       1.276   9.298  19.025  0.00  0.00    +0.000 A 
ATOM     19  O   UNL     1       1.545   8.191  19.788  0.00  0.00    +0.000 OA
BRANCH  18  20
ATOM     20  C   UNL     1       0.316  10.335  19.540  0.00  0.00    +0.000 C 
ATOM     21  C   UNL     1       1.038  11.689  19.654  0.00  0.00    +0.000 C 
ATOM     22  C   UNL     1      -0.904  10.493  18.613  0.00  0.00    +0.000 C 
ATOM     23  C   UNL     1      -0.196   9.930  20.937  0.00  0.00    +0.000 C 
ENDBRANCH  18  20
ENDBRANCH  14  15
ENDBRANCH   6  14
TORSDOF 5
ENDMDL
MODEL 4
REMARK VINA RESULT:      -7.4      1.447      2.151
REMARK  Name = 
REMARK  9 active torsions:
REMARK  status: ('A' for Active; 'I' for Inactive)
REMARK    1  A    between atoms: C_1  and  C_2
REMARK    2  A    between atoms: N_5  and  C_6
REMARK    3  A    between atoms: C_6  and  C_7
REMARK    4  A    between atoms: N_12  and  C_13
REMARK    5  A    between atoms: C_13  and  C_14
REMARK    6  A    between atoms: C_17  and  C_18
REMARK    7  A    between atoms: C_18  and  C_19
REMARK    8  A    between atoms: C_18  and  C_20
REMARK    9  A    between atoms: C_18  and  C_21
REMARK                            x       y       z     vdW  Elec       q    Type
REMARK                         _______ _______ _______ _____ _____    ______ ____
ROOT
ATOM      1  C   UNL     1       4.042   3.862  19.051  0.00  0.00    +0.000 C 
ATOM      2  C   UNL     1       3.747   2.557  18.261  0.00  0.00    +0.000 C 
ATOM      3  C   UNL     1       2.375   1.967  18.559  0.00  0.00    +0.000 C 
ATOM      4  C   UNL     1       1.299   3.024  18.387  0.00  0.00    +0.000 C 
ATOM      5  C   UNL     1       1.617   4.248  19.239  0.00  0.00    +0.000 C 
ATOM      6  N   UNL     1       2.926   4.835  18.888  0.00  0.00    +0.000 NA
ENDROOT
BRANCH   1   7
ATOM      7  C   UNL     1       5.395   4.444  18.558  0.00  0.00    +0.000 C 
BRANCH   7  12
ATOM      8  C   UNL     1       6.071   3.916  13.627  0.00  0.00    +0.000 C 
ATOM      9  C   UNL     1       5.743   4.448  14.968  0.00  0.00    +0.000 A 
ATOM     10  C   UNL     1       5.448   5.780  15.334  0.00  0.00    +0.000 A 
ATOM     11  N   UNL     1       5.245   5.919  16.645  0.00  0.00    +0.000 NA
ATOM     12  N   UNL     1       5.435   4.677  17.127  0.00  0.00    +0.000 N 
ATOM     13  C   UNL     1       5.673   3.751  16.155  0.00  0.00    +0.000 A 
ENDBRANCH   7  12
ENDBRANCH   1   7
BRANCH   6  14
ATOM     14  C   UNL     1       3.126   6.103  19.645  0.00  0.00    +0.000 C 
BRANCH  14  15
ATOM     15  C   UNL     1       2.501   7.342  19.075  0.00  0.00    +0.000 A 
ATOM     16  N   UNL     1       2.623   7.817  17.849  0.00  0.00    +0.000 NA
ATOM     17  C   UNL     1       1.867   8.957  17.862  0.00  0.00    +0.000 A 
ATOM     18  C   UNL     1       1.305   9.150  19.107  0.00  0.00    +0.000 A 
ATOM     19  O   UNL     1       1.715   8.107  19.898  0.00  0.00    +0.000 OA
BRANCH  18  20
ATOM     20  C   UNL     1       0.375  10.188  19.675  0.00  0.00    +0.000 C 
ATOM     21  C   UNL     1      -0.095   9.743  21.071  0.00  0.00    +0.000 C 
ATOM     22  C   UNL     1       1.057  11.564  19.789  0.00  0.00    +0.000 C 
ATOM     23  C   UNL     1      -0.860  10.342  18.764  0.00  0.00    +0.000 C 
ENDBRANCH  18  20
ENDBRANCH  14  15
ENDBRANCH   6  14
TORSDOF 5
ENDMDL
MODEL 5
REMARK VINA RESULT:      -7.3      0.836      1.293
REMARK  Name = 
REMARK  9 active torsions:
REMARK  status: ('A' for Active; 'I' for Inactive)
REMARK    1  A    between atoms: C_1  and  C_2
REMARK    2  A    between atoms: N_5  and  C_6
REMARK    3  A    between atoms: C_6  and  C_7
REMARK    4  A    between atoms: N_12  and  C_13
REMARK    5  A    between atoms: C_13  and  C_14
REMARK    6  A    between atoms: C_17  and  C_18
REMARK    7  A    between atoms: C_18  and  C_19
REMARK    8  A    between atoms: C_18  and  C_20
REMARK    9  A    between atoms: C_18  and  C_21
REMARK                            x       y       z     vdW  Elec       q    Type
REMARK                         _______ _______ _______ _____ _____    ______ ____
ROOT
ATOM      1  C   UNL     1       3.125   3.832  18.537  0.00  0.00    +0.000 C 
ATOM      2  C   UNL     1       2.342   2.559  18.113  0.00  0.00    +0.000 C 
ATOM      3  C   UNL     1       1.439   2.012  19.211  0.00  0.00    +0.000 C 
ATOM      4  C   UNL     1       0.543   3.111  19.753  0.00  0.00    +0.000 C 
ATOM      5  C   UNL     1       1.380   4.301  20.210  0.00  0.00    +0.000 C 
ATOM      6  N   UNL     1       2.200   4.848  19.111  0.00  0.00    +0.000 NA
ENDROOT
BRANCH   1   7
ATOM      7  C   UNL     1       3.890   4.377  17.300  0.00  0.00    +0.000 C 
BRANCH   7  12
ATOM      8  C   UNL     1       8.246   5.787  19.321  0.00  0.00    +0.000 C 
ATOM      9  C   UNL     1       7.209   5.227  18.427  0.00  0.00    +0.000 A 
ATOM     10  C   UNL     1       7.353   4.762  17.101  0.00  0.00    +0.000 A 
ATOM     11  N   UNL     1       6.197   4.364  16.569  0.00  0.00    +0.000 NA
ATOM     12  N   UNL     1       5.302   4.597  17.546  0.00  0.00    +0.000 N 
ATOM     13  C   UNL     1       5.869   5.053  18.699  0.00  0.00    +0.000 A 
ENDBRANCH   7  12
ENDBRANCH   1   7
BRANCH   6  14
ATOM     14  C   UNL     1       2.888   6.089  19.569  0.00  0.00    +0.000 C 
BRANCH  14  15
ATOM     15  C   UNL     1       2.386   7.389  19.017  0.00  0.00    +0.000 A 
ATOM     16  N   UNL     1       2.626   7.908  17.827  0.00  0.00    +0.000 NA
ATOM     17  C   UNL     1       1.944   9.093  17.842  0.00  0.00    +0.000 A 
ATOM     18  C   UNL     1       1.307   9.270  19.053  0.00  0.00    +0.000 A 
ATOM     19  O   UNL     1       1.592   8.169  19.820  0.00  0.00    +0.000 OA
BRANCH  18  20
ATOM     20  C   UNL     1       0.406  10.341  19.604  0.00  0.00    +0.000 C 
ATOM     21  C   UNL     1      -0.041   9.953  21.025  0.00  0.00    +0.000 C 
ATOM     22  C   UNL     1       1.110  11.709  19.655  0.00  0.00    +0.000 C 
ATOM     23  C   UNL     1      -0.847  10.483  18.715  0.00  0.00    +0.000 C 
ENDBRANCH  18  20
ENDBRANCH  14  15
ENDBRANCH   6  14
TORSDOF 5
ENDMDL
MODEL 6
REMARK VINA RESULT:      -7.2      1.402      1.796
REMARK  Name = 
REMARK  9 active torsions:
REMARK  status: ('A' for Active; 'I' for Inactive)
REMARK    1  A    between atoms: C_1  and  C_2
REMARK    2  A    between atoms: N_5  and  C_6
REMARK    3  A    between atoms: C_6  and  C_7
REMARK    4  A    between atoms: N_12  and  C_13
REMARK    5  A    between atoms: C_13  and  C_14
REMARK    6  A    between atoms: C_17  and  C_18
REMARK    7  A    between atoms: C_18  and  C_19
REMARK    8  A    between atoms: C_18  and  C_20
REMARK    9  A    between atoms: C_18  and  C_21
REMARK                            x       y       z     vdW  Elec       q    Type
REMARK                         _______ _______ _______ _____ _____    ______ ____
ROOT
ATOM      1  C   UNL     1       3.154   3.874  18.610  0.00  0.00    +0.000 C 
ATOM      2  C   UNL     1       2.304   2.633  18.997  0.00  0.00    +0.000 C 
ATOM      3  C   UNL     1       1.962   2.572  20.480  0.00  0.00    +0.000 C 
ATOM      4  C   UNL     1       1.343   3.883  20.931  0.00  0.00    +0.000 C 
ATOM      5  C   UNL     1       2.258   5.051  20.580  0.00  0.00    +0.000 C 
ATOM      6  N   UNL     1       2.524   5.121  19.130  0.00  0.00    +0.000 NA
ENDROOT
BRANCH   1   7
ATOM      7  C   UNL     1       3.312   3.905  17.066  0.00  0.00    +0.000 C 
BRANCH   7  12
ATOM      8  C   UNL     1       7.344   4.892  14.269  0.00  0.00    +0.000 C 
ATOM      9  C   UNL     1       6.424   4.653  15.403  0.00  0.00    +0.000 A 
ATOM     10  C   UNL     1       6.744   4.464  16.766  0.00  0.00    +0.000 A 
ATOM     11  N   UNL     1       5.668   4.223  17.517  0.00  0.00    +0.000 NA
ATOM     12  N   UNL     1       4.656   4.233  16.630  0.00  0.00    +0.000 N 
ATOM     13  C   UNL     1       5.051   4.548  15.364  0.00  0.00    +0.000 A 
ENDBRANCH   7  12
ENDBRANCH   1   7
BRANCH   6  14
ATOM     14  C   UNL     1       3.303   6.354  18.822  0.00  0.00    +0.000 C 
BRANCH  14  15
ATOM     15  C   UNL     1       2.522   7.615  18.602  0.00  0.00    +0.000 A 
ATOM     16  N   UNL     1       2.453   8.341  17.501  0.00  0.00    +0.000 NA
ATOM     17  C   UNL     1       1.622   9.373  17.840  0.00  0.00    +0.000 A 
ATOM     18  C   UNL     1       1.209   9.251  19.151  0.00  0.00    +0.000 A 
ATOM     19  O   UNL     1       1.791   8.114  19.650  0.00  0.00    +0.000 OA
BRANCH  18  20
ATOM     20  C   UNL     1       0.283  10.053  20.025  0.00  0.00    +0.000 C 
ATOM     21  C   UNL     1      -0.112   9.216  21.253  0.00  0.00    +0.000 C 
ATOM     22  C   UNL     1       0.939  11.363  20.499  0.00  0.00    +0.000 C 
ATOM     23  C   UNL     1      -0.996  10.416  19.243  0.00  0.00    +0.000 C 
ENDBRANCH  18  20
ENDBRANCH  14  15
ENDBRANCH   6  14
TORSDOF 5
ENDMDL
MODEL 7
REMARK VINA RESULT:      -7.1      1.021      1.431
REMARK  Name = 
REMARK  9 active torsions:
REMARK  status: ('A' for Active; 'I' for Inactive)
REMARK    1  A    between atoms: C_1  and  C_2
REMARK    2  A    between atoms: N_5  and  C_6
REMARK    3  A    between atoms: C_6  and  C_7
REMARK    4  A    between atoms: N_12  and  C_13
REMARK    5  A    between atoms: C_13  and  C_14
REMARK    6  A    between atoms: C_17  and  C_18
REMARK    7  A    between atoms: C_18  and  C_19
REMARK    8  A    between atoms: C_18  and  C_20
REMARK    9  A    between atoms: C_18  and  C_21
REMARK                            x       y       z     vdW  Elec       q    Type
REMARK                         _______ _______ _______ _____ _____    ______ ____
ROOT
ATOM      1  C   UNL     1       3.065   4.168  18.347  0.00  0.00    +0.000 C 
ATOM      2  C   UNL     1       2.303   2.953  17.752  0.00  0.00    +0.000 C 
ATOM      3  C   UNL     1       1.524   2.159  18.793  0.00  0.00    +0.000 C 
ATOM      4  C   UNL     1       0.632   3.085  19.602  0.00  0.00    +0.000 C 
ATOM      5  C   UNL     1       1.454   4.216  20.209  0.00  0.00    +0.000 C 
ATOM      6  N   UNL     1       2.151   5.005  19.174  0.00  0.00    +0.000 NA
ENDROOT
BRANCH   1   7
ATOM      7  C   UNL     1       3.694   4.977  17.180  0.00  0.00    +0.000 C 
BRANCH   7  12
ATOM      8  C   UNL     1       7.808   7.805  17.541  0.00  0.00    +0.000 C 
ATOM      9  C   UNL     1       6.840   6.689  17.611  0.00  0.00    +0.000 A 
ATOM     10  C   UNL     1       7.087   5.332  17.917  0.00  0.00    +0.000 A 
ATOM     11  N   UNL     1       5.988   4.581  17.843  0.00  0.00    +0.000 NA
ATOM     12  N   UNL     1       5.035   5.452  17.465  0.00  0.00    +0.000 N 
ATOM     13  C   UNL     1       5.483   6.737  17.375  0.00  0.00    +0.000 A 
ENDBRANCH   7  12
ENDBRANCH   1   7
BRANCH   6  14
ATOM     14  C   UNL     1       2.822   6.177  19.804  0.00  0.00    +0.000 C 
BRANCH  14  15
ATOM     15  C   UNL     1       1.959   7.357  20.140  0.00  0.00    +0.000 A 
ATOM     16  N   UNL     1       1.229   7.540  21.225  0.00  0.00    +0.000 NA
ATOM     17  C   UNL     1       0.643   8.759  21.023  0.00  0.00    +0.000 A 
ATOM     18  C   UNL     1       1.029   9.287  19.808  0.00  0.00    +0.000 A 
ATOM     19  O   UNL     1       1.881   8.381  19.231  0.00  0.00    +0.000 OA
BRANCH  18  20
ATOM     20  C   UNL     1       0.736  10.581  19.100  0.00  0.00    +0.000 C 
ATOM     21  C   UNL     1       1.859  10.877  18.090  0.00  0.00    +0.000 C 
ATOM     22  C   UNL     1      -0.610  10.531  18.355  0.00  0.00    +0.000 C 
ATOM     23  C   UNL     1       0.674  11.737  20.120  0.00  0.00    +0.000 C 
ENDBRANCH  18  20
ENDBRANCH  14  15
ENDBRANCH   6  14
TORSDOF 5
ENDMDL
MODEL 8
REMARK VINA RESULT:      -7.1      1.385      1.692
REMARK  Name = 
REMARK  9 active torsions:
REMARK  status: ('A' for Active; 'I' for Inactive)
REMARK    1  A    between atoms: C_1  and  C_2
REMARK    2  A    between atoms: N_5  and  C_6
REMARK    3  A    between atoms: C_6  and  C_7
REMARK    4  A    between atoms: N_12  and  C_13
REMARK    5  A    between atoms: C_13  and  C_14
REMARK    6  A    between atoms: C_17  and  C_18
REMARK    7  A    between atoms: C_18  and  C_19
REMARK    8  A    between atoms: C_18  and  C_20
REMARK    9  A    between atoms: C_18  and  C_21
REMARK                            x       y       z     vdW  Elec       q    Type
REMARK                         _______ _______ _______ _____ _____    ______ ____
ROOT
ATOM      1  C   UNL     1       4.045   4.213  19.338  0.00  0.00    +0.000 C 
ATOM      2  C   UNL     1       4.169   2.935  18.465  0.00  0.00    +0.000 C 
ATOM      3  C   UNL     1       2.955   2.020  18.556  0.00  0.00    +0.000 C 
ATOM      4  C   UNL     1       1.683   2.805  18.286  0.00  0.00    +0.000 C 
ATOM      5  C   UNL     1       1.593   4.007  19.220  0.00  0.00    +0.000 C 
ATOM      6  N   UNL     1       2.754   4.906  19.069  0.00  0.00    +0.000 NA
ENDROOT
BRANCH   1   7
ATOM      7  C   UNL     1       5.265   5.129  19.051  0.00  0.00    +0.000 C 
BRANCH   7  12
ATOM      8  C   UNL     1       5.877   4.479  14.126  0.00  0.00    +0.000 C 
ATOM      9  C   UNL     1       6.108   4.628  15.579  0.00  0.00    +0.000 A 
ATOM     10  C   UNL     1       7.290   4.373  16.310  0.00  0.00    +0.000 A 
ATOM     11  N   UNL     1       7.135   4.568  17.620  0.00  0.00    +0.000 NA
ATOM     12  N   UNL     1       5.843   4.925  17.736  0.00  0.00    +0.000 N 
ATOM     13  C   UNL     1       5.205   5.037  16.536  0.00  0.00    +0.000 A 
ENDBRANCH   7  12
ENDBRANCH   1   7
BRANCH   6  14
ATOM     14  C   UNL     1       2.551   6.130  19.896  0.00  0.00    +0.000 C 
BRANCH  14  15
ATOM     15  C   UNL     1       2.262   7.407  19.163  0.00  0.00    +0.000 A 
ATOM     16  N   UNL     1       2.697   7.770  17.971  0.00  0.00    +0.000 NA
ATOM     17  C   UNL     1       2.151   9.010  17.786  0.00  0.00    +0.000 A 
ATOM     18  C   UNL     1       1.396   9.375  18.882  0.00  0.00    +0.000 A 
ATOM     19  O   UNL     1       1.466   8.340  19.779  0.00  0.00    +0.000 OA
BRANCH  18  20
ATOM     20  C   UNL     1       0.557  10.579  19.208  0.00  0.00    +0.000 C 
ATOM     21  C   UNL     1      -0.774  10.499  18.440  0.00  0.00    +0.000 C 
ATOM     22  C   UNL     1       0.261  10.677  20.717  0.00  0.00    +0.000 C 
ATOM     23  C   UNL     1       1.294  11.866  18.783  0.00  0.00    +0.000 C 
ENDBRANCH  18  20
ENDBRANCH  14  15
ENDBRANCH   6  14
TORSDOF 5
ENDMDL
MODEL 9
REMARK VINA RESULT:      -7.0      1.706      2.108
REMARK  Name = 
REMARK  9 active torsions:
REMARK  status: ('A' for Active; 'I' for Inactive)
REMARK    1  A    between atoms: C_1  and  C_2
REMARK    2  A    between atoms: N_5  and  C_6
REMARK    3  A    between atoms: C_6  and  C_7
REMARK    4  A    between atoms: N_12  and  C_13
REMARK    5  A    between atoms: C_13  and  C_14
REMARK    6  A    between atoms: C_17  and  C_18
REMARK    7  A    between atoms: C_18  and  C_19
REMARK    8  A    between atoms: C_18  and  C_20
REMARK    9  A    between atoms: C_18  and  C_21
REMARK                            x       y       z     vdW  Elec       q    Type
REMARK                         _______ _______ _______ _____ _____    ______ ____
ROOT
ATOM      1  C   UNL     1       3.368   4.549  18.229  0.00  0.00    +0.000 C 
ATOM      2  C   UNL     1       2.809   3.488  17.241  0.00  0.00    +0.000 C 
ATOM      3  C   UNL     1       2.071   2.349  17.932  0.00  0.00    +0.000 C 
ATOM      4  C   UNL     1       1.015   2.900  18.874  0.00  0.00    +0.000 C 
ATOM      5  C   UNL     1       1.643   3.883  19.856  0.00  0.00    +0.000 C 
ATOM      6  N   UNL     1       2.300   5.008  19.161  0.00  0.00    +0.000 NA
ENDROOT
BRANCH   1   7
ATOM      7  C   UNL     1       3.964   5.724  17.408  0.00  0.00    +0.000 C 
BRANCH   7  12
ATOM      8  C   UNL     1       7.266   4.807  13.759  0.00  0.00    +0.000 C 
ATOM      9  C   UNL     1       6.605   4.952  15.075  0.00  0.00    +0.000 A 
ATOM     10  C   UNL     1       7.046   4.485  16.333  0.00  0.00    +0.000 A 
ATOM     11  N   UNL     1       6.177   4.748  17.311  0.00  0.00    +0.000 NA
ATOM     12  N   UNL     1       5.164   5.365  16.675  0.00  0.00    +0.000 N 
ATOM     13  C   UNL     1       5.402   5.566  15.348  0.00  0.00    +0.000 A 
ENDBRANCH   7  12
ENDBRANCH   1   7
BRANCH   6  14
ATOM     14  C   UNL     1       2.772   6.008  20.161  0.00  0.00    +0.000 C 
BRANCH  14  15
ATOM     15  C   UNL     1       1.929   7.234  20.347  0.00  0.00    +0.000 A 
ATOM     16  N   UNL     1       1.162   7.538  21.378  0.00  0.00    +0.000 NA
ATOM     17  C   UNL     1       0.617   8.745  21.038  0.00  0.00    +0.000 A 
ATOM     18  C   UNL     1       1.066   9.145  19.796  0.00  0.00    +0.000 A 
ATOM     19  O   UNL     1       1.915   8.168  19.343  0.00  0.00    +0.000 OA
BRANCH  18  20
ATOM     20  C   UNL     1       0.837  10.373  18.957  0.00  0.00    +0.000 C 
ATOM     21  C   UNL     1       1.943  10.478  17.892  0.00  0.00    +0.000 C 
ATOM     22  C   UNL     1      -0.534  10.337  18.256  0.00  0.00    +0.000 C 
ATOM     23  C   UNL     1       0.886  11.633  19.844  0.00  0.00    +0.000 C 
ENDBRANCH  18  20
ENDBRANCH  14  15
ENDBRANCH   6  14
TORSDOF 5
ENDMDL
