MODEL 1
REMARK VINA RESULT:      -8.0      0.000      0.000
REMARK  Name = 
REMARK  8 active torsions:
REMARK  status: ('A' for Active; 'I' for Inactive)
REMARK    1  A    between atoms: C_1  and  C_2
REMARK    2  A    between atoms: C_2  and  C_3
REMARK    3  A    between atoms: C_3  and  C_4
REMARK    4  A    between atoms: C_4  and  C_5
REMARK    5  A    between atoms: C_4  and  N_16
REMARK    6  A    between atoms: N_9  and  C_10
REMARK    7  A    between atoms: C_10  and  C_11
REMARK    8  A    between atoms: N_19  and  C_20
REMARK                            x       y       z     vdW  Elec       q    Type
REMARK                         _______ _______ _______ _____ _____    ______ ____
ROOT
ATOM      1  C   UNL     1       4.376   4.296  17.773  0.00  0.00    +0.000 C 
ENDROOT
BRANCH   1   2
ATOM      2  N   UNL     1       4.281   5.575  18.493  0.00  0.00    +0.000 NA
ATOM      3  C   UNL     1       3.841   6.762  17.716  0.00  0.00    +0.000 C 
ATOM      4  C   UNL     1       2.442   7.400  17.999  0.00  0.00    +0.000 C 
ATOM      5  N   UNL     1       2.151   7.344  19.430  0.00  0.00    +0.000 N 
ATOM      6  C   UNL     1       2.214   5.990  19.975  0.00  0.00    +0.000 C 
ATOM      7  C   UNL     1       3.659   5.473  19.830  0.00  0.00    +0.000 C 
BRANCH   5   8
ATOM      8  C   UNL     1       1.482   8.329  20.130  0.00  0.00    +0.000 A 
ATOM      9  C   UNL     1       1.228   8.257  21.503  0.00  0.00    +0.000 A 
ATOM     10  C   UNL     1       0.534   9.278  22.170  0.00  0.00    +0.000 A 
ATOM     11  C   UNL     1       0.060  10.383  21.468  0.00  0.00    +0.000 A 
ATOM     12  C   UNL     1       0.288  10.472  20.100  0.00  0.00    +0.000 A 
ATOM     13  C   UNL     1       0.994   9.457  19.446  0.00  0.00    +0.000 A 
ENDBRANCH   5   8
ENDBRANCH   1   2
BRANCH   1  14
ATOM     14  C   UNL     1       5.402   4.370  16.664  0.00  0.00    +0.000 A 
ATOM     15  N   UNL     1       5.212   4.036  15.399  0.00  0.00    +0.000 NA
ATOM     16  N   UNL     1       6.425   4.138  14.775  0.00  0.00    +0.000 NA
ATOM     17  N   UNL     1       7.358   4.545  15.620  0.00  0.00    +0.000 NA
ATOM     18  N   UNL     1       6.720   4.738  16.793  0.00  0.00    +0.000 N 
BRANCH  18  19
ATOM     19  C   UNL     1       7.478   5.179  17.946  0.00  0.00    +0.000 C 
BRANCH  19  20
ATOM     20  C   UNL     1       7.711   6.647  17.949  0.00  0.00    +0.000 A 
ATOM     21  C   UNL     1       7.333   7.701  17.139  0.00  0.00    +0.000 A 
ATOM     22  C   UNL     1       7.924   8.865  17.688  0.00  0.00    +0.000 A 
ATOM     23  C   UNL     1       8.620   8.454  18.797  0.00  0.00    +0.000 A 
ATOM     24  O   UNL     1       8.491   7.114  18.970  0.00  0.00    +0.000 OA
ENDBRANCH  19  20
ENDBRANCH  18  19
ENDBRANCH   1  14
BRANCH   1  25
ATOM     25  C   UNL     1       3.017   3.779  17.258  0.00  0.00    +0.000 C 
BRANCH  25  27
ATOM     26  C   UNL     1       1.264   2.571  18.601  0.00  0.00    +0.000 C 
ATOM     27  C   UNL     1       2.608   2.447  17.902  0.00  0.00    +0.000 C 
ENDBRANCH  25  27
ENDBRANCH   1  25
TORSDOF 7
ENDMDL
MODEL 2
REMARK VINA RESULT:      -7.9      0.313      1.048
REMARK  Name = 
REMARK  8 active torsions:
REMARK  status: ('A' for Active; 'I' for Inactive)
REMARK    1  A    between atoms: C_1  and  C_2
REMARK    2  A    between atoms: C_2  and  C_3
REMARK    3  A    between atoms: C_3  and  C_4
REMARK    4  A    between atoms: C_4  and  C_5
REMARK    5  A    between atoms: C_4  and  N_16
REMARK    6  A    between atoms: N_9  and  C_10
REMARK    7  A    between atoms: C_10  and  C_11
REMARK    8  A    between atoms: N_19  and  C_20
REMARK                            x       y       z     vdW  Elec       q    Type
REMARK                         _______ _______ _______ _____ _____    ______ ____
ROOT
ATOM      1  C   UNL     1       4.409   4.427  17.739  0.00  0.00    +0.000 C 
ENDROOT
BRANCH   1   2
ATOM      2  N   UNL     1       4.291   5.716  18.438  0.00  0.00    +0.000 NA
ATOM      3  C   UNL     1       3.818   6.879  17.644  0.00  0.00    +0.000 C 
ATOM      4  C   UNL     1       2.407   7.490  17.928  0.00  0.00    +0.000 C 
ATOM      5  N   UNL     1       2.129   7.452  19.363  0.00  0.00    +0.000 N 
ATOM      6  C   UNL     1       2.227   6.110  19.929  0.00  0.00    +0.000 C 
ATOM      7  C   UNL     1       3.682   5.623  19.781  0.00  0.00    +0.000 C 
BRANCH   5   8
ATOM      8  C   UNL     1       1.444   8.433  20.051  0.00  0.00    +0.000 A 
ATOM      9  C   UNL     1       1.004   9.622  19.459  0.00  0.00    +0.000 A 
ATOM     10  C   UNL     1       0.320  10.597  20.202  0.00  0.00    +0.000 A 
ATOM     11  C   UNL     1       0.083  10.409  21.561  0.00  0.00    +0.000 A 
ATOM     12  C   UNL     1       0.521   9.242  22.175  0.00  0.00    +0.000 A 
ATOM     13  C   UNL     1       1.188   8.270  21.425  0.00  0.00    +0.000 A 
ENDBRANCH   5   8
ENDBRANCH   1   2
BRANCH   1  14
ATOM     14  C   UNL     1       5.496   4.475  16.687  0.00  0.00    +0.000 A 
ATOM     15  N   UNL     1       5.379   4.105  15.424  0.00  0.00    +0.000 NA
ATOM     16  N   UNL     1       6.625   4.196  14.866  0.00  0.00    +0.000 NA
ATOM     17  N   UNL     1       7.507   4.631  15.751  0.00  0.00    +0.000 NA
ATOM     18  N   UNL     1       6.804   4.853  16.880  0.00  0.00    +0.000 N 
BRANCH  18  19
ATOM     19  C   UNL     1       7.493   5.331  18.061  0.00  0.00    +0.000 C 
BRANCH  19  20
ATOM     20  C   UNL     1       7.738   6.797  18.026  0.00  0.00    +0.000 A 
ATOM     21  C   UNL     1       7.342   7.837  17.207  0.00  0.00    +0.000 A 
ATOM     22  C   UNL     1       7.960   9.007  17.713  0.00  0.00    +0.000 A 
ATOM     23  C   UNL     1       8.688   8.613  18.807  0.00  0.00    +0.000 A 
ATOM     24  O   UNL     1       8.554   7.278  19.012  0.00  0.00    +0.000 OA
ENDBRANCH  19  20
ENDBRANCH  18  19
ENDBRANCH   1  14
BRANCH   1  25
ATOM     25  C   UNL     1       3.074   3.921  17.154  0.00  0.00    +0.000 C 
BRANCH  25  27
ATOM     26  C   UNL     1       3.497   1.666  18.192  0.00  0.00    +0.000 C 
ATOM     27  C   UNL     1       2.472   2.766  17.968  0.00  0.00    +0.000 C 
ENDBRANCH  25  27
ENDBRANCH   1  25
TORSDOF 7
ENDMDL
MODEL 3
REMARK VINA RESULT:      -7.1      2.277      3.325
REMARK  Name = 
REMARK  8 active torsions:
REMARK  status: ('A' for Active; 'I' for Inactive)
REMARK    1  A    between atoms: C_1  and  C_2
REMARK    2  A    between atoms: C_2  and  C_3
REMARK    3  A    between atoms: C_3  and  C_4
REMARK    4  A    between atoms: C_4  and  C_5
REMARK    5  A    between atoms: C_4  and  N_16
REMARK    6  A    between atoms: N_9  and  C_10
REMARK    7  A    between atoms: C_10  and  C_11
REMARK    8  A    between atoms: N_19  and  C_20
REMARK                            x       y       z     vdW  Elec       q    Type
REMARK                         _______ _______ _______ _____ _____    ______ ____
ROOT
ATOM      1  C   UNL     1       4.538   4.583  18.167  0.00  0.00    +0.000 C 
ENDROOT
BRANCH   1   2
ATOM      2  N   UNL     1       4.327   5.874  18.838  0.00  0.00    +0.000 NA
ATOM      3  C   UNL     1       4.032   7.049  17.978  0.00  0.00    +0.000 C 
ATOM      4  C   UNL     1       2.608   7.694  18.005  0.00  0.00    +0.000 C 
ATOM      5  N   UNL     1       2.076   7.663  19.367  0.00  0.00    +0.000 N 
ATOM      6  C   UNL     1       2.039   6.319  19.936  0.00  0.00    +0.000 C 
ATOM      7  C   UNL     1       3.484   5.797  20.050  0.00  0.00    +0.000 C 
BRANCH   5   8
ATOM      8  C   UNL     1       1.302   8.661  19.924  0.00  0.00    +0.000 A 
ATOM      9  C   UNL     1       0.790   9.736  19.191  0.00  0.00    +0.000 A 
ATOM     10  C   UNL     1       0.017  10.734  19.804  0.00  0.00    +0.000 A 
ATOM     11  C   UNL     1      -0.241  10.685  21.171  0.00  0.00    +0.000 A 
ATOM     12  C   UNL     1       0.266   9.634  21.924  0.00  0.00    +0.000 A 
ATOM     13  C   UNL     1       1.024   8.636  21.303  0.00  0.00    +0.000 A 
ENDBRANCH   5   8
ENDBRANCH   1   2
BRANCH   1  14
ATOM     14  C   UNL     1       5.942   4.481  17.611  0.00  0.00    +0.000 A 
ATOM     15  N   UNL     1       7.034   4.183  18.295  0.00  0.00    +0.000 NA
ATOM     16  N   UNL     1       8.089   4.322  17.436  0.00  0.00    +0.000 NA
ATOM     17  N   UNL     1       7.674   4.682  16.233  0.00  0.00    +0.000 NA
ATOM     18  N   UNL     1       6.329   4.739  16.318  0.00  0.00    +0.000 N 
BRANCH  18  19
ATOM     19  C   UNL     1       5.561   5.123  15.151  0.00  0.00    +0.000 C 
BRANCH  19  20
ATOM     20  C   UNL     1       6.131   4.584  13.889  0.00  0.00    +0.000 A 
ATOM     21  C   UNL     1       7.251   4.853  13.126  0.00  0.00    +0.000 A 
ATOM     22  C   UNL     1       7.194   3.988  12.006  0.00  0.00    +0.000 A 
ATOM     23  C   UNL     1       6.051   3.243  12.155  0.00  0.00    +0.000 A 
ATOM     24  O   UNL     1       5.404   3.588  13.297  0.00  0.00    +0.000 OA
ENDBRANCH  19  20
ENDBRANCH  18  19
ENDBRANCH   1  14
BRANCH   1  25
ATOM     25  C   UNL     1       3.476   4.268  17.093  0.00  0.00    +0.000 C 
BRANCH  25  27
ATOM     26  C   UNL     1       1.438   3.226  18.139  0.00  0.00    +0.000 C 
ATOM     27  C   UNL     1       2.722   2.960  17.371  0.00  0.00    +0.000 C 
ENDBRANCH  25  27
ENDBRANCH   1  25
TORSDOF 7
ENDMDL
MODEL 4
REMARK VINA RESULT:      -7.1      0.900      1.609
REMARK  Name = 
REMARK  8 active torsions:
REMARK  status: ('A' for Active; 'I' for Inactive)
REMARK    1  A    between atoms: C_1  and  C_2
REMARK    2  A    between atoms: C_2  and  C_3
REMARK    3  A    between atoms: C_3  and  C_4
REMARK    4  A    between atoms: C_4  and  C_5
REMARK    5  A    between atoms: C_4  and  N_16
REMARK    6  A    between atoms: N_9  and  C_10
REMARK    7  A    between atoms: C_10  and  C_11
REMARK    8  A    between atoms: N_19  and  C_20
REMARK                            x       y       z     vdW  Elec       q    Type
REMARK                         _______ _______ _______ _____ _____    ______ ____
ROOT
ATOM      1  C   UNL     1       4.324   3.810  17.534  0.00  0.00    +0.000 C 
ENDROOT
BRANCH   1   2
ATOM      2  N   UNL     1       3.294   4.859  17.521  0.00  0.00    +0.000 NA
ATOM      3  C   UNL     1       2.102   4.653  18.383  0.00  0.00    +0.000 C 
ATOM      4  C   UNL     1       1.888   5.557  19.641  0.00  0.00    +0.000 C 
ATOM      5  N   UNL     1       2.325   6.922  19.351  0.00  0.00    +0.000 N 
ATOM      6  C   UNL     1       3.712   6.995  18.900  0.00  0.00    +0.000 C 
ATOM      7  C   UNL     1       3.831   6.236  17.564  0.00  0.00    +0.000 C 
BRANCH   5   8
ATOM      8  C   UNL     1       1.703   8.058  19.830  0.00  0.00    +0.000 A 
ATOM      9  C   UNL     1       1.397   9.162  19.028  0.00  0.00    +0.000 A 
ATOM     10  C   UNL     1       0.774  10.300  19.561  0.00  0.00    +0.000 A 
ATOM     11  C   UNL     1       0.465  10.364  20.917  0.00  0.00    +0.000 A 
ATOM     12  C   UNL     1       0.770   9.286  21.738  0.00  0.00    +0.000 A 
ATOM     13  C   UNL     1       1.377   8.149  21.196  0.00  0.00    +0.000 A 
ENDBRANCH   5   8
ENDBRANCH   1   2
BRANCH   1  14
ATOM     14  C   UNL     1       5.378   4.067  16.479  0.00  0.00    +0.000 A 
ATOM     15  N   UNL     1       5.270   3.811  15.186  0.00  0.00    +0.000 NA
ATOM     16  N   UNL     1       6.488   4.079  14.625  0.00  0.00    +0.000 NA
ATOM     17  N   UNL     1       7.342   4.512  15.537  0.00  0.00    +0.000 NA
ATOM     18  N   UNL     1       6.646   4.553  16.692  0.00  0.00    +0.000 N 
BRANCH  18  19
ATOM     19  C   UNL     1       7.311   4.981  17.905  0.00  0.00    +0.000 C 
BRANCH  19  20
ATOM     20  C   UNL     1       7.582   6.442  17.924  0.00  0.00    +0.000 A 
ATOM     21  C   UNL     1       7.236   7.513  17.122  0.00  0.00    +0.000 A 
ATOM     22  C   UNL     1       7.853   8.656  17.687  0.00  0.00    +0.000 A 
ATOM     23  C   UNL     1       8.530   8.217  18.797  0.00  0.00    +0.000 A 
ATOM     24  O   UNL     1       8.366   6.879  18.956  0.00  0.00    +0.000 OA
ENDBRANCH  19  20
ENDBRANCH  18  19
ENDBRANCH   1  14
BRANCH   1  25
ATOM     25  C   UNL     1       3.749   2.382  17.427  0.00  0.00    +0.000 C 
BRANCH  25  27
ATOM     26  C   UNL     1       4.520   2.322  19.822  0.00  0.00    +0.000 C 
ATOM     27  C   UNL     1       3.585   1.706  18.795  0.00  0.00    +0.000 C 
ENDBRANCH  25  27
ENDBRANCH   1  25
TORSDOF 7
ENDMDL
MODEL 5
REMARK VINA RESULT:      -6.9      1.988      3.130
REMARK  Name = 
REMARK  8 active torsions:
REMARK  status: ('A' for Active; 'I' for Inactive)
REMARK    1  A    between atoms: C_1  and  C_2
REMARK    2  A    between atoms: C_2  and  C_3
REMARK    3  A    between atoms: C_3  and  C_4
REMARK    4  A    between atoms: C_4  and  C_5
REMARK    5  A    between atoms: C_4  and  N_16
REMARK    6  A    between atoms: N_9  and  C_10
REMARK    7  A    between atoms: C_10  and  C_11
REMARK    8  A    between atoms: N_19  and  C_20
REMARK                            x       y       z     vdW  Elec       q    Type
REMARK                         _______ _______ _______ _____ _____    ______ ____
ROOT
ATOM      1  C   UNL     1       2.518   5.422  19.881  0.00  0.00    +0.000 C 
ENDROOT
BRANCH   1   2
ATOM      2  N   UNL     1       2.753   6.868  19.756  0.00  0.00    +0.000 NA
ATOM      3  C   UNL     1       2.840   7.428  18.383  0.00  0.00    +0.000 C 
ATOM      4  C   UNL     1       1.704   8.363  17.852  0.00  0.00    +0.000 C 
ATOM      5  N   UNL     1       1.218   9.217  18.934  0.00  0.00    +0.000 N 
ATOM      6  C   UNL     1       0.756   8.461  20.096  0.00  0.00    +0.000 C 
ATOM      7  C   UNL     1       1.954   7.694  20.687  0.00  0.00    +0.000 C 
BRANCH   5   8
ATOM      8  C   UNL     1       0.822  10.529  18.774  0.00  0.00    +0.000 A 
ATOM      9  C   UNL     1      -0.518  10.928  18.734  0.00  0.00    +0.000 A 
ATOM     10  C   UNL     1      -0.873  12.274  18.558  0.00  0.00    +0.000 A 
ATOM     11  C   UNL     1       0.110  13.247  18.396  0.00  0.00    +0.000 A 
ATOM     12  C   UNL     1       1.448  12.875  18.420  0.00  0.00    +0.000 A 
ATOM     13  C   UNL     1       1.794  11.534  18.611  0.00  0.00    +0.000 A 
ENDBRANCH   5   8
ENDBRANCH   1   2
BRANCH   1  14
ATOM     14  C   UNL     1       2.751   4.717  18.562  0.00  0.00    +0.000 A 
ATOM     15  N   UNL     1       1.857   4.532  17.606  0.00  0.00    +0.000 NA
ATOM     16  N   UNL     1       2.451   3.748  16.655  0.00  0.00    +0.000 NA
ATOM     17  N   UNL     1       3.697   3.458  16.992  0.00  0.00    +0.000 NA
ATOM     18  N   UNL     1       3.911   4.097  18.161  0.00  0.00    +0.000 N 
BRANCH  18  19
ATOM     19  C   UNL     1       5.198   3.970  18.812  0.00  0.00    +0.000 C 
BRANCH  19  20
ATOM     20  C   UNL     1       6.117   5.092  18.486  0.00  0.00    +0.000 A 
ATOM     21  C   UNL     1       6.185   6.045  17.488  0.00  0.00    +0.000 A 
ATOM     22  C   UNL     1       7.345   6.815  17.744  0.00  0.00    +0.000 A 
ATOM     23  C   UNL     1       7.910   6.292  18.879  0.00  0.00    +0.000 A 
ATOM     24  O   UNL     1       7.170   5.253  19.344  0.00  0.00    +0.000 OA
ENDBRANCH  19  20
ENDBRANCH  18  19
ENDBRANCH   1  14
BRANCH   1  25
ATOM     25  C   UNL     1       1.139   5.072  20.478  0.00  0.00    +0.000 C 
BRANCH  25  27
ATOM     26  C   UNL     1       2.069   3.036  21.630  0.00  0.00    +0.000 C 
ATOM     27  C   UNL     1       0.967   3.567  20.728  0.00  0.00    +0.000 C 
ENDBRANCH  25  27
ENDBRANCH   1  25
TORSDOF 7
ENDMDL
MODEL 6
REMARK VINA RESULT:      -6.8      2.033      3.215
REMARK  Name = 
REMARK  8 active torsions:
REMARK  status: ('A' for Active; 'I' for Inactive)
REMARK    1  A    between atoms: C_1  and  C_2
REMARK    2  A    between atoms: C_2  and  C_3
REMARK    3  A    between atoms: C_3  and  C_4
REMARK    4  A    between atoms: C_4  and  C_5
REMARK    5  A    between atoms: C_4  and  N_16
REMARK    6  A    between atoms: N_9  and  C_10
REMARK    7  A    between atoms: C_10  and  C_11
REMARK    8  A    between atoms: N_19  and  C_20
REMARK                            x       y       z     vdW  Elec       q    Type
REMARK                         _______ _______ _______ _____ _____    ______ ____
ROOT
ATOM      1  C   UNL     1       2.569   5.491  19.960  0.00  0.00    +0.000 C 
ENDROOT
BRANCH   1   2
ATOM      2  N   UNL     1       2.759   6.939  19.792  0.00  0.00    +0.000 NA
ATOM      3  C   UNL     1       2.817   7.461  18.402  0.00  0.00    +0.000 C 
ATOM      4  C   UNL     1       1.650   8.346  17.855  0.00  0.00    +0.000 C 
ATOM      5  N   UNL     1       1.148   9.217  18.917  0.00  0.00    +0.000 N 
ATOM      6  C   UNL     1       0.719   8.482  20.104  0.00  0.00    +0.000 C 
ATOM      7  C   UNL     1       1.945   7.768  20.705  0.00  0.00    +0.000 C 
BRANCH   5   8
ATOM      8  C   UNL     1       0.712  10.512  18.723  0.00  0.00    +0.000 A 
ATOM      9  C   UNL     1       1.558  11.625  18.784  0.00  0.00    +0.000 A 
ATOM     10  C   UNL     1       1.067  12.925  18.591  0.00  0.00    +0.000 A 
ATOM     11  C   UNL     1      -0.288  13.139  18.356  0.00  0.00    +0.000 A 
ATOM     12  C   UNL     1      -1.151  12.052  18.303  0.00  0.00    +0.000 A 
ATOM     13  C   UNL     1      -0.652  10.758  18.481  0.00  0.00    +0.000 A 
ENDBRANCH   5   8
ENDBRANCH   1   2
BRANCH   1  14
ATOM     14  C   UNL     1       2.813   4.755  18.661  0.00  0.00    +0.000 A 
ATOM     15  N   UNL     1       1.921   4.525  17.712  0.00  0.00    +0.000 NA
ATOM     16  N   UNL     1       2.529   3.728  16.782  0.00  0.00    +0.000 NA
ATOM     17  N   UNL     1       3.781   3.473  17.123  0.00  0.00    +0.000 NA
ATOM     18  N   UNL     1       3.984   4.149  18.273  0.00  0.00    +0.000 N 
BRANCH  18  19
ATOM     19  C   UNL     1       5.275   4.065  18.924  0.00  0.00    +0.000 C 
BRANCH  19  20
ATOM     20  C   UNL     1       6.192   5.161  18.517  0.00  0.00    +0.000 A 
ATOM     21  C   UNL     1       7.321   5.747  19.057  0.00  0.00    +0.000 A 
ATOM     22  C   UNL     1       7.706   6.780  18.168  0.00  0.00    +0.000 A 
ATOM     23  C   UNL     1       6.796   6.760  17.141  0.00  0.00    +0.000 A 
ATOM     24  O   UNL     1       5.880   5.778  17.336  0.00  0.00    +0.000 OA
ENDBRANCH  19  20
ENDBRANCH  18  19
ENDBRANCH   1  14
BRANCH   1  25
ATOM     25  C   UNL     1       1.205   5.118  20.577  0.00  0.00    +0.000 C 
BRANCH  25  27
ATOM     26  C   UNL     1       1.972   2.983  21.668  0.00  0.00    +0.000 C 
ATOM     27  C   UNL     1       0.996   3.601  20.680  0.00  0.00    +0.000 C 
ENDBRANCH  25  27
ENDBRANCH   1  25
TORSDOF 7
ENDMDL
MODEL 7
REMARK VINA RESULT:      -6.8      1.132      1.608
REMARK  Name = 
REMARK  8 active torsions:
REMARK  status: ('A' for Active; 'I' for Inactive)
REMARK    1  A    between atoms: C_1  and  C_2
REMARK    2  A    between atoms: C_2  and  C_3
REMARK    3  A    between atoms: C_3  and  C_4
REMARK    4  A    between atoms: C_4  and  C_5
REMARK    5  A    between atoms: C_4  and  N_16
REMARK    6  A    between atoms: N_9  and  C_10
REMARK    7  A    between atoms: C_10  and  C_11
REMARK    8  A    between atoms: N_19  and  C_20
REMARK                            x       y       z     vdW  Elec       q    Type
REMARK                         _______ _______ _______ _____ _____    ______ ____
ROOT
ATOM      1  C   UNL     1       3.920   3.632  17.901  0.00  0.00    +0.000 C 
ENDROOT
BRANCH   1   2
ATOM      2  N   UNL     1       2.855   4.643  17.965  0.00  0.00    +0.000 NA
ATOM      3  C   UNL     1       1.889   4.543  19.090  0.00  0.00    +0.000 C 
ATOM      4  C   UNL     1       1.900   5.622  20.222  0.00  0.00    +0.000 C 
ATOM      5  N   UNL     1       2.187   6.937  19.651  0.00  0.00    +0.000 N 
ATOM      6  C   UNL     1       3.439   6.973  18.899  0.00  0.00    +0.000 C 
ATOM      7  C   UNL     1       3.310   6.023  17.693  0.00  0.00    +0.000 C 
BRANCH   5   8
ATOM      8  C   UNL     1       1.621   8.118  20.088  0.00  0.00    +0.000 A 
ATOM      9  C   UNL     1       1.202   8.327  21.406  0.00  0.00    +0.000 A 
ATOM     10  C   UNL     1       0.621   9.541  21.801  0.00  0.00    +0.000 A 
ATOM     11  C   UNL     1       0.426  10.564  20.876  0.00  0.00    +0.000 A 
ATOM     12  C   UNL     1       0.822  10.376  19.558  0.00  0.00    +0.000 A 
ATOM     13  C   UNL     1       1.414   9.169  19.175  0.00  0.00    +0.000 A 
ENDBRANCH   5   8
ENDBRANCH   1   2
BRANCH   1  14
ATOM     14  C   UNL     1       4.925   3.967  16.821  0.00  0.00    +0.000 A 
ATOM     15  N   UNL     1       4.774   3.768  15.523  0.00  0.00    +0.000 NA
ATOM     16  N   UNL     1       5.962   4.096  14.930  0.00  0.00    +0.000 NA
ATOM     17  N   UNL     1       6.839   4.511  15.828  0.00  0.00    +0.000 NA
ATOM     18  N   UNL     1       6.187   4.479  17.009  0.00  0.00    +0.000 N 
BRANCH  18  19
ATOM     19  C   UNL     1       6.887   4.869  18.215  0.00  0.00    +0.000 C 
BRANCH  19  20
ATOM     20  C   UNL     1       7.364   6.276  18.169  0.00  0.00    +0.000 A 
ATOM     21  C   UNL     1       8.350   6.999  18.813  0.00  0.00    +0.000 A 
ATOM     22  C   UNL     1       8.261   8.326  18.327  0.00  0.00    +0.000 A 
ATOM     23  C   UNL     1       7.235   8.333  17.417  0.00  0.00    +0.000 A 
ATOM     24  O   UNL     1       6.689   7.095  17.306  0.00  0.00    +0.000 OA
ENDBRANCH  19  20
ENDBRANCH  18  19
ENDBRANCH   1  14
BRANCH   1  25
ATOM     25  C   UNL     1       3.391   2.190  17.758  0.00  0.00    +0.000 C 
BRANCH  25  27
ATOM     26  C   UNL     1       4.435   2.120  20.048  0.00  0.00    +0.000 C 
ATOM     27  C   UNL     1       3.731   1.311  18.970  0.00  0.00    +0.000 C 
ENDBRANCH  25  27
ENDBRANCH   1  25
TORSDOF 7
ENDMDL
MODEL 8
REMARK VINA RESULT:      -6.8      2.149      3.197
REMARK  Name = 
REMARK  8 active torsions:
REMARK  status: ('A' for Active; 'I' for Inactive)
REMARK    1  A    between atoms: C_1  and  C_2
REMARK    2  A    between atoms: C_2  and  C_3
REMARK    3  A    between atoms: C_3  and  C_4
REMARK    4  A    between atoms: C_4  and  C_5
REMARK    5  A    between atoms: C_4  and  N_16
REMARK    6  A    between atoms: N_9  and  C_10
REMARK    7  A    between atoms: C_10  and  C_11
REMARK    8  A    between atoms: N_19  and  C_20
REMARK                            x       y       z     vdW  Elec       q    Type
REMARK                         _______ _______ _______ _____ _____    ______ ____
ROOT
ATOM      1  C   UNL     1       4.166   5.075  18.392  0.00  0.00    +0.000 C 
ENDROOT
BRANCH   1   2
ATOM      2  N   UNL     1       3.939   6.449  18.864  0.00  0.00    +0.000 NA
ATOM      3  C   UNL     1       3.603   7.472  17.841  0.00  0.00    +0.000 C 
ATOM      4  C   UNL     1       2.165   8.086  17.799  0.00  0.00    +0.000 C 
ATOM      5  N   UNL     1       1.658   8.253  19.160  0.00  0.00    +0.000 N 
ATOM      6  C   UNL     1       1.660   7.011  19.928  0.00  0.00    +0.000 C 
ATOM      7  C   UNL     1       3.118   6.541  20.090  0.00  0.00    +0.000 C 
BRANCH   5   8
ATOM      8  C   UNL     1       0.871   9.309  19.575  0.00  0.00    +0.000 A 
ATOM      9  C   UNL     1       0.172  10.140  18.693  0.00  0.00    +0.000 A 
ATOM     10  C   UNL     1      -0.607  11.209  19.162  0.00  0.00    +0.000 A 
ATOM     11  C   UNL     1      -0.682  11.481  20.525  0.00  0.00    +0.000 A 
ATOM     12  C   UNL     1       0.013  10.679  21.421  0.00  0.00    +0.000 A 
ATOM     13  C   UNL     1       0.774   9.607  20.947  0.00  0.00    +0.000 A 
ENDBRANCH   5   8
ENDBRANCH   1   2
BRANCH   1  14
ATOM     14  C   UNL     1       5.623   4.850  18.052  0.00  0.00    +0.000 A 
ATOM     15  N   UNL     1       6.547   4.352  18.857  0.00  0.00    +0.000 NA
ATOM     16  N   UNL     1       7.739   4.439  18.194  0.00  0.00    +0.000 NA
ATOM     17  N   UNL     1       7.574   4.963  16.990  0.00  0.00    +0.000 NA
ATOM     18  N   UNL     1       6.248   5.181  16.873  0.00  0.00    +0.000 N 
BRANCH  18  19
ATOM     19  C   UNL     1       5.732   5.771  15.654  0.00  0.00    +0.000 C 
BRANCH  19  20
ATOM     20  C   UNL     1       6.063   4.969  14.448  0.00  0.00    +0.000 A 
ATOM     21  C   UNL     1       5.500   3.880  13.810  0.00  0.00    +0.000 A 
ATOM     22  C   UNL     1       6.338   3.580  12.708  0.00  0.00    +0.000 A 
ATOM     23  C   UNL     1       7.354   4.502  12.737  0.00  0.00    +0.000 A 
ATOM     24  O   UNL     1       7.193   5.354  13.781  0.00  0.00    +0.000 OA
ENDBRANCH  19  20
ENDBRANCH  18  19
ENDBRANCH   1  14
BRANCH   1  25
ATOM     25  C   UNL     1       3.240   4.663  17.229  0.00  0.00    +0.000 C 
BRANCH  25  27
ATOM     26  C   UNL     1       2.394   2.351  17.753  0.00  0.00    +0.000 C 
ATOM     27  C   UNL     1       2.040   3.828  17.696  0.00  0.00    +0.000 C 
ENDBRANCH  25  27
ENDBRANCH   1  25
TORSDOF 7
ENDMDL
MODEL 9
REMARK VINA RESULT:      -6.7      3.983      8.804
REMARK  Name = 
REMARK  8 active torsions:
REMARK  status: ('A' for Active; 'I' for Inactive)
REMARK    1  A    between atoms: C_1  and  C_2
REMARK    2  A    between atoms: C_2  and  C_3
REMARK    3  A    between atoms: C_3  and  C_4
REMARK    4  A    between atoms: C_4  and  C_5
REMARK    5  A    between atoms: C_4  and  N_16
REMARK    6  A    between atoms: N_9  and  C_10
REMARK    7  A    between atoms: C_10  and  C_11
REMARK    8  A    between atoms: N_19  and  C_20
REMARK                            x       y       z     vdW  Elec       q    Type
REMARK                         _______ _______ _______ _____ _____    ______ ____
ROOT
ATOM      1  C   UNL     1       0.141   9.694  19.987  0.00  0.00    +0.000 C 
ENDROOT
BRANCH   1   2
ATOM      2  N   UNL     1       1.499   9.185  19.744  0.00  0.00    +0.000 NA
ATOM      3  C   UNL     1       1.880   7.915  20.415  0.00  0.00    +0.000 C 
ATOM      4  C   UNL     1       2.091   6.620  19.565  0.00  0.00    +0.000 C 
ATOM      5  N   UNL     1       2.717   6.961  18.289  0.00  0.00    +0.000 N 
ATOM      6  C   UNL     1       1.963   7.954  17.529  0.00  0.00    +0.000 C 
ATOM      7  C   UNL     1       1.935   9.267  18.334  0.00  0.00    +0.000 C 
BRANCH   5   8
ATOM      8  C   UNL     1       3.652   6.176  17.645  0.00  0.00    +0.000 A 
ATOM      9  C   UNL     1       4.725   6.701  16.916  0.00  0.00    +0.000 A 
ATOM     10  C   UNL     1       5.645   5.863  16.268  0.00  0.00    +0.000 A 
ATOM     11  C   UNL     1       5.495   4.480  16.318  0.00  0.00    +0.000 A 
ATOM     12  C   UNL     1       4.431   3.934  17.024  0.00  0.00    +0.000 A 
ATOM     13  C   UNL     1       3.527   4.775  17.680  0.00  0.00    +0.000 A 
ENDBRANCH   5   8
ENDBRANCH   1   2
BRANCH   1  14
ATOM     14  C   UNL     1       0.065  11.184  19.734  0.00  0.00    +0.000 A 
ATOM     15  N   UNL     1       1.055  12.050  19.859  0.00  0.00    +0.000 NA
ATOM     16  N   UNL     1       0.523  13.293  19.657  0.00  0.00    +0.000 NA
ATOM     17  N   UNL     1      -0.770  13.215  19.391  0.00  0.00    +0.000 NA
ATOM     18  N   UNL     1      -1.059  11.898  19.391  0.00  0.00    +0.000 N 
BRANCH  18  19
ATOM     19  C   UNL     1      -2.420  11.470  19.141  0.00  0.00    +0.000 C 
BRANCH  19  20
ATOM     20  C   UNL     1      -2.609  10.943  17.765  0.00  0.00    +0.000 A 
ATOM     21  C   UNL     1      -2.032   9.938  17.012  0.00  0.00    +0.000 A 
ATOM     22  C   UNL     1      -2.658   9.974  15.742  0.00  0.00    +0.000 A 
ATOM     23  C   UNL     1      -3.578  10.991  15.797  0.00  0.00    +0.000 A 
ATOM     24  O   UNL     1      -3.564  11.579  17.020  0.00  0.00    +0.000 OA
ENDBRANCH  19  20
ENDBRANCH  18  19
ENDBRANCH   1  14
BRANCH   1  25
ATOM     25  C   UNL     1      -0.415   9.323  21.378  0.00  0.00    +0.000 C 
BRANCH  25  27
ATOM     26  C   UNL     1      -1.286  10.972  23.068  0.00  0.00    +0.000 C 
ATOM     27  C   UNL     1      -0.042  10.349  22.457  0.00  0.00    +0.000 C 
ENDBRANCH  25  27
ENDBRANCH   1  25
TORSDOF 7
ENDMDL
