MODEL 1
REMARK VINA RESULT:      -6.9      0.000      0.000
REMARK  Name = 
REMARK  5 active torsions:
REMARK  status: ('A' for Active; 'I' for Inactive)
REMARK    1  A    between atoms: C_1  and  O_2
REMARK    2  A    between atoms: O_2  and  C_3
REMARK    3  A    between atoms: C_7  and  N_8
REMARK    4  A    between atoms: C_9  and  C_11
REMARK    5  A    between atoms: C_16  and  C_17
REMARK                            x       y       z     vdW  Elec       q    Type
REMARK                         _______ _______ _______ _____ _____    ______ ____
ROOT
ATOM      1  N   UNL     1       4.977   4.259  17.802  0.00  0.00    +0.000 N 
ATOM      2  C   UNL     1       4.732   4.555  19.122  0.00  0.00    +0.000 C 
ATOM      3  O   UNL     1       5.482   5.256  19.794  0.00  0.00    +0.000 OA
ATOM      4  H   UNL     1       4.294   3.781  17.226  0.00  0.00    +0.000 HD
ENDROOT
BRANCH   2   5
ATOM      5  C   UNL     1       3.459   4.049  19.708  0.00  0.00    +0.000 A 
ATOM      6  C   UNL     1       2.312   4.833  19.497  0.00  0.00    +0.000 A 
ATOM      7  C   UNL     1       1.073   4.424  19.993  0.00  0.00    +0.000 A 
ATOM      8  C   UNL     1       0.967   3.231  20.703  0.00  0.00    +0.000 A 
ATOM      9  C   UNL     1       2.102   2.454  20.935  0.00  0.00    +0.000 A 
ATOM     10  C   UNL     1       3.355   2.863  20.455  0.00  0.00    +0.000 A 
BRANCH  10  11
ATOM     11  C   UNL     1       4.484   2.048  20.775  0.00  0.00    +0.000 C 
ATOM     12  N   UNL     1       5.369   1.359  21.082  0.00  0.00    +0.000 NA
ENDBRANCH  10  11
ENDBRANCH   2   5
BRANCH   1  17
ATOM     13  C   UNL     1       6.147   6.221  16.863  0.00  0.00    +0.000 C 
ATOM     14  C   UNL     1       5.305   6.278  15.588  0.00  0.00    +0.000 C 
ATOM     15  O   UNL     1       5.539   5.065  14.848  0.00  0.00    +0.000 OA
ATOM     16  C   UNL     1       6.268   4.164  15.697  0.00  0.00    +0.000 C 
ATOM     17  C   UNL     1       6.184   4.718  17.118  0.00  0.00    +0.000 C 
BRANCH  13  19
ATOM     18  C   UNL     1       7.765   7.856  17.464  0.00  0.00    +0.000 C 
ATOM     19  O   UNL     1       7.455   6.756  16.612  0.00  0.00    +0.000 OA
ENDBRANCH  13  19
ENDBRANCH   1  17
TORSDOF 4
ENDMDL
MODEL 2
REMARK VINA RESULT:      -6.8      1.141      2.332
REMARK  Name = 
REMARK  5 active torsions:
REMARK  status: ('A' for Active; 'I' for Inactive)
REMARK    1  A    between atoms: C_1  and  O_2
REMARK    2  A    between atoms: O_2  and  C_3
REMARK    3  A    between atoms: C_7  and  N_8
REMARK    4  A    between atoms: C_9  and  C_11
REMARK    5  A    between atoms: C_16  and  C_17
REMARK                            x       y       z     vdW  Elec       q    Type
REMARK                         _______ _______ _______ _____ _____    ______ ____
ROOT
ATOM      1  N   UNL     1       4.992   4.354  17.826  0.00  0.00    +0.000 N 
ATOM      2  C   UNL     1       4.763   4.626  19.154  0.00  0.00    +0.000 C 
ATOM      3  O   UNL     1       5.545   5.275  19.842  0.00  0.00    +0.000 OA
ATOM      4  H   UNL     1       4.286   3.924  17.240  0.00  0.00    +0.000 HD
ENDROOT
BRANCH   2   5
ATOM      5  C   UNL     1       3.469   4.164  19.731  0.00  0.00    +0.000 A 
ATOM      6  C   UNL     1       3.368   2.797  20.038  0.00  0.00    +0.000 A 
ATOM      7  C   UNL     1       2.198   2.283  20.600  0.00  0.00    +0.000 A 
ATOM      8  C   UNL     1       1.122   3.125  20.862  0.00  0.00    +0.000 A 
ATOM      9  C   UNL     1       1.204   4.481  20.545  0.00  0.00    +0.000 A 
ATOM     10  C   UNL     1       2.369   5.006  19.964  0.00  0.00    +0.000 A 
BRANCH  10  11
ATOM     11  C   UNL     1       2.366   6.392  19.615  0.00  0.00    +0.000 C 
ATOM     12  N   UNL     1       2.317   7.507  19.291  0.00  0.00    +0.000 NA
ENDBRANCH  10  11
ENDBRANCH   2   5
BRANCH   1  17
ATOM     13  C   UNL     1       6.162   6.246  16.754  0.00  0.00    +0.000 C 
ATOM     14  C   UNL     1       5.373   6.167  15.447  0.00  0.00    +0.000 C 
ATOM     15  O   UNL     1       5.660   4.896  14.833  0.00  0.00    +0.000 OA
ATOM     16  C   UNL     1       6.370   4.093  15.792  0.00  0.00    +0.000 C 
ATOM     17  C   UNL     1       6.217   4.775  17.150  0.00  0.00    +0.000 C 
BRANCH  13  19
ATOM     18  C   UNL     1       7.834   7.785  17.455  0.00  0.00    +0.000 C 
ATOM     19  O   UNL     1       7.469   6.786  16.507  0.00  0.00    +0.000 OA
ENDBRANCH  13  19
ENDBRANCH   1  17
TORSDOF 4
ENDMDL
MODEL 3
REMARK VINA RESULT:      -6.7      1.912      3.264
REMARK  Name = 
REMARK  5 active torsions:
REMARK  status: ('A' for Active; 'I' for Inactive)
REMARK    1  A    between atoms: C_1  and  O_2
REMARK    2  A    between atoms: O_2  and  C_3
REMARK    3  A    between atoms: C_7  and  N_8
REMARK    4  A    between atoms: C_9  and  C_11
REMARK    5  A    between atoms: C_16  and  C_17
REMARK                            x       y       z     vdW  Elec       q    Type
REMARK                         _______ _______ _______ _____ _____    ______ ____
ROOT
ATOM      1  N   UNL     1       4.811   5.245  17.980  0.00  0.00    +0.000 N 
ATOM      2  C   UNL     1       3.797   4.369  17.670  0.00  0.00    +0.000 C 
ATOM      3  O   UNL     1       3.697   3.833  16.571  0.00  0.00    +0.000 OA
ATOM      4  H   UNL     1       4.953   5.586  18.923  0.00  0.00    +0.000 HD
ENDROOT
BRANCH   2   5
ATOM      5  C   UNL     1       2.842   4.022  18.759  0.00  0.00    +0.000 A 
ATOM      6  C   UNL     1       2.592   2.655  18.967  0.00  0.00    +0.000 A 
ATOM      7  C   UNL     1       1.726   2.239  19.980  0.00  0.00    +0.000 A 
ATOM      8  C   UNL     1       1.103   3.180  20.794  0.00  0.00    +0.000 A 
ATOM      9  C   UNL     1       1.329   4.541  20.585  0.00  0.00    +0.000 A 
ATOM     10  C   UNL     1       2.185   4.971  19.560  0.00  0.00    +0.000 A 
BRANCH  10  11
ATOM     11  C   UNL     1       2.330   6.380  19.367  0.00  0.00    +0.000 C 
ATOM     12  N   UNL     1       2.486   7.513  19.162  0.00  0.00    +0.000 NA
ENDBRANCH  10  11
ENDBRANCH   2   5
BRANCH   1  17
ATOM     13  C   UNL     1       6.837   4.535  16.758  0.00  0.00    +0.000 C 
ATOM     14  C   UNL     1       7.786   4.757  17.936  0.00  0.00    +0.000 C 
ATOM     15  O   UNL     1       7.774   6.161  18.257  0.00  0.00    +0.000 OA
ATOM     16  C   UNL     1       6.699   6.771  17.523  0.00  0.00    +0.000 C 
ATOM     17  C   UNL     1       5.816   5.642  16.997  0.00  0.00    +0.000 C 
BRANCH  13  19
ATOM     18  C   UNL     1       6.703   4.520  14.384  0.00  0.00    +0.000 C 
ATOM     19  O   UNL     1       7.543   4.711  15.521  0.00  0.00    +0.000 OA
ENDBRANCH  13  19
ENDBRANCH   1  17
TORSDOF 4
ENDMDL
MODEL 4
REMARK VINA RESULT:      -6.7      1.316      2.234
REMARK  Name = 
REMARK  5 active torsions:
REMARK  status: ('A' for Active; 'I' for Inactive)
REMARK    1  A    between atoms: C_1  and  O_2
REMARK    2  A    between atoms: O_2  and  C_3
REMARK    3  A    between atoms: C_7  and  N_8
REMARK    4  A    between atoms: C_9  and  C_11
REMARK    5  A    between atoms: C_16  and  C_17
REMARK                            x       y       z     vdW  Elec       q    Type
REMARK                         _______ _______ _______ _____ _____    ______ ____
ROOT
ATOM      1  N   UNL     1       4.703   5.205  18.183  0.00  0.00    +0.000 N 
ATOM      2  C   UNL     1       3.908   4.086  18.094  0.00  0.00    +0.000 C 
ATOM      3  O   UNL     1       3.988   3.289  17.165  0.00  0.00    +0.000 OA
ATOM      4  H   UNL     1       4.713   5.789  19.011  0.00  0.00    +0.000 HD
ENDROOT
BRANCH   2   5
ATOM      5  C   UNL     1       2.975   3.823  19.226  0.00  0.00    +0.000 A 
ATOM      6  C   UNL     1       1.819   4.618  19.289  0.00  0.00    +0.000 A 
ATOM      7  C   UNL     1       0.881   4.425  20.305  0.00  0.00    +0.000 A 
ATOM      8  C   UNL     1       1.086   3.438  21.264  0.00  0.00    +0.000 A 
ATOM      9  C   UNL     1       2.239   2.654  21.222  0.00  0.00    +0.000 A 
ATOM     10  C   UNL     1       3.197   2.850  20.215  0.00  0.00    +0.000 A 
BRANCH  10  11
ATOM     11  C   UNL     1       4.380   2.049  20.263  0.00  0.00    +0.000 C 
ATOM     12  N   UNL     1       5.359   1.429  20.353  0.00  0.00    +0.000 NA
ENDBRANCH  10  11
ENDBRANCH   2   5
BRANCH   1  17
ATOM     13  C   UNL     1       6.877   4.625  17.165  0.00  0.00    +0.000 C 
ATOM     14  C   UNL     1       7.716   5.269  18.269  0.00  0.00    +0.000 C 
ATOM     15  O   UNL     1       7.442   6.683  18.265  0.00  0.00    +0.000 OA
ATOM     16  C   UNL     1       6.312   6.911  17.407  0.00  0.00    +0.000 C 
ATOM     17  C   UNL     1       5.667   5.552  17.142  0.00  0.00    +0.000 C 
BRANCH  13  19
ATOM     18  C   UNL     1       6.751   4.428  14.798  0.00  0.00    +0.000 C 
ATOM     19  O   UNL     1       7.598   4.649  15.924  0.00  0.00    +0.000 OA
ENDBRANCH  13  19
ENDBRANCH   1  17
TORSDOF 4
ENDMDL
MODEL 5
REMARK VINA RESULT:      -6.6      2.037      2.861
REMARK  Name = 
REMARK  5 active torsions:
REMARK  status: ('A' for Active; 'I' for Inactive)
REMARK    1  A    between atoms: C_1  and  O_2
REMARK    2  A    between atoms: O_2  and  C_3
REMARK    3  A    between atoms: C_7  and  N_8
REMARK    4  A    between atoms: C_9  and  C_11
REMARK    5  A    between atoms: C_16  and  C_17
REMARK                            x       y       z     vdW  Elec       q    Type
REMARK                         _______ _______ _______ _____ _____    ______ ____
ROOT
ATOM      1  N   UNL     1       5.332   4.923  18.628  0.00  0.00    +0.000 N 
ATOM      2  C   UNL     1       4.060   5.398  18.406  0.00  0.00    +0.000 C 
ATOM      3  O   UNL     1       3.842   6.500  17.911  0.00  0.00    +0.000 OA
ATOM      4  H   UNL     1       5.501   3.969  18.922  0.00  0.00    +0.000 HD
ENDROOT
BRANCH   2   5
ATOM      5  C   UNL     1       2.927   4.484  18.720  0.00  0.00    +0.000 A 
ATOM      6  C   UNL     1       2.893   3.262  18.028  0.00  0.00    +0.000 A 
ATOM      7  C   UNL     1       1.877   2.336  18.276  0.00  0.00    +0.000 A 
ATOM      8  C   UNL     1       0.889   2.621  19.214  0.00  0.00    +0.000 A 
ATOM      9  C   UNL     1       0.903   3.839  19.893  0.00  0.00    +0.000 A 
ATOM     10  C   UNL     1       1.909   4.783  19.641  0.00  0.00    +0.000 A 
BRANCH  10  11
ATOM     11  C   UNL     1       1.833   6.031  20.333  0.00  0.00    +0.000 C 
ATOM     12  N   UNL     1       1.799   7.074  20.845  0.00  0.00    +0.000 NA
ENDBRANCH  10  11
ENDBRANCH   2   5
BRANCH   1  17
ATOM     13  C   UNL     1       6.744   5.872  16.838  0.00  0.00    +0.000 C 
ATOM     14  C   UNL     1       7.457   4.557  16.521  0.00  0.00    +0.000 C 
ATOM     15  O   UNL     1       8.202   4.164  17.690  0.00  0.00    +0.000 OA
ATOM     16  C   UNL     1       7.796   5.012  18.777  0.00  0.00    +0.000 C 
ATOM     17  C   UNL     1       6.518   5.725  18.338  0.00  0.00    +0.000 C 
BRANCH  13  19
ATOM     18  C   UNL     1       7.464   8.051  17.460  0.00  0.00    +0.000 C 
ATOM     19  O   UNL     1       7.601   6.981  16.529  0.00  0.00    +0.000 OA
ENDBRANCH  13  19
ENDBRANCH   1  17
TORSDOF 4
ENDMDL
MODEL 6
REMARK VINA RESULT:      -6.6      1.740      2.546
REMARK  Name = 
REMARK  5 active torsions:
REMARK  status: ('A' for Active; 'I' for Inactive)
REMARK    1  A    between atoms: C_1  and  O_2
REMARK    2  A    between atoms: O_2  and  C_3
REMARK    3  A    between atoms: C_7  and  N_8
REMARK    4  A    between atoms: C_9  and  C_11
REMARK    5  A    between atoms: C_16  and  C_17
REMARK                            x       y       z     vdW  Elec       q    Type
REMARK                         _______ _______ _______ _____ _____    ______ ____
ROOT
ATOM      1  N   UNL     1       5.287   4.951  17.960  0.00  0.00    +0.000 N 
ATOM      2  C   UNL     1       4.837   4.416  19.144  0.00  0.00    +0.000 C 
ATOM      3  O   UNL     1       5.493   4.452  20.180  0.00  0.00    +0.000 OA
ATOM      4  H   UNL     1       4.689   5.023  17.145  0.00  0.00    +0.000 HD
ENDROOT
BRANCH   2   5
ATOM      5  C   UNL     1       3.461   3.842  19.153  0.00  0.00    +0.000 A 
ATOM      6  C   UNL     1       3.345   2.478  18.839  0.00  0.00    +0.000 A 
ATOM      7  C   UNL     1       2.096   1.854  18.843  0.00  0.00    +0.000 A 
ATOM      8  C   UNL     1       0.955   2.583  19.160  0.00  0.00    +0.000 A 
ATOM      9  C   UNL     1       1.055   3.943  19.456  0.00  0.00    +0.000 A 
ATOM     10  C   UNL     1       2.303   4.584  19.439  0.00  0.00    +0.000 A 
BRANCH  10  11
ATOM     11  C   UNL     1       2.328   5.989  19.698  0.00  0.00    +0.000 C 
ATOM     12  N   UNL     1       2.297   7.125  19.945  0.00  0.00    +0.000 NA
ENDBRANCH  10  11
ENDBRANCH   2   5
BRANCH   1  17
ATOM     13  C   UNL     1       6.740   6.374  16.559  0.00  0.00    +0.000 C 
ATOM     14  C   UNL     1       7.062   5.276  15.546  0.00  0.00    +0.000 C 
ATOM     15  O   UNL     1       7.777   4.233  16.235  0.00  0.00    +0.000 OA
ATOM     16  C   UNL     1       7.695   4.500  17.645  0.00  0.00    +0.000 C 
ATOM     17  C   UNL     1       6.611   5.557  17.840  0.00  0.00    +0.000 C 
BRANCH  13  19
ATOM     18  C   UNL     1       7.704   8.203  17.733  0.00  0.00    +0.000 C 
ATOM     19  O   UNL     1       7.823   7.313  16.626  0.00  0.00    +0.000 OA
ENDBRANCH  13  19
ENDBRANCH   1  17
TORSDOF 4
ENDMDL
MODEL 7
REMARK VINA RESULT:      -6.6      1.386      1.569
REMARK  Name = 
REMARK  5 active torsions:
REMARK  status: ('A' for Active; 'I' for Inactive)
REMARK    1  A    between atoms: C_1  and  O_2
REMARK    2  A    between atoms: O_2  and  C_3
REMARK    3  A    between atoms: C_7  and  N_8
REMARK    4  A    between atoms: C_9  and  C_11
REMARK    5  A    between atoms: C_16  and  C_17
REMARK                            x       y       z     vdW  Elec       q    Type
REMARK                         _______ _______ _______ _____ _____    ______ ____
ROOT
ATOM      1  N   UNL     1       5.250   4.473  18.078  0.00  0.00    +0.000 N 
ATOM      2  C   UNL     1       4.192   4.803  18.891  0.00  0.00    +0.000 C 
ATOM      3  O   UNL     1       4.154   5.845  19.539  0.00  0.00    +0.000 OA
ATOM      4  H   UNL     1       5.217   3.672  17.458  0.00  0.00    +0.000 HD
ENDROOT
BRANCH   2   5
ATOM      5  C   UNL     1       3.028   3.872  18.906  0.00  0.00    +0.000 A 
ATOM      6  C   UNL     1       1.839   4.340  18.323  0.00  0.00    +0.000 A 
ATOM      7  C   UNL     1       0.706   3.527  18.276  0.00  0.00    +0.000 A 
ATOM      8  C   UNL     1       0.748   2.241  18.807  0.00  0.00    +0.000 A 
ATOM      9  C   UNL     1       1.918   1.772  19.405  0.00  0.00    +0.000 A 
ATOM     10  C   UNL     1       3.059   2.587  19.473  0.00  0.00    +0.000 A 
BRANCH  10  11
ATOM     11  C   UNL     1       4.206   2.064  20.146  0.00  0.00    +0.000 C 
ATOM     12  N   UNL     1       5.158   1.698  20.703  0.00  0.00    +0.000 NA
ENDBRANCH  10  11
ENDBRANCH   2   5
BRANCH   1  17
ATOM     13  C   UNL     1       6.530   5.980  16.598  0.00  0.00    +0.000 C 
ATOM     14  C   UNL     1       7.160   4.855  15.777  0.00  0.00    +0.000 C 
ATOM     15  O   UNL     1       7.993   4.076  16.658  0.00  0.00    +0.000 OA
ATOM     16  C   UNL     1       7.720   4.494  18.006  0.00  0.00    +0.000 C 
ATOM     17  C   UNL     1       6.436   5.320  17.969  0.00  0.00    +0.000 C 
BRANCH  13  19
ATOM     18  C   UNL     1       6.977   8.115  17.545  0.00  0.00    +0.000 C 
ATOM     19  O   UNL     1       7.397   7.124  16.610  0.00  0.00    +0.000 OA
ENDBRANCH  13  19
ENDBRANCH   1  17
TORSDOF 4
ENDMDL
MODEL 8
REMARK VINA RESULT:      -6.5      1.114      1.114
REMARK  Name = 
REMARK  5 active torsions:
REMARK  status: ('A' for Active; 'I' for Inactive)
REMARK    1  A    between atoms: C_1  and  O_2
REMARK    2  A    between atoms: O_2  and  C_3
REMARK    3  A    between atoms: C_7  and  N_8
REMARK    4  A    between atoms: C_9  and  C_11
REMARK    5  A    between atoms: C_16  and  C_17
REMARK                            x       y       z     vdW  Elec       q    Type
REMARK                         _______ _______ _______ _____ _____    ______ ____
ROOT
ATOM      1  N   UNL     1       4.898   4.373  17.682  0.00  0.00    +0.000 N 
ATOM      2  C   UNL     1       4.610   4.580  19.011  0.00  0.00    +0.000 C 
ATOM      3  O   UNL     1       5.381   5.152  19.775  0.00  0.00    +0.000 OA
ATOM      4  H   UNL     1       4.207   4.010  17.036  0.00  0.00    +0.000 HD
ENDROOT
BRANCH   2   5
ATOM      5  C   UNL     1       3.268   4.146  19.492  0.00  0.00    +0.000 A 
ATOM      6  C   UNL     1       2.520   5.092  20.211  0.00  0.00    +0.000 A 
ATOM      7  C   UNL     1       1.244   4.777  20.682  0.00  0.00    +0.000 A 
ATOM      8  C   UNL     1       0.704   3.517  20.440  0.00  0.00    +0.000 A 
ATOM      9  C   UNL     1       1.446   2.563  19.744  0.00  0.00    +0.000 A 
ATOM     10  C   UNL     1       2.735   2.863  19.280  0.00  0.00    +0.000 A 
BRANCH  10  11
ATOM     11  C   UNL     1       3.460   1.823  18.621  0.00  0.00    +0.000 C 
ATOM     12  N   UNL     1       4.069   1.019  18.043  0.00  0.00    +0.000 NA
ENDBRANCH  10  11
ENDBRANCH   2   5
BRANCH   1  17
ATOM     13  C   UNL     1       6.167   6.246  16.693  0.00  0.00    +0.000 C 
ATOM     14  C   UNL     1       5.474   6.171  15.332  0.00  0.00    +0.000 C 
ATOM     15  O   UNL     1       5.789   4.894  14.744  0.00  0.00    +0.000 OA
ATOM     16  C   UNL     1       6.416   4.087  15.755  0.00  0.00    +0.000 C 
ATOM     17  C   UNL     1       6.174   4.776  17.096  0.00  0.00    +0.000 C 
BRANCH  13  19
ATOM     18  C   UNL     1       7.800   7.775  17.501  0.00  0.00    +0.000 C 
ATOM     19  O   UNL     1       7.496   6.768  16.539  0.00  0.00    +0.000 OA
ENDBRANCH  13  19
ENDBRANCH   1  17
TORSDOF 4
ENDMDL
MODEL 9
REMARK VINA RESULT:      -6.5      1.913      3.160
REMARK  Name = 
REMARK  5 active torsions:
REMARK  status: ('A' for Active; 'I' for Inactive)
REMARK    1  A    between atoms: C_1  and  O_2
REMARK    2  A    between atoms: O_2  and  C_3
REMARK    3  A    between atoms: C_7  and  N_8
REMARK    4  A    between atoms: C_9  and  C_11
REMARK    5  A    between atoms: C_16  and  C_17
REMARK                            x       y       z     vdW  Elec       q    Type
REMARK                         _______ _______ _______ _____ _____    ______ ____
ROOT
ATOM      1  N   UNL     1       4.633   4.849  17.655  0.00  0.00    +0.000 N 
ATOM      2  C   UNL     1       3.457   4.144  17.752  0.00  0.00    +0.000 C 
ATOM      3  O   UNL     1       2.895   3.655  16.777  0.00  0.00    +0.000 OA
ATOM      4  H   UNL     1       5.149   5.143  18.476  0.00  0.00    +0.000 HD
ENDROOT
BRANCH   2   5
ATOM      5  C   UNL     1       2.908   3.919  19.119  0.00  0.00    +0.000 A 
ATOM      6  C   UNL     1       2.857   2.589  19.567  0.00  0.00    +0.000 A 
ATOM      7  C   UNL     1       2.376   2.289  20.843  0.00  0.00    +0.000 A 
ATOM      8  C   UNL     1       1.945   3.312  21.683  0.00  0.00    +0.000 A 
ATOM      9  C   UNL     1       1.975   4.635  21.242  0.00  0.00    +0.000 A 
ATOM     10  C   UNL     1       2.440   4.947  19.956  0.00  0.00    +0.000 A 
BRANCH  10  11
ATOM     11  C   UNL     1       2.393   6.316  19.549  0.00  0.00    +0.000 C 
ATOM     12  N   UNL     1       2.403   7.417  19.178  0.00  0.00    +0.000 NA
ENDBRANCH  10  11
ENDBRANCH   2   5
BRANCH   1  17
ATOM     13  C   UNL     1       6.778   4.879  16.430  0.00  0.00    +0.000 C 
ATOM     14  C   UNL     1       7.253   6.203  17.028  0.00  0.00    +0.000 C 
ATOM     15  O   UNL     1       6.339   7.234  16.606  0.00  0.00    +0.000 OA
ATOM     16  C   UNL     1       5.203   6.594  16.001  0.00  0.00    +0.000 C 
ATOM     17  C   UNL     1       5.272   5.113  16.368  0.00  0.00    +0.000 C 
BRANCH  13  19
ATOM     18  C   UNL     1       6.478   3.990  14.245  0.00  0.00    +0.000 C 
ATOM     19  O   UNL     1       7.348   4.697  15.125  0.00  0.00    +0.000 OA
ENDBRANCH  13  19
ENDBRANCH   1  17
TORSDOF 4
ENDMDL
