MODEL 1
REMARK VINA RESULT:      -7.4      0.000      0.000
REMARK  Name = 
REMARK  8 active torsions:
REMARK  status: ('A' for Active; 'I' for Inactive)
REMARK    1  A    between atoms: C_1  and  C_2
REMARK    2  A    between atoms: C_2  and  N_3
REMARK    3  A    between atoms: N_3  and  C_4
REMARK    4  A    between atoms: N_3  and  C_11
REMARK    5  A    between atoms: C_4  and  C_5
REMARK    6  A    between atoms: N_15  and  C_16
REMARK    7  A    between atoms: C_16  and  C_17
REMARK    8  A    between atoms: C_18  and  C_19
REMARK                            x       y       z     vdW  Elec       q    Type
REMARK                         _______ _______ _______ _____ _____    ______ ____
ROOT
ATOM      1  C   UNL     1       4.844   6.571  16.655  0.00  0.00    +0.000 C 
ATOM      2  C   UNL     1       5.190   5.325  15.793  0.00  0.00    +0.000 C 
ATOM      3  C   UNL     1       6.057   4.297  16.517  0.00  0.00    +0.000 C 
ATOM      4  C   UNL     1       7.271   4.920  17.212  0.00  0.00    +0.000 C 
ATOM      5  N   UNL     1       6.898   6.091  18.018  0.00  0.00    +0.000 NA
ATOM      6  C   UNL     1       6.228   7.088  17.162  0.00  0.00    +0.000 C 
ENDROOT
BRANCH   1   7
ATOM      7  N   UNL     1       3.828   6.361  17.739  0.00  0.00    +0.000 NA
BRANCH   7   9
ATOM      8  C   UNL     1       2.260   7.694  19.302  0.00  0.00    +0.000 C 
ATOM      9  C   UNL     1       3.011   7.573  17.973  0.00  0.00    +0.000 C 
ENDBRANCH   7   9
BRANCH   7  10
ATOM     10  C   UNL     1       3.021   5.138  17.578  0.00  0.00    +0.000 C 
BRANCH  10  11
ATOM     11  C   UNL     1       2.866   4.216  18.775  0.00  0.00    +0.000 A 
ATOM     12  C   UNL     1       3.932   3.445  19.254  0.00  0.00    +0.000 A 
ATOM     13  C   UNL     1       3.765   2.709  20.419  0.00  0.00    +0.000 A 
ATOM     14  N   UNL     1       2.626   2.690  21.140  0.00  0.00    +0.000 NA
ATOM     15  C   UNL     1       1.604   3.424  20.661  0.00  0.00    +0.000 A 
ATOM     16  C   UNL     1       1.668   4.175  19.497  0.00  0.00    +0.000 A 
ENDBRANCH  10  11
ENDBRANCH   7  10
ENDBRANCH   1   7
BRANCH   5  17
ATOM     17  C   UNL     1       8.043   6.694  18.705  0.00  0.00    +0.000 C 
BRANCH  17  18
ATOM     18  C   UNL     1       8.268   8.109  18.265  0.00  0.00    +0.000 C 
ATOM     19  C   UNL     1       8.932   9.018  18.993  0.00  0.00    +0.000 C 
BRANCH  19  20
ATOM     20  C   UNL     1       9.047  10.404  18.550  0.00  0.00    +0.000 A 
ATOM     21  C   UNL     1      10.178  11.155  18.895  0.00  0.00    +0.000 A 
ATOM     22  C   UNL     1      10.284  12.483  18.483  0.00  0.00    +0.000 A 
ATOM     23  C   UNL     1       9.263  13.054  17.736  0.00  0.00    +0.000 A 
ATOM     24  F   UNL     1       9.364  14.324  17.334  0.00  0.00    +0.000 F 
ATOM     25  C   UNL     1       8.128  12.318  17.391  0.00  0.00    +0.000 A 
ATOM     26  C   UNL     1       8.023  10.991  17.801  0.00  0.00    +0.000 A 
ENDBRANCH  19  20
ENDBRANCH  17  18
ENDBRANCH   5  17
TORSDOF 7
ENDMDL
MODEL 2
REMARK VINA RESULT:      -7.2      0.775      1.454
REMARK  Name = 
REMARK  8 active torsions:
REMARK  status: ('A' for Active; 'I' for Inactive)
REMARK    1  A    between atoms: C_1  and  C_2
REMARK    2  A    between atoms: C_2  and  N_3
REMARK    3  A    between atoms: N_3  and  C_4
REMARK    4  A    between atoms: N_3  and  C_11
REMARK    5  A    between atoms: C_4  and  C_5
REMARK    6  A    between atoms: N_15  and  C_16
REMARK    7  A    between atoms: C_16  and  C_17
REMARK    8  A    between atoms: C_18  and  C_19
REMARK                            x       y       z     vdW  Elec       q    Type
REMARK                         _______ _______ _______ _____ _____    ______ ____
ROOT
ATOM      1  C   UNL     1       4.665   6.917  16.915  0.00  0.00    +0.000 C 
ATOM      2  C   UNL     1       5.004   5.982  15.721  0.00  0.00    +0.000 C 
ATOM      3  C   UNL     1       6.098   4.962  16.029  0.00  0.00    +0.000 C 
ATOM      4  C   UNL     1       7.331   5.587  16.691  0.00  0.00    +0.000 C 
ATOM      5  N   UNL     1       6.964   6.458  17.815  0.00  0.00    +0.000 NA
ATOM      6  C   UNL     1       6.044   7.512  17.346  0.00  0.00    +0.000 C 
ENDROOT
BRANCH   1   7
ATOM      7  N   UNL     1       3.882   6.298  18.036  0.00  0.00    +0.000 NA
BRANCH   7   9
ATOM      8  C   UNL     1       2.495   8.451  17.685  0.00  0.00    +0.000 C 
ATOM      9  C   UNL     1       2.697   7.109  18.395  0.00  0.00    +0.000 C 
ENDBRANCH   7   9
BRANCH   7  10
ATOM     10  C   UNL     1       3.571   4.871  17.835  0.00  0.00    +0.000 C 
BRANCH  10  11
ATOM     11  C   UNL     1       2.702   4.173  18.865  0.00  0.00    +0.000 A 
ATOM     12  C   UNL     1       1.446   3.648  18.537  0.00  0.00    +0.000 A 
ATOM     13  C   UNL     1       0.747   2.918  19.488  0.00  0.00    +0.000 A 
ATOM     14  N   UNL     1       1.205   2.669  20.731  0.00  0.00    +0.000 NA
ATOM     15  C   UNL     1       2.408   3.192  21.040  0.00  0.00    +0.000 A 
ATOM     16  C   UNL     1       3.171   3.949  20.164  0.00  0.00    +0.000 A 
ENDBRANCH  10  11
ENDBRANCH   7  10
ENDBRANCH   1   7
BRANCH   5  17
ATOM     17  C   UNL     1       8.130   7.054  18.473  0.00  0.00    +0.000 C 
BRANCH  17  18
ATOM     18  C   UNL     1       8.234   8.523  18.189  0.00  0.00    +0.000 C 
ATOM     19  C   UNL     1       9.093   9.342  18.812  0.00  0.00    +0.000 C 
BRANCH  19  20
ATOM     20  C   UNL     1       9.090  10.778  18.553  0.00  0.00    +0.000 A 
ATOM     21  C   UNL     1       8.156  11.326  17.663  0.00  0.00    +0.000 A 
ATOM     22  C   UNL     1       8.159  12.695  17.405  0.00  0.00    +0.000 A 
ATOM     23  C   UNL     1       9.093  13.509  18.030  0.00  0.00    +0.000 A 
ATOM     24  F   UNL     1       9.096  14.824  17.792  0.00  0.00    +0.000 F 
ATOM     25  C   UNL     1      10.033  12.976  18.915  0.00  0.00    +0.000 A 
ATOM     26  C   UNL     1      10.029  11.607  19.174  0.00  0.00    +0.000 A 
ENDBRANCH  19  20
ENDBRANCH  17  18
ENDBRANCH   5  17
TORSDOF 7
ENDMDL
MODEL 3
REMARK VINA RESULT:      -7.2      0.522      1.064
REMARK  Name = 
REMARK  8 active torsions:
REMARK  status: ('A' for Active; 'I' for Inactive)
REMARK    1  A    between atoms: C_1  and  C_2
REMARK    2  A    between atoms: C_2  and  N_3
REMARK    3  A    between atoms: N_3  and  C_4
REMARK    4  A    between atoms: N_3  and  C_11
REMARK    5  A    between atoms: C_4  and  C_5
REMARK    6  A    between atoms: N_15  and  C_16
REMARK    7  A    between atoms: C_16  and  C_17
REMARK    8  A    between atoms: C_18  and  C_19
REMARK                            x       y       z     vdW  Elec       q    Type
REMARK                         _______ _______ _______ _____ _____    ______ ____
ROOT
ATOM      1  C   UNL     1       4.907   6.490  16.591  0.00  0.00    +0.000 C 
ATOM      2  C   UNL     1       5.244   5.168  15.846  0.00  0.00    +0.000 C 
ATOM      3  C   UNL     1       6.111   4.207  16.657  0.00  0.00    +0.000 C 
ATOM      4  C   UNL     1       7.331   4.887  17.286  0.00  0.00    +0.000 C 
ATOM      5  N   UNL     1       6.966   6.129  17.982  0.00  0.00    +0.000 NA
ATOM      6  C   UNL     1       6.296   7.046  17.041  0.00  0.00    +0.000 C 
ENDROOT
BRANCH   1   7
ATOM      7  N   UNL     1       3.896   6.385  17.694  0.00  0.00    +0.000 NA
BRANCH   7   9
ATOM      8  C   UNL     1       1.838   7.937  17.878  0.00  0.00    +0.000 C 
ATOM      9  C   UNL     1       3.340   7.707  18.062  0.00  0.00    +0.000 C 
ENDBRANCH   7   9
BRANCH   7  10
ATOM     10  C   UNL     1       2.859   5.363  17.465  0.00  0.00    +0.000 C 
BRANCH  10  11
ATOM     11  C   UNL     1       2.605   4.338  18.557  0.00  0.00    +0.000 A 
ATOM     12  C   UNL     1       3.645   3.818  19.336  0.00  0.00    +0.000 A 
ATOM     13  C   UNL     1       3.341   2.973  20.395  0.00  0.00    +0.000 A 
ATOM     14  N   UNL     1       2.087   2.618  20.737  0.00  0.00    +0.000 NA
ATOM     15  C   UNL     1       1.095   3.114  19.971  0.00  0.00    +0.000 A 
ATOM     16  C   UNL     1       1.302   3.948  18.882  0.00  0.00    +0.000 A 
ENDBRANCH  10  11
ENDBRANCH   7  10
ENDBRANCH   1   7
BRANCH   5  17
ATOM     17  C   UNL     1       8.117   6.789  18.605  0.00  0.00    +0.000 C 
BRANCH  17  18
ATOM     18  C   UNL     1       8.148   8.255  18.295  0.00  0.00    +0.000 C 
ATOM     19  C   UNL     1       9.042   9.107  18.816  0.00  0.00    +0.000 C 
BRANCH  19  20
ATOM     20  C   UNL     1       8.970  10.539  18.543  0.00  0.00    +0.000 A 
ATOM     21  C   UNL     1       8.079  11.021  17.576  0.00  0.00    +0.000 A 
ATOM     22  C   UNL     1       8.017  12.387  17.305  0.00  0.00    +0.000 A 
ATOM     23  C   UNL     1       8.845  13.262  17.995  0.00  0.00    +0.000 A 
ATOM     24  F   UNL     1       8.784  14.573  17.744  0.00  0.00    +0.000 F 
ATOM     25  C   UNL     1       9.742  12.793  18.958  0.00  0.00    +0.000 A 
ATOM     26  C   UNL     1       9.803  11.429  19.229  0.00  0.00    +0.000 A 
ENDBRANCH  19  20
ENDBRANCH  17  18
ENDBRANCH   5  17
TORSDOF 7
ENDMDL
MODEL 4
REMARK VINA RESULT:      -7.0      1.773      2.495
REMARK  Name = 
REMARK  8 active torsions:
REMARK  status: ('A' for Active; 'I' for Inactive)
REMARK    1  A    between atoms: C_1  and  C_2
REMARK    2  A    between atoms: C_2  and  N_3
REMARK    3  A    between atoms: N_3  and  C_4
REMARK    4  A    between atoms: N_3  and  C_11
REMARK    5  A    between atoms: C_4  and  C_5
REMARK    6  A    between atoms: N_15  and  C_16
REMARK    7  A    between atoms: C_16  and  C_17
REMARK    8  A    between atoms: C_18  and  C_19
REMARK                            x       y       z     vdW  Elec       q    Type
REMARK                         _______ _______ _______ _____ _____    ______ ____
ROOT
ATOM      1  C   UNL     1       5.547   5.458  17.824  0.00  0.00    +0.000 C 
ATOM      2  C   UNL     1       6.539   4.618  18.676  0.00  0.00    +0.000 C 
ATOM      3  C   UNL     1       7.473   5.460  19.543  0.00  0.00    +0.000 C 
ATOM      4  C   UNL     1       8.140   6.603  18.770  0.00  0.00    +0.000 C 
ATOM      5  N   UNL     1       7.166   7.372  17.983  0.00  0.00    +0.000 NA
ATOM      6  C   UNL     1       6.456   6.470  17.056  0.00  0.00    +0.000 C 
ENDROOT
BRANCH   1   7
ATOM      7  N   UNL     1       4.411   6.092  18.570  0.00  0.00    +0.000 NA
BRANCH   7   9
ATOM      8  C   UNL     1       2.527   7.790  18.072  0.00  0.00    +0.000 C 
ATOM      9  C   UNL     1       3.344   6.563  17.657  0.00  0.00    +0.000 C 
ENDBRANCH   7   9
BRANCH   7  10
ATOM     10  C   UNL     1       3.900   5.281  19.690  0.00  0.00    +0.000 C 
BRANCH  10  11
ATOM     11  C   UNL     1       2.891   4.187  19.385  0.00  0.00    +0.000 A 
ATOM     12  C   UNL     1       1.599   4.206  19.923  0.00  0.00    +0.000 A 
ATOM     13  C   UNL     1       0.683   3.244  19.518  0.00  0.00    +0.000 A 
ATOM     14  N   UNL     1       0.956   2.277  18.619  0.00  0.00    +0.000 NA
ATOM     15  C   UNL     1       2.208   2.261  18.120  0.00  0.00    +0.000 A 
ATOM     16  C   UNL     1       3.195   3.167  18.478  0.00  0.00    +0.000 A 
ENDBRANCH  10  11
ENDBRANCH   7  10
ENDBRANCH   1   7
BRANCH   5  17
ATOM     17  C   UNL     1       7.781   8.480  17.248  0.00  0.00    +0.000 C 
BRANCH  17  18
ATOM     18  C   UNL     1       8.068   9.646  18.145  0.00  0.00    +0.000 C 
ATOM     19  C   UNL     1       9.287  10.180  18.303  0.00  0.00    +0.000 C 
BRANCH  19  20
ATOM     20  C   UNL     1       9.520  11.262  19.255  0.00  0.00    +0.000 A 
ATOM     21  C   UNL     1       9.879  12.534  18.792  0.00  0.00    +0.000 A 
ATOM     22  C   UNL     1      10.114  13.566  19.699  0.00  0.00    +0.000 A 
ATOM     23  C   UNL     1       9.995  13.322  21.060  0.00  0.00    +0.000 A 
ATOM     24  F   UNL     1      10.213  14.309  21.934  0.00  0.00    +0.000 F 
ATOM     25  C   UNL     1       9.644  12.057  21.536  0.00  0.00    +0.000 A 
ATOM     26  C   UNL     1       9.407  11.027  20.629  0.00  0.00    +0.000 A 
ENDBRANCH  19  20
ENDBRANCH  17  18
ENDBRANCH   5  17
TORSDOF 7
ENDMDL
MODEL 5
REMARK VINA RESULT:      -6.9      1.556      2.123
REMARK  Name = 
REMARK  8 active torsions:
REMARK  status: ('A' for Active; 'I' for Inactive)
REMARK    1  A    between atoms: C_1  and  C_2
REMARK    2  A    between atoms: C_2  and  N_3
REMARK    3  A    between atoms: N_3  and  C_4
REMARK    4  A    between atoms: N_3  and  C_11
REMARK    5  A    between atoms: C_4  and  C_5
REMARK    6  A    between atoms: N_15  and  C_16
REMARK    7  A    between atoms: C_16  and  C_17
REMARK    8  A    between atoms: C_18  and  C_19
REMARK                            x       y       z     vdW  Elec       q    Type
REMARK                         _______ _______ _______ _____ _____    ______ ____
ROOT
ATOM      1  C   UNL     1       4.380   5.603  18.079  0.00  0.00    +0.000 C 
ATOM      2  C   UNL     1       5.076   4.604  19.044  0.00  0.00    +0.000 C 
ATOM      3  C   UNL     1       6.306   5.178  19.744  0.00  0.00    +0.000 C 
ATOM      4  C   UNL     1       7.271   5.878  18.782  0.00  0.00    +0.000 C 
ATOM      5  N   UNL     1       6.572   6.815  17.893  0.00  0.00    +0.000 NA
ATOM      6  C   UNL     1       5.526   6.097  17.139  0.00  0.00    +0.000 C 
ENDROOT
BRANCH   1   7
ATOM      7  N   UNL     1       3.594   6.705  18.726  0.00  0.00    +0.000 NA
BRANCH   7   9
ATOM      8  C   UNL     1       1.830   8.451  18.005  0.00  0.00    +0.000 C 
ATOM      9  C   UNL     1       3.149   7.718  17.742  0.00  0.00    +0.000 C 
ENDBRANCH   7   9
BRANCH   7  10
ATOM     10  C   UNL     1       2.509   6.233  19.605  0.00  0.00    +0.000 C 
BRANCH  10  11
ATOM     11  C   UNL     1       2.004   4.812  19.426  0.00  0.00    +0.000 A 
ATOM     12  C   UNL     1       1.603   4.325  18.177  0.00  0.00    +0.000 A 
ATOM     13  C   UNL     1       1.261   2.985  18.051  0.00  0.00    +0.000 A 
ATOM     14  N   UNL     1       1.296   2.101  19.068  0.00  0.00    +0.000 NA
ATOM     15  C   UNL     1       1.671   2.586  20.268  0.00  0.00    +0.000 A 
ATOM     16  C   UNL     1       2.011   3.911  20.496  0.00  0.00    +0.000 A 
ENDBRANCH  10  11
ENDBRANCH   7  10
ENDBRANCH   1   7
BRANCH   5  17
ATOM     17  C   UNL     1       7.479   7.508  16.974  0.00  0.00    +0.000 C 
BRANCH  17  18
ATOM     18  C   UNL     1       8.380   8.460  17.701  0.00  0.00    +0.000 C 
ATOM     19  C   UNL     1       8.094   9.755  17.893  0.00  0.00    +0.000 C 
BRANCH  19  20
ATOM     20  C   UNL     1       9.050  10.653  18.535  0.00  0.00    +0.000 A 
ATOM     21  C   UNL     1       9.349  10.497  19.895  0.00  0.00    +0.000 A 
ATOM     22  C   UNL     1      10.252  11.361  20.513  0.00  0.00    +0.000 A 
ATOM     23  C   UNL     1      10.846  12.375  19.775  0.00  0.00    +0.000 A 
ATOM     24  F   UNL     1      11.717  13.201  20.361  0.00  0.00    +0.000 F 
ATOM     25  C   UNL     1      10.552  12.545  18.421  0.00  0.00    +0.000 A 
ATOM     26  C   UNL     1       9.651  11.681  17.803  0.00  0.00    +0.000 A 
ENDBRANCH  19  20
ENDBRANCH  17  18
ENDBRANCH   5  17
TORSDOF 7
ENDMDL
MODEL 6
REMARK VINA RESULT:      -6.9      4.218      5.874
REMARK  Name = 
REMARK  8 active torsions:
REMARK  status: ('A' for Active; 'I' for Inactive)
REMARK    1  A    between atoms: C_1  and  C_2
REMARK    2  A    between atoms: C_2  and  N_3
REMARK    3  A    between atoms: N_3  and  C_4
REMARK    4  A    between atoms: N_3  and  C_11
REMARK    5  A    between atoms: C_4  and  C_5
REMARK    6  A    between atoms: N_15  and  C_16
REMARK    7  A    between atoms: C_16  and  C_17
REMARK    8  A    between atoms: C_18  and  C_19
REMARK                            x       y       z     vdW  Elec       q    Type
REMARK                         _______ _______ _______ _____ _____    ______ ____
ROOT
ATOM      1  C   UNL     1       4.710   3.812  17.409  0.00  0.00    +0.000 C 
ATOM      2  C   UNL     1       5.578   3.494  16.160  0.00  0.00    +0.000 C 
ATOM      3  C   UNL     1       6.475   4.651  15.723  0.00  0.00    +0.000 C 
ATOM      4  C   UNL     1       5.729   5.985  15.630  0.00  0.00    +0.000 C 
ATOM      5  N   UNL     1       4.925   6.246  16.833  0.00  0.00    +0.000 NA
ATOM      6  C   UNL     1       3.972   5.139  17.041  0.00  0.00    +0.000 C 
ENDROOT
BRANCH   1   7
ATOM      7  N   UNL     1       5.433   3.850  18.722  0.00  0.00    +0.000 NA
BRANCH   7   9
ATOM      8  C   UNL     1       7.250   5.582  19.335  0.00  0.00    +0.000 C 
ATOM      9  C   UNL     1       5.774   5.233  19.126  0.00  0.00    +0.000 C 
ENDBRANCH   7   9
BRANCH   7  10
ATOM     10  C   UNL     1       4.777   3.077  19.793  0.00  0.00    +0.000 C 
BRANCH  10  11
ATOM     11  C   UNL     1       3.264   3.143  19.904  0.00  0.00    +0.000 A 
ATOM     12  C   UNL     1       2.617   4.206  20.545  0.00  0.00    +0.000 A 
ATOM     13  C   UNL     1       1.231   4.273  20.515  0.00  0.00    +0.000 A 
ATOM     14  N   UNL     1       0.448   3.370  19.892  0.00  0.00    +0.000 NA
ATOM     15  C   UNL     1       1.081   2.344  19.290  0.00  0.00    +0.000 A 
ATOM     16  C   UNL     1       2.459   2.181  19.284  0.00  0.00    +0.000 A 
ENDBRANCH  10  11
ENDBRANCH   7  10
ENDBRANCH   1   7
BRANCH   5  17
ATOM     17  C   UNL     1       4.214   7.526  16.772  0.00  0.00    +0.000 C 
BRANCH  17  18
ATOM     18  C   UNL     1       3.294   7.703  17.942  0.00  0.00    +0.000 C 
ATOM     19  C   UNL     1       2.295   8.596  17.974  0.00  0.00    +0.000 C 
BRANCH  19  20
ATOM     20  C   UNL     1       1.485   8.781  19.174  0.00  0.00    +0.000 A 
ATOM     21  C   UNL     1       1.683   7.950  20.285  0.00  0.00    +0.000 A 
ATOM     22  C   UNL     1       0.902   8.117  21.427  0.00  0.00    +0.000 A 
ATOM     23  C   UNL     1      -0.072   9.106  21.455  0.00  0.00    +0.000 A 
ATOM     24  F   UNL     1      -0.818   9.274  22.550  0.00  0.00    +0.000 F 
ATOM     25  C   UNL     1      -0.284   9.936  20.352  0.00  0.00    +0.000 A 
ATOM     26  C   UNL     1       0.498   9.770  19.211  0.00  0.00    +0.000 A 
ENDBRANCH  19  20
ENDBRANCH  17  18
ENDBRANCH   5  17
TORSDOF 7
ENDMDL
MODEL 7
REMARK VINA RESULT:      -6.8      1.637      2.331
REMARK  Name = 
REMARK  8 active torsions:
REMARK  status: ('A' for Active; 'I' for Inactive)
REMARK    1  A    between atoms: C_1  and  C_2
REMARK    2  A    between atoms: C_2  and  N_3
REMARK    3  A    between atoms: N_3  and  C_4
REMARK    4  A    between atoms: N_3  and  C_11
REMARK    5  A    between atoms: C_4  and  C_5
REMARK    6  A    between atoms: N_15  and  C_16
REMARK    7  A    between atoms: C_16  and  C_17
REMARK    8  A    between atoms: C_18  and  C_19
REMARK                            x       y       z     vdW  Elec       q    Type
REMARK                         _______ _______ _______ _____ _____    ______ ____
ROOT
ATOM      1  C   UNL     1       5.245   5.218  18.090  0.00  0.00    +0.000 C 
ATOM      2  C   UNL     1       6.227   4.430  19.001  0.00  0.00    +0.000 C 
ATOM      3  C   UNL     1       7.230   5.316  19.737  0.00  0.00    +0.000 C 
ATOM      4  C   UNL     1       7.921   6.329  18.819  0.00  0.00    +0.000 C 
ATOM      5  N   UNL     1       6.956   7.053  17.979  0.00  0.00    +0.000 NA
ATOM      6  C   UNL     1       6.172   6.090  17.183  0.00  0.00    +0.000 C 
ENDROOT
BRANCH   1   7
ATOM      7  N   UNL     1       4.167   5.988  18.793  0.00  0.00    +0.000 NA
BRANCH   7   9
ATOM      8  C   UNL     1       2.566   7.938  18.232  0.00  0.00    +0.000 C 
ATOM      9  C   UNL     1       3.220   6.610  17.840  0.00  0.00    +0.000 C 
ENDBRANCH   7   9
BRANCH   7  10
ATOM     10  C   UNL     1       3.498   5.238  19.871  0.00  0.00    +0.000 C 
BRANCH  10  11
ATOM     11  C   UNL     1       2.549   4.116  19.486  0.00  0.00    +0.000 A 
ATOM     12  C   UNL     1       1.248   4.043  19.997  0.00  0.00    +0.000 A 
ATOM     13  C   UNL     1       0.388   3.062  19.521  0.00  0.00    +0.000 A 
ATOM     14  N   UNL     1       0.724   2.162  18.576  0.00  0.00    +0.000 NA
ATOM     15  C   UNL     1       1.983   2.234  18.102  0.00  0.00    +0.000 A 
ATOM     16  C   UNL     1       2.919   3.164  18.529  0.00  0.00    +0.000 A 
ENDBRANCH  10  11
ENDBRANCH   7  10
ENDBRANCH   1   7
BRANCH   5  17
ATOM     17  C   UNL     1       7.595   8.039  17.104  0.00  0.00    +0.000 C 
BRANCH  17  18
ATOM     18  C   UNL     1       8.439   9.003  17.881  0.00  0.00    +0.000 C 
ATOM     19  C   UNL     1       8.269  10.332  17.852  0.00  0.00    +0.000 C 
BRANCH  19  20
ATOM     20  C   UNL     1       9.176  11.226  18.565  0.00  0.00    +0.000 A 
ATOM     21  C   UNL     1       9.476  10.987  19.912  0.00  0.00    +0.000 A 
ATOM     22  C   UNL     1      10.333  11.847  20.598  0.00  0.00    +0.000 A 
ATOM     23  C   UNL     1      10.880  12.940  19.940  0.00  0.00    +0.000 A 
ATOM     24  F   UNL     1      11.707  13.762  20.591  0.00  0.00    +0.000 F 
ATOM     25  C   UNL     1      10.584  13.193  18.599  0.00  0.00    +0.000 A 
ATOM     26  C   UNL     1       9.729  12.333  17.913  0.00  0.00    +0.000 A 
ENDBRANCH  19  20
ENDBRANCH  17  18
ENDBRANCH   5  17
TORSDOF 7
ENDMDL
MODEL 8
REMARK VINA RESULT:      -6.8      4.823      7.385
REMARK  Name = 
REMARK  8 active torsions:
REMARK  status: ('A' for Active; 'I' for Inactive)
REMARK    1  A    between atoms: C_1  and  C_2
REMARK    2  A    between atoms: C_2  and  N_3
REMARK    3  A    between atoms: N_3  and  C_4
REMARK    4  A    between atoms: N_3  and  C_11
REMARK    5  A    between atoms: C_4  and  C_5
REMARK    6  A    between atoms: N_15  and  C_16
REMARK    7  A    between atoms: C_16  and  C_17
REMARK    8  A    between atoms: C_18  and  C_19
REMARK                            x       y       z     vdW  Elec       q    Type
REMARK                         _______ _______ _______ _____ _____    ______ ____
ROOT
ATOM      1  C   UNL     1       3.707   3.951  18.344  0.00  0.00    +0.000 C 
ATOM      2  C   UNL     1       4.844   3.977  19.403  0.00  0.00    +0.000 C 
ATOM      3  C   UNL     1       5.636   5.283  19.425  0.00  0.00    +0.000 C 
ATOM      4  C   UNL     1       6.082   5.736  18.031  0.00  0.00    +0.000 C 
ATOM      5  N   UNL     1       4.976   5.700  17.065  0.00  0.00    +0.000 NA
ATOM      6  C   UNL     1       4.414   4.337  17.006  0.00  0.00    +0.000 C 
ENDROOT
BRANCH   1   7
ATOM      7  N   UNL     1       2.492   4.773  18.661  0.00  0.00    +0.000 NA
BRANCH   7   9
ATOM      8  C   UNL     1       0.952   3.536  20.327  0.00  0.00    +0.000 C 
ATOM      9  C   UNL     1       1.297   3.929  18.888  0.00  0.00    +0.000 C 
ENDBRANCH   7   9
BRANCH   7  10
ATOM     10  C   UNL     1       2.705   5.776  19.720  0.00  0.00    +0.000 C 
BRANCH  10  11
ATOM     11  C   UNL     1       2.241   7.200  19.467  0.00  0.00    +0.000 A 
ATOM     12  C   UNL     1       2.352   7.797  18.206  0.00  0.00    +0.000 A 
ATOM     13  C   UNL     1       1.806   9.058  18.003  0.00  0.00    +0.000 A 
ATOM     14  N   UNL     1       1.157   9.758  18.955  0.00  0.00    +0.000 NA
ATOM     15  C   UNL     1       1.070   9.178  20.168  0.00  0.00    +0.000 A 
ATOM     16  C   UNL     1       1.600   7.933  20.471  0.00  0.00    +0.000 A 
ENDBRANCH  10  11
ENDBRANCH   7  10
ENDBRANCH   1   7
BRANCH   5  17
ATOM     17  C   UNL     1       5.377   6.145  15.728  0.00  0.00    +0.000 C 
BRANCH  17  18
ATOM     18  C   UNL     1       5.450   5.000  14.763  0.00  0.00    +0.000 C 
ATOM     19  C   UNL     1       6.349   4.917  13.773  0.00  0.00    +0.000 C 
BRANCH  19  20
ATOM     20  C   UNL     1       6.318   3.819  12.812  0.00  0.00    +0.000 A 
ATOM     21  C   UNL     1       7.510   3.359  12.238  0.00  0.00    +0.000 A 
ATOM     22  C   UNL     1       7.482   2.318  11.312  0.00  0.00    +0.000 A 
ATOM     23  C   UNL     1       6.267   1.746  10.960  0.00  0.00    +0.000 A 
ATOM     24  F   UNL     1       6.235   0.743  10.078  0.00  0.00    +0.000 F 
ATOM     25  C   UNL     1       5.071   2.198  11.520  0.00  0.00    +0.000 A 
ATOM     26  C   UNL     1       5.100   3.237  12.447  0.00  0.00    +0.000 A 
ENDBRANCH  19  20
ENDBRANCH  17  18
ENDBRANCH   5  17
TORSDOF 7
ENDMDL
MODEL 9
REMARK VINA RESULT:      -6.8      4.846      6.528
REMARK  Name = 
REMARK  8 active torsions:
REMARK  status: ('A' for Active; 'I' for Inactive)
REMARK    1  A    between atoms: C_1  and  C_2
REMARK    2  A    between atoms: C_2  and  N_3
REMARK    3  A    between atoms: N_3  and  C_4
REMARK    4  A    between atoms: N_3  and  C_11
REMARK    5  A    between atoms: C_4  and  C_5
REMARK    6  A    between atoms: N_15  and  C_16
REMARK    7  A    between atoms: C_16  and  C_17
REMARK    8  A    between atoms: C_18  and  C_19
REMARK                            x       y       z     vdW  Elec       q    Type
REMARK                         _______ _______ _______ _____ _____    ______ ____
ROOT
ATOM      1  C   UNL     1       1.895   4.166  18.195  0.00  0.00    +0.000 C 
ATOM      2  C   UNL     1       1.823   2.614  18.155  0.00  0.00    +0.000 C 
ATOM      3  C   UNL     1       2.934   1.925  18.945  0.00  0.00    +0.000 C 
ATOM      4  C   UNL     1       4.326   2.485  18.635  0.00  0.00    +0.000 C 
ATOM      5  N   UNL     1       4.348   3.954  18.687  0.00  0.00    +0.000 NA
ATOM      6  C   UNL     1       3.353   4.499  17.744  0.00  0.00    +0.000 C 
ENDROOT
BRANCH   1   7
ATOM      7  N   UNL     1       1.484   4.812  19.485  0.00  0.00    +0.000 NA
BRANCH   7   9
ATOM      8  C   UNL     1       2.094   3.681  21.727  0.00  0.00    +0.000 C 
ATOM      9  C   UNL     1       1.155   3.810  20.525  0.00  0.00    +0.000 C 
ENDBRANCH   7   9
BRANCH   7  10
ATOM     10  C   UNL     1       2.412   5.855  19.957  0.00  0.00    +0.000 C 
BRANCH  10  11
ATOM     11  C   UNL     1       2.044   7.309  19.717  0.00  0.00    +0.000 A 
ATOM     12  C   UNL     1       2.247   7.925  18.476  0.00  0.00    +0.000 A 
ATOM     13  C   UNL     1       1.785   9.219  18.279  0.00  0.00    +0.000 A 
ATOM     14  N   UNL     1       1.134   9.936  19.217  0.00  0.00    +0.000 NA
ATOM     15  C   UNL     1       0.957   9.337  20.411  0.00  0.00    +0.000 A 
ATOM     16  C   UNL     1       1.400   8.057  20.708  0.00  0.00    +0.000 A 
ENDBRANCH  10  11
ENDBRANCH   7  10
ENDBRANCH   1   7
BRANCH   5  17
ATOM     17  C   UNL     1       5.674   4.510  18.409  0.00  0.00    +0.000 C 
BRANCH  17  18
ATOM     18  C   UNL     1       6.103   4.237  16.999  0.00  0.00    +0.000 C 
ATOM     19  C   UNL     1       6.076   5.155  16.022  0.00  0.00    +0.000 C 
BRANCH  19  20
ATOM     20  C   UNL     1       6.426   4.807  14.648  0.00  0.00    +0.000 A 
ATOM     21  C   UNL     1       5.688   3.831  13.966  0.00  0.00    +0.000 A 
ATOM     22  C   UNL     1       6.028   3.489  12.658  0.00  0.00    +0.000 A 
ATOM     23  C   UNL     1       7.101   4.116  12.041  0.00  0.00    +0.000 A 
ATOM     24  F   UNL     1       7.426   3.796  10.785  0.00  0.00    +0.000 F 
ATOM     25  C   UNL     1       7.849   5.086  12.712  0.00  0.00    +0.000 A 
ATOM     26  C   UNL     1       7.508   5.429  14.018  0.00  0.00    +0.000 A 
ENDBRANCH  19  20
ENDBRANCH  17  18
ENDBRANCH   5  17
TORSDOF 7
ENDMDL
