MODEL 1
REMARK VINA RESULT:      -8.2      0.000      0.000
REMARK  Name = 
REMARK  7 active torsions:
REMARK  status: ('A' for Active; 'I' for Inactive)
REMARK    1  A    between atoms: C_1  and  O_2
REMARK    2  A    between atoms: O_2  and  C_3
REMARK    3  A    between atoms: C_7  and  C_8
REMARK    4  A    between atoms: N_10  and  C_11
REMARK    5  A    between atoms: C_16  and  C_17
REMARK    6  A    between atoms: N_19  and  C_20
REMARK    7  A    between atoms: C_23  and  C_24
REMARK                            x       y       z     vdW  Elec       q    Type
REMARK                         _______ _______ _______ _____ _____    ______ ____
ROOT
ATOM      1  C   UNL     1       3.970   3.516  17.969  0.00  0.00    +0.000 A 
ATOM      2  C   UNL     1       4.165   2.397  18.779  0.00  0.00    +0.000 A 
ATOM      3  C   UNL     1       3.591   2.317  20.048  0.00  0.00    +0.000 A 
ATOM      4  C   UNL     1       2.806   3.360  20.540  0.00  0.00    +0.000 A 
ATOM      5 CL   UNL     1       2.199   3.147  22.146  0.00  0.00    +0.000 Cl
ATOM      6  C   UNL     1       2.591   4.499  19.753  0.00  0.00    +0.000 A 
ATOM      7  C   UNL     1       3.204   4.573  18.473  0.00  0.00    +0.000 A 
ENDROOT
BRANCH   1  10
ATOM      8  C   UNL     1       5.788   4.109  16.381  0.00  0.00    +0.000 C 
ATOM      9  O   UNL     1       6.623   4.456  17.209  0.00  0.00    +0.000 OA
ATOM     10  N   UNL     1       4.518   3.617  16.664  0.00  0.00    +0.000 N 
ATOM     11  H   UNL     1       4.012   3.162  15.914  0.00  0.00    +0.000 HD
BRANCH   8  16
ATOM     12  C   UNL     1       5.960   3.544  12.625  0.00  0.00    +0.000 A 
ATOM     13  C   UNL     1       6.994   4.428  12.297  0.00  0.00    +0.000 A 
ATOM     14  C   UNL     1       7.627   5.182  13.282  0.00  0.00    +0.000 A 
ATOM     15  C   UNL     1       7.229   5.045  14.608  0.00  0.00    +0.000 A 
ATOM     16  C   UNL     1       6.201   4.155  14.952  0.00  0.00    +0.000 A 
ATOM     17  C   UNL     1       5.553   3.412  13.957  0.00  0.00    +0.000 A 
BRANCH  12  19
ATOM     18  C   UNL     1       4.106   3.211  11.168  0.00  0.00    +0.000 C 
ATOM     19  O   UNL     1       5.433   2.878  11.552  0.00  0.00    +0.000 OA
ENDBRANCH  12  19
ENDBRANCH   8  16
ENDBRANCH   1  10
BRANCH   6  20
ATOM     20  C   UNL     1       1.769   5.681  20.161  0.00  0.00    +0.000 C 
ATOM     21  O   UNL     1       0.612   5.461  20.512  0.00  0.00    +0.000 OA
ATOM     22  N   UNL     1       2.366   6.932  20.114  0.00  0.00    +0.000 N 
ATOM     23  H   UNL     1       3.287   6.991  19.692  0.00  0.00    +0.000 HD
BRANCH  22  24
ATOM     24  C   UNL     1       1.751   8.163  20.433  0.00  0.00    +0.000 A 
ATOM     25  C   UNL     1       1.313   9.068  19.475  0.00  0.00    +0.000 A 
ATOM     26  C   UNL     1       0.761  10.284  19.867  0.00  0.00    +0.000 A 
ATOM     27  C   UNL     1       0.657  10.573  21.221  0.00  0.00    +0.000 A 
ATOM     28  N   UNL     1       1.040   9.707  22.196  0.00  0.00    +0.000 NA
ATOM     29  C   UNL     1       1.566   8.524  21.772  0.00  0.00    +0.000 A 
BRANCH  27  30
ATOM     30  C   UNL     1       0.141  11.869  21.651  0.00  0.00    +0.000 A 
ATOM     31  N   UNL     1      -0.857  12.086  22.494  0.00  0.00    +0.000 NA
ATOM     32  C   UNL     1      -1.012  13.443  22.560  0.00  0.00    +0.000 A 
ATOM     33  C   UNL     1      -0.100  14.075  21.750  0.00  0.00    +0.000 A 
ATOM     34  N   UNL     1       0.632  13.066  21.189  0.00  0.00    +0.000 N 
ATOM     35  H   UNL     1       1.392  13.146  20.527  0.00  0.00    +0.000 HD
ENDBRANCH  27  30
ENDBRANCH  22  24
ENDBRANCH   6  20
TORSDOF 6
ENDMDL
MODEL 2
REMARK VINA RESULT:      -8.1      1.261      1.486
REMARK  Name = 
REMARK  7 active torsions:
REMARK  status: ('A' for Active; 'I' for Inactive)
REMARK    1  A    between atoms: C_1  and  O_2
REMARK    2  A    between atoms: O_2  and  C_3
REMARK    3  A    between atoms: C_7  and  C_8
REMARK    4  A    between atoms: N_10  and  C_11
REMARK    5  A    between atoms: C_16  and  C_17
REMARK    6  A    between atoms: N_19  and  C_20
REMARK    7  A    between atoms: C_23  and  C_24
REMARK                            x       y       z     vdW  Elec       q    Type
REMARK                         _______ _______ _______ _____ _____    ______ ____
ROOT
ATOM      1  C   UNL     1       4.142   4.382  17.471  0.00  0.00    +0.000 A 
ATOM      2  C   UNL     1       4.124   3.347  18.406  0.00  0.00    +0.000 A 
ATOM      3  C   UNL     1       3.530   3.517  19.657  0.00  0.00    +0.000 A 
ATOM      4  C   UNL     1       2.939   4.731  20.006  0.00  0.00    +0.000 A 
ATOM      5 CL   UNL     1       2.285   4.815  21.604  0.00  0.00    +0.000 Cl
ATOM      6  C   UNL     1       2.941   5.792  19.090  0.00  0.00    +0.000 A 
ATOM      7  C   UNL     1       3.572   5.609  17.830  0.00  0.00    +0.000 A 
ENDROOT
BRANCH   1  10
ATOM      8  C   UNL     1       5.964   4.725  15.815  0.00  0.00    +0.000 C 
ATOM      9  O   UNL     1       6.759   5.287  16.560  0.00  0.00    +0.000 OA
ATOM     10  N   UNL     1       4.715   4.234  16.182  0.00  0.00    +0.000 N 
ATOM     11  H   UNL     1       4.250   3.602  15.540  0.00  0.00    +0.000 HD
BRANCH   8  16
ATOM     12  C   UNL     1       6.209   3.437  12.246  0.00  0.00    +0.000 A 
ATOM     13  C   UNL     1       7.259   4.234  11.775  0.00  0.00    +0.000 A 
ATOM     14  C   UNL     1       7.878   5.164  12.609  0.00  0.00    +0.000 A 
ATOM     15  C   UNL     1       7.451   5.290  13.926  0.00  0.00    +0.000 A 
ATOM     16  C   UNL     1       6.407   4.489  14.414  0.00  0.00    +0.000 A 
ATOM     17  C   UNL     1       5.773   3.570  13.569  0.00  0.00    +0.000 A 
BRANCH  12  19
ATOM     18  C   UNL     1       6.090   1.215  11.400  0.00  0.00    +0.000 C 
ATOM     19  O   UNL     1       5.699   2.578  11.312  0.00  0.00    +0.000 OA
ENDBRANCH  12  19
ENDBRANCH   8  16
ENDBRANCH   1  10
BRANCH   6  20
ATOM     20  C   UNL     1       2.339   7.140  19.338  0.00  0.00    +0.000 C 
ATOM     21  O   UNL     1       2.506   7.993  18.471  0.00  0.00    +0.000 OA
ATOM     22  N   UNL     1       1.642   7.328  20.522  0.00  0.00    +0.000 N 
ATOM     23  H   UNL     1       1.680   6.581  21.208  0.00  0.00    +0.000 HD
BRANCH  22  24
ATOM     24  C   UNL     1       1.029   8.528  20.948  0.00  0.00    +0.000 A 
ATOM     25  C   UNL     1       0.225   9.308  20.127  0.00  0.00    +0.000 A 
ATOM     26  C   UNL     1      -0.305  10.502  20.604  0.00  0.00    +0.000 A 
ATOM     27  C   UNL     1      -0.018  10.898  21.903  0.00  0.00    +0.000 A 
ATOM     28  N   UNL     1       0.736  10.154  22.755  0.00  0.00    +0.000 NA
ATOM     29  C   UNL     1       1.228   8.987  22.255  0.00  0.00    +0.000 A 
BRANCH  27  30
ATOM     30  C   UNL     1      -0.510  12.179  22.400  0.00  0.00    +0.000 A 
ATOM     31  N   UNL     1       0.100  13.351  22.314  0.00  0.00    +0.000 NA
ATOM     32  C   UNL     1      -0.710  14.251  22.951  0.00  0.00    +0.000 A 
ATOM     33  C   UNL     1      -1.835  13.630  23.437  0.00  0.00    +0.000 A 
ATOM     34  N   UNL     1      -1.701  12.320  23.071  0.00  0.00    +0.000 N 
ATOM     35  H   UNL     1      -2.334  11.555  23.263  0.00  0.00    +0.000 HD
ENDBRANCH  27  30
ENDBRANCH  22  24
ENDBRANCH   6  20
TORSDOF 6
ENDMDL
MODEL 3
REMARK VINA RESULT:      -8.0      0.886      1.239
REMARK  Name = 
REMARK  7 active torsions:
REMARK  status: ('A' for Active; 'I' for Inactive)
REMARK    1  A    between atoms: C_1  and  O_2
REMARK    2  A    between atoms: O_2  and  C_3
REMARK    3  A    between atoms: C_7  and  C_8
REMARK    4  A    between atoms: N_10  and  C_11
REMARK    5  A    between atoms: C_16  and  C_17
REMARK    6  A    between atoms: N_19  and  C_20
REMARK    7  A    between atoms: C_23  and  C_24
REMARK                            x       y       z     vdW  Elec       q    Type
REMARK                         _______ _______ _______ _____ _____    ______ ____
ROOT
ATOM      1  C   UNL     1       4.094   3.373  17.956  0.00  0.00    +0.000 A 
ATOM      2  C   UNL     1       4.299   2.268  18.782  0.00  0.00    +0.000 A 
ATOM      3  C   UNL     1       3.719   2.198  20.049  0.00  0.00    +0.000 A 
ATOM      4  C   UNL     1       2.918   3.237  20.523  0.00  0.00    +0.000 A 
ATOM      5 CL   UNL     1       2.303   3.038  22.127  0.00  0.00    +0.000 Cl
ATOM      6  C   UNL     1       2.692   4.362  19.718  0.00  0.00    +0.000 A 
ATOM      7  C   UNL     1       3.312   4.427  18.441  0.00  0.00    +0.000 A 
ENDROOT
BRANCH   1  10
ATOM      8  C   UNL     1       5.809   4.164  16.340  0.00  0.00    +0.000 C 
ATOM      9  O   UNL     1       6.539   4.737  17.141  0.00  0.00    +0.000 OA
ATOM     10  N   UNL     1       4.649   3.463  16.654  0.00  0.00    +0.000 N 
ATOM     11  H   UNL     1       4.260   2.855  15.943  0.00  0.00    +0.000 HD
BRANCH   8  16
ATOM     12  C   UNL     1       6.024   3.501  12.602  0.00  0.00    +0.000 A 
ATOM     13  C   UNL     1       7.086   4.349  12.269  0.00  0.00    +0.000 A 
ATOM     14  C   UNL     1       7.723   5.112  13.245  0.00  0.00    +0.000 A 
ATOM     15  C   UNL     1       7.302   5.018  14.567  0.00  0.00    +0.000 A 
ATOM     16  C   UNL     1       6.245   4.163  14.917  0.00  0.00    +0.000 A 
ATOM     17  C   UNL     1       5.593   3.413  13.930  0.00  0.00    +0.000 A 
BRANCH  12  19
ATOM     18  C   UNL     1       5.999   1.517  11.285  0.00  0.00    +0.000 C 
ATOM     19  O   UNL     1       5.497   2.823  11.538  0.00  0.00    +0.000 OA
ENDBRANCH  12  19
ENDBRANCH   8  16
ENDBRANCH   1  10
BRANCH   6  20
ATOM     20  C   UNL     1       1.852   5.539  20.106  0.00  0.00    +0.000 C 
ATOM     21  O   UNL     1       0.718   5.303  20.514  0.00  0.00    +0.000 OA
ATOM     22  N   UNL     1       2.409   6.802  19.976  0.00  0.00    +0.000 N 
ATOM     23  H   UNL     1       3.311   6.867  19.513  0.00  0.00    +0.000 HD
BRANCH  22  24
ATOM     24  C   UNL     1       1.771   8.030  20.263  0.00  0.00    +0.000 A 
ATOM     25  C   UNL     1       1.386   8.409  21.542  0.00  0.00    +0.000 A 
ATOM     26  C   UNL     1       0.718   9.614  21.738  0.00  0.00    +0.000 A 
ATOM     27  C   UNL     1       0.445  10.421  20.643  0.00  0.00    +0.000 A 
ATOM     28  N   UNL     1       0.829  10.110  19.378  0.00  0.00    +0.000 NA
ATOM     29  C   UNL     1       1.489   8.928  19.227  0.00  0.00    +0.000 A 
BRANCH  27  30
ATOM     30  C   UNL     1      -0.313  11.656  20.820  0.00  0.00    +0.000 A 
ATOM     31  N   UNL     1      -0.639  12.529  19.879  0.00  0.00    +0.000 NA
ATOM     32  C   UNL     1      -1.304  13.543  20.513  0.00  0.00    +0.000 A 
ATOM     33  C   UNL     1      -1.392  13.296  21.861  0.00  0.00    +0.000 A 
ATOM     34  N   UNL     1      -0.770  12.092  22.041  0.00  0.00    +0.000 N 
ATOM     35  H   UNL     1      -0.630  11.590  22.907  0.00  0.00    +0.000 HD
ENDBRANCH  27  30
ENDBRANCH  22  24
ENDBRANCH   6  20
TORSDOF 6
ENDMDL
MODEL 4
REMARK VINA RESULT:      -7.5      2.248      2.890
REMARK  Name = 
REMARK  7 active torsions:
REMARK  status: ('A' for Active; 'I' for Inactive)
REMARK    1  A    between atoms: C_1  and  O_2
REMARK    2  A    between atoms: O_2  and  C_3
REMARK    3  A    between atoms: C_7  and  C_8
REMARK    4  A    between atoms: N_10  and  C_11
REMARK    5  A    between atoms: C_16  and  C_17
REMARK    6  A    between atoms: N_19  and  C_20
REMARK    7  A    between atoms: C_23  and  C_24
REMARK                            x       y       z     vdW  Elec       q    Type
REMARK                         _______ _______ _______ _____ _____    ______ ____
ROOT
ATOM      1  C   UNL     1       3.709   5.639  17.553  0.00  0.00    +0.000 A 
ATOM      2  C   UNL     1       3.566   4.898  18.726  0.00  0.00    +0.000 A 
ATOM      3  C   UNL     1       2.887   5.418  19.829  0.00  0.00    +0.000 A 
ATOM      4  C   UNL     1       2.333   6.697  19.785  0.00  0.00    +0.000 A 
ATOM      5 CL   UNL     1       1.563   7.231  21.239  0.00  0.00    +0.000 Cl
ATOM      6  C   UNL     1       2.460   7.469  18.622  0.00  0.00    +0.000 A 
ATOM      7  C   UNL     1       3.176   6.933  17.518  0.00  0.00    +0.000 A 
ENDROOT
BRANCH   1  10
ATOM      8  C   UNL     1       5.491   5.713  15.822  0.00  0.00    +0.000 C 
ATOM      9  O   UNL     1       6.093   6.692  16.247  0.00  0.00    +0.000 OA
ATOM     10  N   UNL     1       4.371   5.130  16.407  0.00  0.00    +0.000 N 
ATOM     11  H   UNL     1       4.102   4.206  16.090  0.00  0.00    +0.000 HD
BRANCH   8  16
ATOM     12  C   UNL     1       5.902   3.577  12.703  0.00  0.00    +0.000 A 
ATOM     13  C   UNL     1       7.181   3.979  12.304  0.00  0.00    +0.000 A 
ATOM     14  C   UNL     1       7.897   4.919  13.043  0.00  0.00    +0.000 A 
ATOM     15  C   UNL     1       7.332   5.453  14.197  0.00  0.00    +0.000 A 
ATOM     16  C   UNL     1       6.054   5.051  14.614  0.00  0.00    +0.000 A 
ATOM     17  C   UNL     1       5.329   4.121  13.858  0.00  0.00    +0.000 A 
BRANCH  12  19
ATOM     18  C   UNL     1       4.125   3.036  11.213  0.00  0.00    +0.000 C 
ATOM     19  O   UNL     1       5.323   2.655  11.875  0.00  0.00    +0.000 OA
ENDBRANCH  12  19
ENDBRANCH   8  16
ENDBRANCH   1  10
BRANCH   6  20
ATOM     20  C   UNL     1       1.910   8.850  18.446  0.00  0.00    +0.000 C 
ATOM     21  O   UNL     1       2.127   9.403  17.370  0.00  0.00    +0.000 OA
ATOM     22  N   UNL     1       1.202   9.404  19.501  0.00  0.00    +0.000 N 
ATOM     23  H   UNL     1       1.197   8.891  20.378  0.00  0.00    +0.000 HD
BRANCH  22  24
ATOM     24  C   UNL     1       0.632  10.696  19.538  0.00  0.00    +0.000 A 
ATOM     25  C   UNL     1      -0.576  11.015  18.930  0.00  0.00    +0.000 A 
ATOM     26  C   UNL     1      -1.050  12.322  18.968  0.00  0.00    +0.000 A 
ATOM     27  C   UNL     1      -0.300  13.294  19.617  0.00  0.00    +0.000 A 
ATOM     28  N   UNL     1       0.870  13.026  20.254  0.00  0.00    +0.000 NA
ATOM     29  C   UNL     1       1.296  11.733  20.203  0.00  0.00    +0.000 A 
BRANCH  27  30
ATOM     30  C   UNL     1      -0.747  14.684  19.611  0.00  0.00    +0.000 A 
ATOM     31  N   UNL     1      -1.615  15.242  20.441  0.00  0.00    +0.000 NA
ATOM     32  C   UNL     1      -1.757  16.539  20.029  0.00  0.00    +0.000 A 
ATOM     33  C   UNL     1      -0.968  16.788  18.932  0.00  0.00    +0.000 A 
ATOM     34  N   UNL     1      -0.325  15.607  18.685  0.00  0.00    +0.000 N 
ATOM     35  H   UNL     1       0.334  15.403  17.945  0.00  0.00    +0.000 HD
ENDBRANCH  27  30
ENDBRANCH  22  24
ENDBRANCH   6  20
TORSDOF 6
ENDMDL
MODEL 5
REMARK VINA RESULT:      -7.4      0.943      1.641
REMARK  Name = 
REMARK  7 active torsions:
REMARK  status: ('A' for Active; 'I' for Inactive)
REMARK    1  A    between atoms: C_1  and  O_2
REMARK    2  A    between atoms: O_2  and  C_3
REMARK    3  A    between atoms: C_7  and  C_8
REMARK    4  A    between atoms: N_10  and  C_11
REMARK    5  A    between atoms: C_16  and  C_17
REMARK    6  A    between atoms: N_19  and  C_20
REMARK    7  A    between atoms: C_23  and  C_24
REMARK                            x       y       z     vdW  Elec       q    Type
REMARK                         _______ _______ _______ _____ _____    ______ ____
ROOT
ATOM      1  C   UNL     1       3.936   3.642  17.920  0.00  0.00    +0.000 A 
ATOM      2  C   UNL     1       4.108   2.495  18.696  0.00  0.00    +0.000 A 
ATOM      3  C   UNL     1       3.522   2.383  19.956  0.00  0.00    +0.000 A 
ATOM      4  C   UNL     1       2.748   3.421  20.476  0.00  0.00    +0.000 A 
ATOM      5 CL   UNL     1       2.123   3.166  22.068  0.00  0.00    +0.000 Cl
ATOM      6  C   UNL     1       2.556   4.588  19.723  0.00  0.00    +0.000 A 
ATOM      7  C   UNL     1       3.181   4.694  18.452  0.00  0.00    +0.000 A 
ENDROOT
BRANCH   1  10
ATOM      8  C   UNL     1       5.789   4.225  16.369  0.00  0.00    +0.000 C 
ATOM      9  O   UNL     1       6.633   4.499  17.217  0.00  0.00    +0.000 OA
ATOM     10  N   UNL     1       4.498   3.776  16.624  0.00  0.00    +0.000 N 
ATOM     11  H   UNL     1       3.977   3.377  15.852  0.00  0.00    +0.000 HD
BRANCH   8  16
ATOM     12  C   UNL     1       7.632   5.150  13.175  0.00  0.00    +0.000 A 
ATOM     13  C   UNL     1       6.990   4.296  12.272  0.00  0.00    +0.000 A 
ATOM     14  C   UNL     1       5.972   3.445  12.696  0.00  0.00    +0.000 A 
ATOM     15  C   UNL     1       5.585   3.456  14.032  0.00  0.00    +0.000 A 
ATOM     16  C   UNL     1       6.213   4.316  14.946  0.00  0.00    +0.000 A 
ATOM     17  C   UNL     1       7.251   5.155  14.521  0.00  0.00    +0.000 A 
BRANCH  12  19
ATOM     18  C   UNL     1       8.285   6.627  11.425  0.00  0.00    +0.000 C 
ATOM     19  O   UNL     1       8.613   5.920  12.613  0.00  0.00    +0.000 OA
ENDBRANCH  12  19
ENDBRANCH   8  16
ENDBRANCH   1  10
BRANCH   6  20
ATOM     20  C   UNL     1       1.747   5.768  20.162  0.00  0.00    +0.000 C 
ATOM     21  O   UNL     1       0.649   5.536  20.662  0.00  0.00    +0.000 OA
ATOM     22  N   UNL     1       2.289   7.030  19.974  0.00  0.00    +0.000 N 
ATOM     23  H   UNL     1       3.151   7.091  19.440  0.00  0.00    +0.000 HD
BRANCH  22  24
ATOM     24  C   UNL     1       1.673   8.260  20.296  0.00  0.00    +0.000 A 
ATOM     25  C   UNL     1       1.172   9.136  19.342  0.00  0.00    +0.000 A 
ATOM     26  C   UNL     1       0.622  10.352  19.735  0.00  0.00    +0.000 A 
ATOM     27  C   UNL     1       0.586  10.672  21.085  0.00  0.00    +0.000 A 
ATOM     28  N   UNL     1       1.034   9.836  22.058  0.00  0.00    +0.000 NA
ATOM     29  C   UNL     1       1.555   8.651  21.635  0.00  0.00    +0.000 A 
BRANCH  27  30
ATOM     30  C   UNL     1       0.074  11.971  21.512  0.00  0.00    +0.000 A 
ATOM     31  N   UNL     1       0.780  13.071  21.728  0.00  0.00    +0.000 NA
ATOM     32  C   UNL     1      -0.110  14.018  22.153  0.00  0.00    +0.000 A 
ATOM     33  C   UNL     1      -1.382  13.502  22.200  0.00  0.00    +0.000 A 
ATOM     34  N   UNL     1      -1.253  12.207  21.780  0.00  0.00    +0.000 N 
ATOM     35  H   UNL     1      -1.979  11.508  21.694  0.00  0.00    +0.000 HD
ENDBRANCH  27  30
ENDBRANCH  22  24
ENDBRANCH   6  20
TORSDOF 6
ENDMDL
MODEL 6
REMARK VINA RESULT:      -7.3      4.649     12.296
REMARK  Name = 
REMARK  7 active torsions:
REMARK  status: ('A' for Active; 'I' for Inactive)
REMARK    1  A    between atoms: C_1  and  O_2
REMARK    2  A    between atoms: O_2  and  C_3
REMARK    3  A    between atoms: C_7  and  C_8
REMARK    4  A    between atoms: N_10  and  C_11
REMARK    5  A    between atoms: C_16  and  C_17
REMARK    6  A    between atoms: N_19  and  C_20
REMARK    7  A    between atoms: C_23  and  C_24
REMARK                            x       y       z     vdW  Elec       q    Type
REMARK                         _______ _______ _______ _____ _____    ______ ____
ROOT
ATOM      1  C   UNL     1      -1.669  12.730  20.222  0.00  0.00    +0.000 A 
ATOM      2  C   UNL     1      -0.924  13.877  19.945  0.00  0.00    +0.000 A 
ATOM      3  C   UNL     1       0.295  13.799  19.272  0.00  0.00    +0.000 A 
ATOM      4  C   UNL     1       0.802  12.567  18.858  0.00  0.00    +0.000 A 
ATOM      5 CL   UNL     1       2.345  12.615  18.078  0.00  0.00    +0.000 Cl
ATOM      6  C   UNL     1       0.080  11.395  19.122  0.00  0.00    +0.000 A 
ATOM      7  C   UNL     1      -1.148  11.491  19.831  0.00  0.00    +0.000 A 
ENDROOT
BRANCH   1  10
ATOM      8  C   UNL     1      -4.148  12.550  20.262  0.00  0.00    +0.000 C 
ATOM      9  O   UNL     1      -4.308  12.215  19.094  0.00  0.00    +0.000 OA
ATOM     10  N   UNL     1      -2.923  12.778  20.882  0.00  0.00    +0.000 N 
ATOM     11  H   UNL     1      -2.911  12.831  21.894  0.00  0.00    +0.000 HD
BRANCH   8  16
ATOM     12  C   UNL     1      -6.681  13.639  22.880  0.00  0.00    +0.000 A 
ATOM     13  C   UNL     1      -7.761  12.823  22.523  0.00  0.00    +0.000 A 
ATOM     14  C   UNL     1      -7.658  11.930  21.458  0.00  0.00    +0.000 A 
ATOM     15  C   UNL     1      -6.464  11.846  20.751  0.00  0.00    +0.000 A 
ATOM     16  C   UNL     1      -5.370  12.651  21.105  0.00  0.00    +0.000 A 
ATOM     17  C   UNL     1      -5.482  13.562  22.163  0.00  0.00    +0.000 A 
BRANCH  12  19
ATOM     18  C   UNL     1      -6.979  15.862  23.680  0.00  0.00    +0.000 C 
ATOM     19  O   UNL     1      -6.934  14.466  23.940  0.00  0.00    +0.000 OA
ENDBRANCH  12  19
ENDBRANCH   8  16
ENDBRANCH   1  10
BRANCH   6  20
ATOM     20  C   UNL     1       0.510  10.017  18.729  0.00  0.00    +0.000 C 
ATOM     21  O   UNL     1       0.027   9.554  17.698  0.00  0.00    +0.000 OA
ATOM     22  N   UNL     1       1.415   9.363  19.551  0.00  0.00    +0.000 N 
ATOM     23  H   UNL     1       1.645   9.806  20.435  0.00  0.00    +0.000 HD
BRANCH  22  24
ATOM     24  C   UNL     1       1.919   8.055  19.367  0.00  0.00    +0.000 A 
ATOM     25  C   UNL     1       2.579   7.648  18.215  0.00  0.00    +0.000 A 
ATOM     26  C   UNL     1       3.004   6.329  18.087  0.00  0.00    +0.000 A 
ATOM     27  C   UNL     1       2.757   5.436  19.121  0.00  0.00    +0.000 A 
ATOM     28  N   UNL     1       2.144   5.795  20.280  0.00  0.00    +0.000 NA
ATOM     29  C   UNL     1       1.753   7.096  20.372  0.00  0.00    +0.000 A 
BRANCH  27  30
ATOM     30  C   UNL     1       3.135   4.034  18.978  0.00  0.00    +0.000 A 
ATOM     31  N   UNL     1       3.754   3.283  19.876  0.00  0.00    +0.000 NA
ATOM     32  C   UNL     1       3.938   2.060  19.290  0.00  0.00    +0.000 A 
ATOM     33  C   UNL     1       3.426   2.052  18.015  0.00  0.00    +0.000 A 
ATOM     34  N   UNL     1       2.910   3.305  17.834  0.00  0.00    +0.000 N 
ATOM     35  H   UNL     1       2.457   3.676  17.010  0.00  0.00    +0.000 HD
ENDBRANCH  27  30
ENDBRANCH  22  24
ENDBRANCH   6  20
TORSDOF 6
ENDMDL
MODEL 7
REMARK VINA RESULT:      -7.3      3.091      4.660
REMARK  Name = 
REMARK  7 active torsions:
REMARK  status: ('A' for Active; 'I' for Inactive)
REMARK    1  A    between atoms: C_1  and  O_2
REMARK    2  A    between atoms: O_2  and  C_3
REMARK    3  A    between atoms: C_7  and  C_8
REMARK    4  A    between atoms: N_10  and  C_11
REMARK    5  A    between atoms: C_16  and  C_17
REMARK    6  A    between atoms: N_19  and  C_20
REMARK    7  A    between atoms: C_23  and  C_24
REMARK                            x       y       z     vdW  Elec       q    Type
REMARK                         _______ _______ _______ _____ _____    ______ ____
ROOT
ATOM      1  C   UNL     1       2.511   6.960  19.176  0.00  0.00    +0.000 A 
ATOM      2  C   UNL     1       2.175   6.337  20.379  0.00  0.00    +0.000 A 
ATOM      3  C   UNL     1       1.294   6.937  21.279  0.00  0.00    +0.000 A 
ATOM      4  C   UNL     1       0.726   8.180  20.998  0.00  0.00    +0.000 A 
ATOM      5 CL   UNL     1      -0.309   8.825  22.224  0.00  0.00    +0.000 Cl
ATOM      6  C   UNL     1       1.044   8.834  19.799  0.00  0.00    +0.000 A 
ATOM      7  C   UNL     1       1.963   8.219  18.907  0.00  0.00    +0.000 A 
ENDROOT
BRANCH   1  10
ATOM      8  C   UNL     1       4.544   5.671  18.556  0.00  0.00    +0.000 C 
ATOM      9  O   UNL     1       4.934   5.421  19.691  0.00  0.00    +0.000 OA
ATOM     10  N   UNL     1       3.384   6.366  18.229  0.00  0.00    +0.000 N 
ATOM     11  H   UNL     1       3.060   6.316  17.270  0.00  0.00    +0.000 HD
BRANCH   8  16
ATOM     12  C   UNL     1       5.656   4.464  15.126  0.00  0.00    +0.000 A 
ATOM     13  C   UNL     1       7.004   4.197  15.391  0.00  0.00    +0.000 A 
ATOM     14  C   UNL     1       7.534   4.397  16.664  0.00  0.00    +0.000 A 
ATOM     15  C   UNL     1       6.706   4.859  17.683  0.00  0.00    +0.000 A 
ATOM     16  C   UNL     1       5.350   5.120  17.433  0.00  0.00    +0.000 A 
ATOM     17  C   UNL     1       4.825   4.938  16.148  0.00  0.00    +0.000 A 
BRANCH  12  19
ATOM     18  C   UNL     1       6.278   3.714  12.953  0.00  0.00    +0.000 C 
ATOM     19  O   UNL     1       5.284   4.225  13.832  0.00  0.00    +0.000 OA
ENDBRANCH  12  19
ENDBRANCH   8  16
ENDBRANCH   1  10
BRANCH   6  20
ATOM     20  C   UNL     1       0.502  10.163  19.379  0.00  0.00    +0.000 C 
ATOM     21  O   UNL     1      -0.409  10.159  18.554  0.00  0.00    +0.000 OA
ATOM     22  N   UNL     1       1.064  11.299  19.944  0.00  0.00    +0.000 N 
ATOM     23  H   UNL     1       1.889  11.171  20.520  0.00  0.00    +0.000 HD
BRANCH  22  24
ATOM     24  C   UNL     1       0.710  12.637  19.657  0.00  0.00    +0.000 A 
ATOM     25  C   UNL     1      -0.475  13.221  20.085  0.00  0.00    +0.000 A 
ATOM     26  C   UNL     1      -0.776  14.530  19.722  0.00  0.00    +0.000 A 
ATOM     27  C   UNL     1       0.121  15.234  18.931  0.00  0.00    +0.000 A 
ATOM     28  N   UNL     1       1.307  14.718  18.515  0.00  0.00    +0.000 NA
ATOM     29  C   UNL     1       1.570  13.438  18.899  0.00  0.00    +0.000 A 
BRANCH  27  30
ATOM     30  C   UNL     1      -0.206  16.585  18.484  0.00  0.00    +0.000 A 
ATOM     31  N   UNL     1       0.627  17.473  17.964  0.00  0.00    +0.000 NA
ATOM     32  C   UNL     1      -0.111  18.603  17.740  0.00  0.00    +0.000 A 
ATOM     33  C   UNL     1      -1.416  18.414  18.125  0.00  0.00    +0.000 A 
ATOM     34  N   UNL     1      -1.465  17.127  18.584  0.00  0.00    +0.000 N 
ATOM     35  H   UNL     1      -2.263  16.634  18.961  0.00  0.00    +0.000 HD
ENDBRANCH  27  30
ENDBRANCH  22  24
ENDBRANCH   6  20
TORSDOF 6
ENDMDL
MODEL 8
REMARK VINA RESULT:      -7.2      2.143      2.728
REMARK  Name = 
REMARK  7 active torsions:
REMARK  status: ('A' for Active; 'I' for Inactive)
REMARK    1  A    between atoms: C_1  and  O_2
REMARK    2  A    between atoms: O_2  and  C_3
REMARK    3  A    between atoms: C_7  and  C_8
REMARK    4  A    between atoms: N_10  and  C_11
REMARK    5  A    between atoms: C_16  and  C_17
REMARK    6  A    between atoms: N_19  and  C_20
REMARK    7  A    between atoms: C_23  and  C_24
REMARK                            x       y       z     vdW  Elec       q    Type
REMARK                         _______ _______ _______ _____ _____    ______ ____
ROOT
ATOM      1  C   UNL     1       3.853   5.499  17.380  0.00  0.00    +0.000 A 
ATOM      2  C   UNL     1       3.821   4.735  18.547  0.00  0.00    +0.000 A 
ATOM      3  C   UNL     1       3.191   5.205  19.699  0.00  0.00    +0.000 A 
ATOM      4  C   UNL     1       2.575   6.456  19.713  0.00  0.00    +0.000 A 
ATOM      5 CL   UNL     1       1.876   6.931  21.222  0.00  0.00    +0.000 Cl
ATOM      6  C   UNL     1       2.590   7.250  18.558  0.00  0.00    +0.000 A 
ATOM      7  C   UNL     1       3.258   6.766  17.402  0.00  0.00    +0.000 A 
ENDROOT
BRANCH   1  10
ATOM      8  C   UNL     1       5.721   5.434  15.742  0.00  0.00    +0.000 C 
ATOM      9  O   UNL     1       6.494   6.170  16.346  0.00  0.00    +0.000 OA
ATOM     10  N   UNL     1       4.463   5.039  16.185  0.00  0.00    +0.000 N 
ATOM     11  H   UNL     1       4.018   4.263  15.708  0.00  0.00    +0.000 HD
BRANCH   8  16
ATOM     12  C   UNL     1       5.969   3.445  12.511  0.00  0.00    +0.000 A 
ATOM     13  C   UNL     1       7.167   3.961  12.004  0.00  0.00    +0.000 A 
ATOM     14  C   UNL     1       7.882   4.928  12.707  0.00  0.00    +0.000 A 
ATOM     15  C   UNL     1       7.400   5.377  13.932  0.00  0.00    +0.000 A 
ATOM     16  C   UNL     1       6.205   4.860  14.458  0.00  0.00    +0.000 A 
ATOM     17  C   UNL     1       5.479   3.903  13.739  0.00  0.00    +0.000 A 
BRANCH  12  19
ATOM     18  C   UNL     1       6.182   1.412  11.290  0.00  0.00    +0.000 C 
ATOM     19  O   UNL     1       5.380   2.509  11.707  0.00  0.00    +0.000 OA
ENDBRANCH  12  19
ENDBRANCH   8  16
ENDBRANCH   1  10
BRANCH   6  20
ATOM     20  C   UNL     1       1.965   8.605  18.442  0.00  0.00    +0.000 C 
ATOM     21  O   UNL     1       2.055   9.168  17.354  0.00  0.00    +0.000 OA
ATOM     22  N   UNL     1       1.335   9.125  19.562  0.00  0.00    +0.000 N 
ATOM     23  H   UNL     1       1.436   8.612  20.432  0.00  0.00    +0.000 HD
BRANCH  22  24
ATOM     24  C   UNL     1       0.714  10.391  19.659  0.00  0.00    +0.000 A 
ATOM     25  C   UNL     1       1.419  11.585  19.715  0.00  0.00    +0.000 A 
ATOM     26  C   UNL     1       0.737  12.790  19.859  0.00  0.00    +0.000 A 
ATOM     27  C   UNL     1      -0.648  12.776  19.946  0.00  0.00    +0.000 A 
ATOM     28  N   UNL     1      -1.384  11.637  19.863  0.00  0.00    +0.000 NA
ATOM     29  C   UNL     1      -0.682  10.480  19.712  0.00  0.00    +0.000 A 
BRANCH  27  30
ATOM     30  C   UNL     1      -1.377  14.022  20.163  0.00  0.00    +0.000 A 
ATOM     31  N   UNL     1      -0.891  15.250  20.081  0.00  0.00    +0.000 NA
ATOM     32  C   UNL     1      -1.920  16.091  20.407  0.00  0.00    +0.000 A 
ATOM     33  C   UNL     1      -3.057  15.375  20.693  0.00  0.00    +0.000 A 
ATOM     34  N   UNL     1      -2.702  14.066  20.524  0.00  0.00    +0.000 N 
ATOM     35  H   UNL     1      -3.279  13.246  20.655  0.00  0.00    +0.000 HD
ENDBRANCH  27  30
ENDBRANCH  22  24
ENDBRANCH   6  20
TORSDOF 6
ENDMDL
MODEL 9
REMARK VINA RESULT:      -7.1      4.412     11.889
REMARK  Name = 
REMARK  7 active torsions:
REMARK  status: ('A' for Active; 'I' for Inactive)
REMARK    1  A    between atoms: C_1  and  O_2
REMARK    2  A    between atoms: O_2  and  C_3
REMARK    3  A    between atoms: C_7  and  C_8
REMARK    4  A    between atoms: N_10  and  C_11
REMARK    5  A    between atoms: C_16  and  C_17
REMARK    6  A    between atoms: N_19  and  C_20
REMARK    7  A    between atoms: C_23  and  C_24
REMARK                            x       y       z     vdW  Elec       q    Type
REMARK                         _______ _______ _______ _____ _____    ______ ____
ROOT
ATOM      1  C   UNL     1      -0.891  12.754  20.189  0.00  0.00    +0.000 A 
ATOM      2  C   UNL     1      -0.176  13.896  19.827  0.00  0.00    +0.000 A 
ATOM      3  C   UNL     1       1.017  13.802  19.111  0.00  0.00    +0.000 A 
ATOM      4  C   UNL     1       1.528  12.559  18.739  0.00  0.00    +0.000 A 
ATOM      5 CL   UNL     1       3.038  12.590  17.897  0.00  0.00    +0.000 Cl
ATOM      6  C   UNL     1       0.835  11.391  19.087  0.00  0.00    +0.000 A 
ATOM      7  C   UNL     1      -0.365  11.505  19.839  0.00  0.00    +0.000 A 
ENDROOT
BRANCH   1  10
ATOM      8  C   UNL     1      -2.258  12.567  22.257  0.00  0.00    +0.000 C 
ATOM      9  O   UNL     1      -1.343  12.327  23.037  0.00  0.00    +0.000 OA
ATOM     10  N   UNL     1      -2.119  12.817  20.895  0.00  0.00    +0.000 N 
ATOM     11  H   UNL     1      -2.913  13.215  20.407  0.00  0.00    +0.000 HD
BRANCH   8  16
ATOM     12  C   UNL     1      -6.017  12.970  22.656  0.00  0.00    +0.000 A 
ATOM     13  C   UNL     1      -6.143  12.702  24.024  0.00  0.00    +0.000 A 
ATOM     14  C   UNL     1      -5.024  12.407  24.799  0.00  0.00    +0.000 A 
ATOM     15  C   UNL     1      -3.767  12.389  24.203  0.00  0.00    +0.000 A 
ATOM     16  C   UNL     1      -3.625  12.667  22.835  0.00  0.00    +0.000 A 
ATOM     17  C   UNL     1      -4.754  12.943  22.054  0.00  0.00    +0.000 A 
BRANCH  12  19
ATOM     18  C   UNL     1      -7.514  12.470  20.873  0.00  0.00    +0.000 C 
ATOM     19  O   UNL     1      -7.203  13.236  22.029  0.00  0.00    +0.000 OA
ENDBRANCH  12  19
ENDBRANCH   8  16
ENDBRANCH   1  10
BRANCH   6  20
ATOM     20  C   UNL     1       1.272  10.001  18.746  0.00  0.00    +0.000 C 
ATOM     21  O   UNL     1       1.503   9.764  17.563  0.00  0.00    +0.000 OA
ATOM     22  N   UNL     1       1.384   9.086  19.782  0.00  0.00    +0.000 N 
ATOM     23  H   UNL     1       1.049   9.375  20.696  0.00  0.00    +0.000 HD
BRANCH  22  24
ATOM     24  C   UNL     1       1.754   7.727  19.660  0.00  0.00    +0.000 A 
ATOM     25  C   UNL     1       1.527   6.783  20.652  0.00  0.00    +0.000 A 
ATOM     26  C   UNL     1       1.964   5.473  20.479  0.00  0.00    +0.000 A 
ATOM     27  C   UNL     1       2.626   5.132  19.307  0.00  0.00    +0.000 A 
ATOM     28  N   UNL     1       2.842   6.011  18.294  0.00  0.00    +0.000 NA
ATOM     29  C   UNL     1       2.391   7.280  18.497  0.00  0.00    +0.000 A 
BRANCH  27  30
ATOM     30  C   UNL     1       3.150   3.780  19.134  0.00  0.00    +0.000 A 
ATOM     31  N   UNL     1       3.715   3.023  20.063  0.00  0.00    +0.000 NA
ATOM     32  C   UNL     1       4.088   1.866  19.436  0.00  0.00    +0.000 A 
ATOM     33  C   UNL     1       3.750   1.905  18.105  0.00  0.00    +0.000 A 
ATOM     34  N   UNL     1       3.146   3.119  17.930  0.00  0.00    +0.000 N 
ATOM     35  H   UNL     1       2.772   3.507  17.074  0.00  0.00    +0.000 HD
ENDBRANCH  27  30
ENDBRANCH  22  24
ENDBRANCH   6  20
TORSDOF 6
ENDMDL
