MODEL 1
REMARK VINA RESULT:      -8.6      0.000      0.000
REMARK  Name = 
REMARK  6 active torsions:
REMARK  status: ('A' for Active; 'I' for Inactive)
REMARK    1  A    between atoms: C_1  and  C_2
REMARK    2  A    between atoms: C_6  and  C_7
REMARK    3  A    between atoms: C_10  and  N_11
REMARK    4  A    between atoms: C_12  and  C_14
REMARK    5  A    between atoms: C_14  and  C_15
REMARK    6  A    between atoms: C_15  and  N_16
REMARK                            x       y       z     vdW  Elec       q    Type
REMARK                         _______ _______ _______ _____ _____    ______ ____
ROOT
ATOM      1  N   UNL     1       8.506  10.747  17.724  0.00  0.00    +0.000 N 
ATOM      2  C   UNL     1       8.445   9.469  18.241  0.00  0.00    +0.000 C 
ATOM      3  O   UNL     1       9.152   9.070  19.162  0.00  0.00    +0.000 OA
ATOM      4  H   UNL     1       7.848  11.019  17.005  0.00  0.00    +0.000 HD
ENDROOT
BRANCH   1  14
ATOM      5  C   UNL     1       9.767  13.059  21.961  0.00  0.00    +0.000 C 
ATOM      6  C   UNL     1      10.042  12.968  20.456  0.00  0.00    +0.000 C 
ATOM      7  C   UNL     1      11.502  12.532  20.202  0.00  0.00    +0.000 C 
ATOM      8  C   UNL     1      11.790  12.452  18.694  0.00  0.00    +0.000 C 
ATOM      9  C   UNL     1      11.529  13.813  18.039  0.00  0.00    +0.000 C 
ATOM     10  C   UNL     1      10.060  14.237  18.254  0.00  0.00    +0.000 C 
ATOM     11  C   UNL     1       9.815  15.600  17.599  0.00  0.00    +0.000 C 
ATOM     12  C   UNL     1       9.797  14.331  19.776  0.00  0.00    +0.000 C 
ATOM     13  C   UNL     1       9.127  13.155  17.644  0.00  0.00    +0.000 C 
ATOM     14  C   UNL     1       9.382  11.772  18.305  0.00  0.00    +0.000 C 
ATOM     15  C   UNL     1      10.868  11.409  18.062  0.00  0.00    +0.000 C 
ATOM     16  C   UNL     1       9.099  11.930  19.819  0.00  0.00    +0.000 C 
ENDBRANCH   1  14
BRANCH   2  17
ATOM     17  C   UNL     1       7.466   8.553  17.561  0.00  0.00    +0.000 C 
BRANCH  17  18
ATOM     18  C   UNL     1       7.822   7.121  17.950  0.00  0.00    +0.000 C 
BRANCH  18  19
ATOM     19  N   UNL     1       6.660   6.269  18.026  0.00  0.00    +0.000 N 
ATOM     20  S   UNL     1       5.383   6.453  16.900  0.00  0.00    +0.000 S 
ATOM     21  C   UNL     1       4.461   5.191  17.722  0.00  0.00    +0.000 A 
ATOM     22  C   UNL     1       3.212   4.706  17.380  0.00  0.00    +0.000 A 
ATOM     23  C   UNL     1       2.650   3.700  18.170  0.00  0.00    +0.000 A 
ATOM     24  C   UNL     1       3.347   3.187  19.281  0.00  0.00    +0.000 A 
ATOM     25  C   UNL     1       4.605   3.685  19.621  0.00  0.00    +0.000 A 
ATOM     26  C   UNL     1       5.142   4.685  18.828  0.00  0.00    +0.000 A 
ATOM     27  C   UNL     1       6.445   5.348  19.030  0.00  0.00    +0.000 A 
ATOM     28  O   UNL     1       7.180   5.097  19.971  0.00  0.00    +0.000 OA
ENDBRANCH  18  19
ENDBRANCH  17  18
ENDBRANCH   2  17
TORSDOF 4
ENDMDL
MODEL 2
REMARK VINA RESULT:      -8.4      6.963     10.023
REMARK  Name = 
REMARK  6 active torsions:
REMARK  status: ('A' for Active; 'I' for Inactive)
REMARK    1  A    between atoms: C_1  and  C_2
REMARK    2  A    between atoms: C_6  and  C_7
REMARK    3  A    between atoms: C_10  and  N_11
REMARK    4  A    between atoms: C_12  and  C_14
REMARK    5  A    between atoms: C_14  and  C_15
REMARK    6  A    between atoms: C_15  and  N_16
REMARK                            x       y       z     vdW  Elec       q    Type
REMARK                         _______ _______ _______ _____ _____    ______ ____
ROOT
ATOM      1  N   UNL     1       2.895   7.283  18.360  0.00  0.00    +0.000 N 
ATOM      2  C   UNL     1       2.123   7.474  19.489  0.00  0.00    +0.000 C 
ATOM      3  O   UNL     1       1.952   6.619  20.353  0.00  0.00    +0.000 OA
ATOM      4  H   UNL     1       3.035   8.056  17.724  0.00  0.00    +0.000 HD
ENDROOT
BRANCH   1  14
ATOM      5  C   UNL     1       6.251   5.054  15.419  0.00  0.00    +0.000 C 
ATOM      6  C   UNL     1       5.365   4.884  16.657  0.00  0.00    +0.000 C 
ATOM      7  C   UNL     1       6.234   4.646  17.911  0.00  0.00    +0.000 C 
ATOM      8  C   UNL     1       5.352   4.460  19.156  0.00  0.00    +0.000 C 
ATOM      9  C   UNL     1       4.398   3.279  18.949  0.00  0.00    +0.000 C 
ATOM     10  C   UNL     1       3.496   3.528  17.720  0.00  0.00    +0.000 C 
ATOM     11  C   UNL     1       2.552   2.338  17.522  0.00  0.00    +0.000 C 
ATOM     12  C   UNL     1       4.402   3.691  16.476  0.00  0.00    +0.000 C 
ATOM     13  C   UNL     1       2.693   4.839  17.939  0.00  0.00    +0.000 C 
ATOM     14  C   UNL     1       3.652   6.044  18.146  0.00  0.00    +0.000 C 
ATOM     15  C   UNL     1       4.530   5.730  19.382  0.00  0.00    +0.000 C 
ATOM     16  C   UNL     1       4.526   6.158  16.872  0.00  0.00    +0.000 C 
ENDBRANCH   1  14
BRANCH   2  17
ATOM     17  C   UNL     1       1.447   8.814  19.578  0.00  0.00    +0.000 C 
BRANCH  17  18
ATOM     18  C   UNL     1       1.172   9.097  21.053  0.00  0.00    +0.000 C 
BRANCH  18  19
ATOM     19  N   UNL     1       0.122  10.069  21.236  0.00  0.00    +0.000 N 
ATOM     20  S   UNL     1      -0.518  10.910  19.888  0.00  0.00    +0.000 S 
ATOM     21  C   UNL     1      -1.571  11.843  20.957  0.00  0.00    +0.000 A 
ATOM     22  C   UNL     1      -2.486  12.815  20.594  0.00  0.00    +0.000 A 
ATOM     23  C   UNL     1      -3.223  13.442  21.600  0.00  0.00    +0.000 A 
ATOM     24  C   UNL     1      -3.044  13.085  22.950  0.00  0.00    +0.000 A 
ATOM     25  C   UNL     1      -2.115  12.106  23.308  0.00  0.00    +0.000 A 
ATOM     26  C   UNL     1      -1.392  11.500  22.296  0.00  0.00    +0.000 A 
ATOM     27  C   UNL     1      -0.359  10.460  22.469  0.00  0.00    +0.000 A 
ATOM     28  O   UNL     1      -0.005  10.051  23.563  0.00  0.00    +0.000 OA
ENDBRANCH  18  19
ENDBRANCH  17  18
ENDBRANCH   2  17
TORSDOF 4
ENDMDL
MODEL 3
REMARK VINA RESULT:      -8.4      7.005     10.156
REMARK  Name = 
REMARK  6 active torsions:
REMARK  status: ('A' for Active; 'I' for Inactive)
REMARK    1  A    between atoms: C_1  and  C_2
REMARK    2  A    between atoms: C_6  and  C_7
REMARK    3  A    between atoms: C_10  and  N_11
REMARK    4  A    between atoms: C_12  and  C_14
REMARK    5  A    between atoms: C_14  and  C_15
REMARK    6  A    between atoms: C_15  and  N_16
REMARK                            x       y       z     vdW  Elec       q    Type
REMARK                         _______ _______ _______ _____ _____    ______ ____
ROOT
ATOM      1  N   UNL     1       2.068   7.492  19.052  0.00  0.00    +0.000 N 
ATOM      2  C   UNL     1       2.349   8.358  18.015  0.00  0.00    +0.000 C 
ATOM      3  O   UNL     1       2.956   8.035  16.998  0.00  0.00    +0.000 OA
ATOM      4  H   UNL     1       1.511   7.819  19.830  0.00  0.00    +0.000 HD
ENDROOT
BRANCH   1  14
ATOM      5  C   UNL     1       2.044   3.192  21.581  0.00  0.00    +0.000 C 
ATOM      6  C   UNL     1       2.410   3.858  20.251  0.00  0.00    +0.000 C 
ATOM      7  C   UNL     1       1.590   3.240  19.097  0.00  0.00    +0.000 C 
ATOM      8  C   UNL     1       1.961   3.894  17.756  0.00  0.00    +0.000 C 
ATOM      9  C   UNL     1       3.459   3.717  17.486  0.00  0.00    +0.000 C 
ATOM     10  C   UNL     1       4.287   4.368  18.615  0.00  0.00    +0.000 C 
ATOM     11  C   UNL     1       5.781   4.179  18.334  0.00  0.00    +0.000 C 
ATOM     12  C   UNL     1       3.913   3.683  19.951  0.00  0.00    +0.000 C 
ATOM     13  C   UNL     1       3.928   5.876  18.700  0.00  0.00    +0.000 C 
ATOM     14  C   UNL     1       2.411   6.066  18.978  0.00  0.00    +0.000 C 
ATOM     15  C   UNL     1       1.639   5.387  17.820  0.00  0.00    +0.000 C 
ATOM     16  C   UNL     1       2.101   5.365  20.324  0.00  0.00    +0.000 C 
ENDBRANCH   1  14
BRANCH   2  17
ATOM     17  C   UNL     1       1.893   9.775  18.228  0.00  0.00    +0.000 C 
BRANCH  17  18
ATOM     18  C   UNL     1       0.373   9.798  18.098  0.00  0.00    +0.000 C 
BRANCH  18  19
ATOM     19  N   UNL     1      -0.256  10.550  19.157  0.00  0.00    +0.000 N 
ATOM     20  S   UNL     1      -0.988  12.062  18.821  0.00  0.00    +0.000 S 
ATOM     21  C   UNL     1      -1.375  12.267  20.533  0.00  0.00    +0.000 A 
ATOM     22  C   UNL     1      -2.037  13.329  21.122  0.00  0.00    +0.000 A 
ATOM     23  C   UNL     1      -2.241  13.301  22.503  0.00  0.00    +0.000 A 
ATOM     24  C   UNL     1      -1.791  12.211  23.273  0.00  0.00    +0.000 A 
ATOM     25  C   UNL     1      -1.120  11.146  22.670  0.00  0.00    +0.000 A 
ATOM     26  C   UNL     1      -0.924  11.196  21.301  0.00  0.00    +0.000 A 
ATOM     27  C   UNL     1      -0.228  10.181  20.486  0.00  0.00    +0.000 A 
ATOM     28  O   UNL     1       0.292   9.187  20.965  0.00  0.00    +0.000 OA
ENDBRANCH  18  19
ENDBRANCH  17  18
ENDBRANCH   2  17
TORSDOF 4
ENDMDL
MODEL 4
REMARK VINA RESULT:      -8.4      1.553      2.259
REMARK  Name = 
REMARK  6 active torsions:
REMARK  status: ('A' for Active; 'I' for Inactive)
REMARK    1  A    between atoms: C_1  and  C_2
REMARK    2  A    between atoms: C_6  and  C_7
REMARK    3  A    between atoms: C_10  and  N_11
REMARK    4  A    between atoms: C_12  and  C_14
REMARK    5  A    between atoms: C_14  and  C_15
REMARK    6  A    between atoms: C_15  and  N_16
REMARK                            x       y       z     vdW  Elec       q    Type
REMARK                         _______ _______ _______ _____ _____    ______ ____
ROOT
ATOM      1  N   UNL     1       9.492   9.960  19.212  0.00  0.00    +0.000 N 
ATOM      2  C   UNL     1       8.590   9.455  18.296  0.00  0.00    +0.000 C 
ATOM      3  O   UNL     1       8.039  10.133  17.433  0.00  0.00    +0.000 OA
ATOM      4  H   UNL     1       9.949   9.326  19.853  0.00  0.00    +0.000 HD
ENDROOT
BRANCH   1  14
ATOM      5  C   UNL     1       7.914  14.688  19.006  0.00  0.00    +0.000 C 
ATOM      6  C   UNL     1       9.150  13.784  19.061  0.00  0.00    +0.000 C 
ATOM      7  C   UNL     1       9.960  14.058  20.348  0.00  0.00    +0.000 C 
ATOM      8  C   UNL     1      11.208  13.164  20.405  0.00  0.00    +0.000 C 
ATOM      9  C   UNL     1      12.085  13.411  19.172  0.00  0.00    +0.000 C 
ATOM     10  C   UNL     1      11.295  13.099  17.882  0.00  0.00    +0.000 C 
ATOM     11  C   UNL     1      12.181  13.355  16.659  0.00  0.00    +0.000 C 
ATOM     12  C   UNL     1      10.055  14.023  17.835  0.00  0.00    +0.000 C 
ATOM     13  C   UNL     1      10.825  11.620  17.923  0.00  0.00    +0.000 C 
ATOM     14  C   UNL     1       9.931  11.360  19.168  0.00  0.00    +0.000 C 
ATOM     15  C   UNL     1      10.775  11.698  20.422  0.00  0.00    +0.000 C 
ATOM     16  C   UNL     1       8.711  12.307  19.061  0.00  0.00    +0.000 C 
ENDBRANCH   1  14
BRANCH   2  17
ATOM     17  C   UNL     1       8.278   7.993  18.450  0.00  0.00    +0.000 C 
BRANCH  17  18
ATOM     18  C   UNL     1       7.473   7.559  17.229  0.00  0.00    +0.000 C 
BRANCH  18  19
ATOM     19  N   UNL     1       6.563   6.480  17.528  0.00  0.00    +0.000 N 
ATOM     20  S   UNL     1       6.674   5.651  19.023  0.00  0.00    +0.000 S 
ATOM     21  C   UNL     1       5.371   4.564  18.529  0.00  0.00    +0.000 A 
ATOM     22  C   UNL     1       4.820   3.528  19.260  0.00  0.00    +0.000 A 
ATOM     23  C   UNL     1       3.792   2.780  18.683  0.00  0.00    +0.000 A 
ATOM     24  C   UNL     1       3.323   3.083  17.390  0.00  0.00    +0.000 A 
ATOM     25  C   UNL     1       3.887   4.129  16.658  0.00  0.00    +0.000 A 
ATOM     26  C   UNL     1       4.908   4.855  17.247  0.00  0.00    +0.000 A 
ATOM     27  C   UNL     1       5.638   5.981  16.634  0.00  0.00    +0.000 A 
ATOM     28  O   UNL     1       5.431   6.366  15.495  0.00  0.00    +0.000 OA
ENDBRANCH  18  19
ENDBRANCH  17  18
ENDBRANCH   2  17
TORSDOF 4
ENDMDL
MODEL 5
REMARK VINA RESULT:      -8.4      6.917     10.303
REMARK  Name = 
REMARK  6 active torsions:
REMARK  status: ('A' for Active; 'I' for Inactive)
REMARK    1  A    between atoms: C_1  and  C_2
REMARK    2  A    between atoms: C_6  and  C_7
REMARK    3  A    between atoms: C_10  and  N_11
REMARK    4  A    between atoms: C_12  and  C_14
REMARK    5  A    between atoms: C_14  and  C_15
REMARK    6  A    between atoms: C_15  and  N_16
REMARK                            x       y       z     vdW  Elec       q    Type
REMARK                         _______ _______ _______ _____ _____    ______ ____
ROOT
ATOM      1  N   UNL     1       2.173   7.397  19.048  0.00  0.00    +0.000 N 
ATOM      2  C   UNL     1       2.423   8.292  18.027  0.00  0.00    +0.000 C 
ATOM      3  O   UNL     1       3.003   7.998  16.986  0.00  0.00    +0.000 OA
ATOM      4  H   UNL     1       1.636   7.701  19.849  0.00  0.00    +0.000 HD
ENDROOT
BRANCH   1  14
ATOM      5  C   UNL     1       2.296   3.045  21.483  0.00  0.00    +0.000 C 
ATOM      6  C   UNL     1       2.591   3.741  20.150  0.00  0.00    +0.000 C 
ATOM      7  C   UNL     1       1.716   3.143  19.026  0.00  0.00    +0.000 C 
ATOM      8  C   UNL     1       2.016   3.826  17.683  0.00  0.00    +0.000 C 
ATOM      9  C   UNL     1       3.500   3.663  17.334  0.00  0.00    +0.000 C 
ATOM     10  C   UNL     1       4.381   4.295  18.433  0.00  0.00    +0.000 C 
ATOM     11  C   UNL     1       5.860   4.121  18.073  0.00  0.00    +0.000 C 
ATOM     12  C   UNL     1       4.078   3.580  19.771  0.00  0.00    +0.000 C 
ATOM     13  C   UNL     1       4.020   5.799  18.568  0.00  0.00    +0.000 C 
ATOM     14  C   UNL     1       2.518   5.975  18.926  0.00  0.00    +0.000 C 
ATOM     15  C   UNL     1       1.691   5.316  17.794  0.00  0.00    +0.000 C 
ATOM     16  C   UNL     1       2.280   5.244  20.271  0.00  0.00    +0.000 C 
ENDBRANCH   1  14
BRANCH   2  17
ATOM     17  C   UNL     1       1.969   9.701  18.291  0.00  0.00    +0.000 C 
BRANCH  17  18
ATOM     18  C   UNL     1       0.446   9.721  18.203  0.00  0.00    +0.000 C 
BRANCH  18  19
ATOM     19  N   UNL     1      -0.157  10.407  19.320  0.00  0.00    +0.000 N 
ATOM     20  S   UNL     1       0.185   9.909  20.923  0.00  0.00    +0.000 S 
ATOM     21  C   UNL     1      -0.932  11.125  21.551  0.00  0.00    +0.000 A 
ATOM     22  C   UNL     1      -1.230  11.385  22.877  0.00  0.00    +0.000 A 
ATOM     23  C   UNL     1      -2.151  12.394  23.165  0.00  0.00    +0.000 A 
ATOM     24  C   UNL     1      -2.752  13.134  22.128  0.00  0.00    +0.000 A 
ATOM     25  C   UNL     1      -2.449  12.862  20.794  0.00  0.00    +0.000 A 
ATOM     26  C   UNL     1      -1.537  11.854  20.530  0.00  0.00    +0.000 A 
ATOM     27  C   UNL     1      -1.098  11.408  19.193  0.00  0.00    +0.000 A 
ATOM     28  O   UNL     1      -1.544  11.875  18.157  0.00  0.00    +0.000 OA
ENDBRANCH  18  19
ENDBRANCH  17  18
ENDBRANCH   2  17
TORSDOF 4
ENDMDL
MODEL 6
REMARK VINA RESULT:      -8.3      7.045     10.244
REMARK  Name = 
REMARK  6 active torsions:
REMARK  status: ('A' for Active; 'I' for Inactive)
REMARK    1  A    between atoms: C_1  and  C_2
REMARK    2  A    between atoms: C_6  and  C_7
REMARK    3  A    between atoms: C_10  and  N_11
REMARK    4  A    between atoms: C_12  and  C_14
REMARK    5  A    between atoms: C_14  and  C_15
REMARK    6  A    between atoms: C_15  and  N_16
REMARK                            x       y       z     vdW  Elec       q    Type
REMARK                         _______ _______ _______ _____ _____    ______ ____
ROOT
ATOM      1  N   UNL     1       1.992   7.099  19.329  0.00  0.00    +0.000 N 
ATOM      2  C   UNL     1       2.173   8.149  18.452  0.00  0.00    +0.000 C 
ATOM      3  O   UNL     1       2.859   8.082  17.436  0.00  0.00    +0.000 OA
ATOM      4  H   UNL     1       1.363   7.215  20.113  0.00  0.00    +0.000 HD
ENDROOT
BRANCH   1  14
ATOM      5  C   UNL     1       2.770   2.576  21.284  0.00  0.00    +0.000 C 
ATOM      6  C   UNL     1       2.962   3.451  20.041  0.00  0.00    +0.000 C 
ATOM      7  C   UNL     1       2.196   2.853  18.840  0.00  0.00    +0.000 C 
ATOM      8  C   UNL     1       2.395   3.718  17.584  0.00  0.00    +0.000 C 
ATOM      9  C   UNL     1       3.888   3.823  17.253  0.00  0.00    +0.000 C 
ATOM     10  C   UNL     1       4.655   4.457  18.434  0.00  0.00    +0.000 C 
ATOM     11  C   UNL     1       6.145   4.551  18.091  0.00  0.00    +0.000 C 
ATOM     12  C   UNL     1       4.458   3.562  19.680  0.00  0.00    +0.000 C 
ATOM     13  C   UNL     1       4.065   5.865  18.722  0.00  0.00    +0.000 C 
ATOM     14  C   UNL     1       2.552   5.768  19.063  0.00  0.00    +0.000 C 
ATOM     15  C   UNL     1       1.844   5.120  17.849  0.00  0.00    +0.000 C 
ATOM     16  C   UNL     1       2.422   4.867  20.316  0.00  0.00    +0.000 C 
ENDBRANCH   1  14
BRANCH   2  17
ATOM     17  C   UNL     1       1.497   9.433  18.847  0.00  0.00    +0.000 C 
BRANCH  17  18
ATOM     18  C   UNL     1       1.247   9.381  20.352  0.00  0.00    +0.000 C 
BRANCH  18  19
ATOM     19  N   UNL     1       0.168  10.249  20.758  0.00  0.00    +0.000 N 
ATOM     20  S   UNL     1      -0.712  11.133  19.584  0.00  0.00    +0.000 S 
ATOM     21  C   UNL     1      -1.665  11.899  20.860  0.00  0.00    +0.000 A 
ATOM     22  C   UNL     1      -2.687  12.818  20.708  0.00  0.00    +0.000 A 
ATOM     23  C   UNL     1      -3.316  13.309  21.854  0.00  0.00    +0.000 A 
ATOM     24  C   UNL     1      -2.923  12.868  23.132  0.00  0.00    +0.000 A 
ATOM     25  C   UNL     1      -1.888  11.943  23.277  0.00  0.00    +0.000 A 
ATOM     26  C   UNL     1      -1.275  11.473  22.129  0.00  0.00    +0.000 A 
ATOM     27  C   UNL     1      -0.159  10.509  22.073  0.00  0.00    +0.000 A 
ATOM     28  O   UNL     1       0.374  10.050  23.070  0.00  0.00    +0.000 OA
ENDBRANCH  18  19
ENDBRANCH  17  18
ENDBRANCH   2  17
TORSDOF 4
ENDMDL
MODEL 7
REMARK VINA RESULT:      -8.2      1.197      1.530
REMARK  Name = 
REMARK  6 active torsions:
REMARK  status: ('A' for Active; 'I' for Inactive)
REMARK    1  A    between atoms: C_1  and  C_2
REMARK    2  A    between atoms: C_6  and  C_7
REMARK    3  A    between atoms: C_10  and  N_11
REMARK    4  A    between atoms: C_12  and  C_14
REMARK    5  A    between atoms: C_14  and  C_15
REMARK    6  A    between atoms: C_15  and  N_16
REMARK                            x       y       z     vdW  Elec       q    Type
REMARK                         _______ _______ _______ _____ _____    ______ ____
ROOT
ATOM      1  N   UNL     1       8.490  10.766  17.697  0.00  0.00    +0.000 N 
ATOM      2  C   UNL     1       8.357   9.486  18.199  0.00  0.00    +0.000 C 
ATOM      3  O   UNL     1       9.040   9.036  19.114  0.00  0.00    +0.000 OA
ATOM      4  H   UNL     1       7.849  11.083  16.982  0.00  0.00    +0.000 HD
ENDROOT
BRANCH   1  14
ATOM      5  C   UNL     1       9.795  13.050  21.935  0.00  0.00    +0.000 C 
ATOM      6  C   UNL     1      10.108  12.912  20.442  0.00  0.00    +0.000 C 
ATOM      7  C   UNL     1      11.537  12.363  20.240  0.00  0.00    +0.000 C 
ATOM      8  C   UNL     1      11.864  12.235  18.744  0.00  0.00    +0.000 C 
ATOM      9  C   UNL     1      11.727  13.600  18.060  0.00  0.00    +0.000 C 
ATOM     10  C   UNL     1      10.288  14.137  18.222  0.00  0.00    +0.000 C 
ATOM     11  C   UNL     1      10.167  15.502  17.538  0.00  0.00    +0.000 C 
ATOM     12  C   UNL     1       9.987  14.277  19.733  0.00  0.00    +0.000 C 
ATOM     13  C   UNL     1       9.295  13.118  17.599  0.00  0.00    +0.000 C 
ATOM     14  C   UNL     1       9.423  11.732  18.289  0.00  0.00    +0.000 C 
ATOM     15  C   UNL     1      10.884  11.253  18.099  0.00  0.00    +0.000 C 
ATOM     16  C   UNL     1       9.108  11.937  19.792  0.00  0.00    +0.000 C 
ENDBRANCH   1  14
BRANCH   2  17
ATOM     17  C   UNL     1       7.327   8.636  17.509  0.00  0.00    +0.000 C 
BRANCH  17  18
ATOM     18  C   UNL     1       7.855   7.205  17.471  0.00  0.00    +0.000 C 
BRANCH  18  19
ATOM     19  N   UNL     1       6.819   6.233  17.719  0.00  0.00    +0.000 N 
ATOM     20  S   UNL     1       6.710   5.462  19.245  0.00  0.00    +0.000 S 
ATOM     21  C   UNL     1       5.356   4.485  18.667  0.00  0.00    +0.000 A 
ATOM     22  C   UNL     1       4.640   3.538  19.377  0.00  0.00    +0.000 A 
ATOM     23  C   UNL     1       3.600   2.868  18.730  0.00  0.00    +0.000 A 
ATOM     24  C   UNL     1       3.284   3.159  17.389  0.00  0.00    +0.000 A 
ATOM     25  C   UNL     1       4.013   4.113  16.679  0.00  0.00    +0.000 A 
ATOM     26  C   UNL     1       5.043   4.762  17.337  0.00  0.00    +0.000 A 
ATOM     27  C   UNL     1       5.935   5.786  16.758  0.00  0.00    +0.000 A 
ATOM     28  O   UNL     1       5.872   6.140  15.593  0.00  0.00    +0.000 OA
ENDBRANCH  18  19
ENDBRANCH  17  18
ENDBRANCH   2  17
TORSDOF 4
ENDMDL
MODEL 8
REMARK VINA RESULT:      -8.2      7.096     10.408
REMARK  Name = 
REMARK  6 active torsions:
REMARK  status: ('A' for Active; 'I' for Inactive)
REMARK    1  A    between atoms: C_1  and  C_2
REMARK    2  A    between atoms: C_6  and  C_7
REMARK    3  A    between atoms: C_10  and  N_11
REMARK    4  A    between atoms: C_12  and  C_14
REMARK    5  A    between atoms: C_14  and  C_15
REMARK    6  A    between atoms: C_15  and  N_16
REMARK                            x       y       z     vdW  Elec       q    Type
REMARK                         _______ _______ _______ _____ _____    ______ ____
ROOT
ATOM      1  N   UNL     1       2.092   7.040  19.563  0.00  0.00    +0.000 N 
ATOM      2  C   UNL     1       2.123   8.098  18.676  0.00  0.00    +0.000 C 
ATOM      3  O   UNL     1       2.636   8.041  17.562  0.00  0.00    +0.000 OA
ATOM      4  H   UNL     1       1.597   7.147  20.439  0.00  0.00    +0.000 HD
ENDROOT
BRANCH   1  14
ATOM      5  C   UNL     1       2.855   2.402  21.233  0.00  0.00    +0.000 C 
ATOM      6  C   UNL     1       3.010   3.339  20.031  0.00  0.00    +0.000 C 
ATOM      7  C   UNL     1       2.176   2.825  18.837  0.00  0.00    +0.000 C 
ATOM      8  C   UNL     1       2.336   3.752  17.622  0.00  0.00    +0.000 C 
ATOM      9  C   UNL     1       3.813   3.845  17.226  0.00  0.00    +0.000 C 
ATOM     10  C   UNL     1       4.649   4.398  18.401  0.00  0.00    +0.000 C 
ATOM     11  C   UNL     1       6.123   4.480  17.993  0.00  0.00    +0.000 C 
ATOM     12  C   UNL     1       4.490   3.439  19.606  0.00  0.00    +0.000 C 
ATOM     13  C   UNL     1       4.106   5.799  18.792  0.00  0.00    +0.000 C 
ATOM     14  C   UNL     1       2.608   5.715  19.200  0.00  0.00    +0.000 C 
ATOM     15  C   UNL     1       1.829   5.149  17.987  0.00  0.00    +0.000 C 
ATOM     16  C   UNL     1       2.516   4.749  20.407  0.00  0.00    +0.000 C 
ENDBRANCH   1  14
BRANCH   2  17
ATOM     17  C   UNL     1       1.513   9.374  19.186  0.00  0.00    +0.000 C 
BRANCH  17  18
ATOM     18  C   UNL     1       0.787  10.040  18.021  0.00  0.00    +0.000 C 
BRANCH  18  19
ATOM     19  N   UNL     1      -0.430  10.693  18.436  0.00  0.00    +0.000 N 
ATOM     20  S   UNL     1      -0.449  11.658  19.851  0.00  0.00    +0.000 S 
ATOM     21  C   UNL     1      -2.179  11.949  19.643  0.00  0.00    +0.000 A 
ATOM     22  C   UNL     1      -3.004  12.714  20.447  0.00  0.00    +0.000 A 
ATOM     23  C   UNL     1      -4.355  12.814  20.109  0.00  0.00    +0.000 A 
ATOM     24  C   UNL     1      -4.860  12.157  18.970  0.00  0.00    +0.000 A 
ATOM     25  C   UNL     1      -4.021  11.384  18.167  0.00  0.00    +0.000 A 
ATOM     26  C   UNL     1      -2.687  11.294  18.522  0.00  0.00    +0.000 A 
ATOM     27  C   UNL     1      -1.649  10.518  17.814  0.00  0.00    +0.000 A 
ATOM     28  O   UNL     1      -1.888   9.827  16.838  0.00  0.00    +0.000 OA
ENDBRANCH  18  19
ENDBRANCH  17  18
ENDBRANCH   2  17
TORSDOF 4
ENDMDL
MODEL 9
REMARK VINA RESULT:      -8.1      6.468      9.653
REMARK  Name = 
REMARK  6 active torsions:
REMARK  status: ('A' for Active; 'I' for Inactive)
REMARK    1  A    between atoms: C_1  and  C_2
REMARK    2  A    between atoms: C_6  and  C_7
REMARK    3  A    between atoms: C_10  and  N_11
REMARK    4  A    between atoms: C_12  and  C_14
REMARK    5  A    between atoms: C_14  and  C_15
REMARK    6  A    between atoms: C_15  and  N_16
REMARK                            x       y       z     vdW  Elec       q    Type
REMARK                         _______ _______ _______ _____ _____    ______ ____
ROOT
ATOM      1  N   UNL     1       3.689   7.599  17.357  0.00  0.00    +0.000 N 
ATOM      2  C   UNL     1       2.693   7.976  18.234  0.00  0.00    +0.000 C 
ATOM      3  O   UNL     1       2.202   7.227  19.074  0.00  0.00    +0.000 OA
ATOM      4  H   UNL     1       4.084   8.292  16.734  0.00  0.00    +0.000 HD
ENDROOT
BRANCH   1  14
ATOM      5  C   UNL     1       6.656   4.404  14.933  0.00  0.00    +0.000 C 
ATOM      6  C   UNL     1       5.820   4.619  16.198  0.00  0.00    +0.000 C 
ATOM      7  C   UNL     1       6.722   4.583  17.451  0.00  0.00    +0.000 C 
ATOM      8  C   UNL     1       5.889   4.785  18.727  0.00  0.00    +0.000 C 
ATOM      9  C   UNL     1       4.813   3.698  18.826  0.00  0.00    +0.000 C 
ATOM     10  C   UNL     1       3.880   3.755  17.596  0.00  0.00    +0.000 C 
ATOM     11  C   UNL     1       2.814   2.661  17.706  0.00  0.00    +0.000 C 
ATOM     12  C   UNL     1       4.735   3.530  16.326  0.00  0.00    +0.000 C 
ATOM     13  C   UNL     1       3.224   5.160  17.523  0.00  0.00    +0.000 C 
ATOM     14  C   UNL     1       4.308   6.269  17.418  0.00  0.00    +0.000 C 
ATOM     15  C   UNL     1       5.211   6.155  18.671  0.00  0.00    +0.000 C 
ATOM     16  C   UNL     1       5.124   5.992  16.131  0.00  0.00    +0.000 C 
ENDBRANCH   1  14
BRANCH   2  17
ATOM     17  C   UNL     1       2.197   9.385  18.068  0.00  0.00    +0.000 C 
BRANCH  17  18
ATOM     18  C   UNL     1       0.671   9.342  18.057  0.00  0.00    +0.000 C 
BRANCH  18  19
ATOM     19  N   UNL     1       0.096  10.075  19.159  0.00  0.00    +0.000 N 
ATOM     20  S   UNL     1       0.537   9.694  20.770  0.00  0.00    +0.000 S 
ATOM     21  C   UNL     1      -0.597  10.903  21.379  0.00  0.00    +0.000 A 
ATOM     22  C   UNL     1      -0.840  11.236  22.699  0.00  0.00    +0.000 A 
ATOM     23  C   UNL     1      -1.787  12.226  22.971  0.00  0.00    +0.000 A 
ATOM     24  C   UNL     1      -2.470  12.873  21.923  0.00  0.00    +0.000 A 
ATOM     25  C   UNL     1      -2.221  12.528  20.594  0.00  0.00    +0.000 A 
ATOM     26  C   UNL     1      -1.282  11.542  20.346  0.00  0.00    +0.000 A 
ATOM     27  C   UNL     1      -0.891  11.028  19.019  0.00  0.00    +0.000 A 
ATOM     28  O   UNL     1      -1.406  11.410  17.981  0.00  0.00    +0.000 OA
ENDBRANCH  18  19
ENDBRANCH  17  18
ENDBRANCH   2  17
TORSDOF 4
ENDMDL
