MODEL 1
REMARK VINA RESULT:      -7.2      0.000      0.000
REMARK  Name = 
REMARK  18 active torsions:
REMARK  status: ('A' for Active; 'I' for Inactive)
REMARK    1  A    between atoms: C_1  and  C_2
REMARK    2  A    between atoms: C_2  and  C_3
REMARK    3  A    between atoms: C_2  and  C_4
REMARK    4  A    between atoms: C_2  and  O_5
REMARK    5  A    between atoms: O_5  and  C_6
REMARK    6  A    between atoms: N_8  and  C_9
REMARK    7  A    between atoms: C_9  and  C_10
REMARK    8  A    between atoms: C_9  and  C_22
REMARK    9  A    between atoms: C_10  and  C_11
REMARK   10  A    between atoms: C_14  and  N_15
REMARK   11  A    between atoms: N_15  and  S_16
REMARK   12  A    between atoms: S_16  and  O_19
REMARK   13  A    between atoms: C_25  and  O_26
REMARK   14  A    between atoms: O_26  and  C_27
REMARK   15  A    between atoms: C_27  and  C_29
REMARK   16  A    between atoms: C_29  and  C_30
REMARK   17  A    between atoms: C_29  and  C_31
REMARK   18  A    between atoms: C_29  and  C_32
REMARK                            x       y       z     vdW  Elec       q    Type
REMARK                         _______ _______ _______ _____ _____    ______ ____
ROOT
ATOM      1  C   UNL     1       3.184   6.174  17.571  0.00  0.00    +0.000 C 
ENDROOT
BRANCH   1   2
ATOM      2  C   UNL     1       4.509   5.528  17.218  0.00  0.00    +0.000 A 
ATOM      3  C   UNL     1       5.638   5.501  18.017  0.00  0.00    +0.000 A 
ATOM      4  S   UNL     1       6.902   4.660  17.226  0.00  0.00    +0.000 S 
ATOM      5  C   UNL     1       5.887   4.437  15.860  0.00  0.00    +0.000 A 
ATOM      6  N   UNL     1       4.656   4.874  15.998  0.00  0.00    +0.000 NA
BRANCH   5   7
ATOM      7  O   UNL     1       6.352   3.789  14.804  0.00  0.00    +0.000 OA
BRANCH   7   8
ATOM      8  C   UNL     1       6.980   4.489  13.833  0.00  0.00    +0.000 C 
ATOM      9  O   UNL     1       7.820   5.369  13.978  0.00  0.00    +0.000 OA
BRANCH   8  10
ATOM     10  C   UNL     1       6.542   3.974  12.451  0.00  0.00    +0.000 C 
ATOM     11  C   UNL     1       7.096   2.564  12.208  0.00  0.00    +0.000 C 
ATOM     12  C   UNL     1       5.005   3.924  12.388  0.00  0.00    +0.000 C 
ATOM     13  C   UNL     1       7.045   4.934  11.361  0.00  0.00    +0.000 C 
ENDBRANCH   8  10
ENDBRANCH   7   8
ENDBRANCH   5   7
ENDBRANCH   1   2
BRANCH   1  16
ATOM     14  C   UNL     1       1.681   4.509  18.533  0.00  0.00    +0.000 C 
ATOM     15  O   UNL     1       1.206   4.235  17.443  0.00  0.00    +0.000 OA
ATOM     16  N   UNL     1       2.625   5.477  18.712  0.00  0.00    +0.000 N 
ATOM     17  H   UNL     1       3.158   5.422  19.572  0.00  0.00    +0.000 HD
BRANCH  14  18
ATOM     18  O   UNL     1       1.366   3.914  19.708  0.00  0.00    +0.000 OA
BRANCH  18  20
ATOM     19  C   UNL     1       3.596   2.945  20.064  0.00  0.00    +0.000 C 
ATOM     20  C   UNL     1       2.082   2.704  20.106  0.00  0.00    +0.000 C 
ATOM     21  C   UNL     1       1.674   1.479  19.274  0.00  0.00    +0.000 C 
ATOM     22  C   UNL     1       1.682   2.430  21.567  0.00  0.00    +0.000 C 
ENDBRANCH  18  20
ENDBRANCH  14  18
ENDBRANCH   1  16
BRANCH   1  23
ATOM     23  C   UNL     1       3.359   7.685  17.814  0.00  0.00    +0.000 C 
BRANCH  23  24
ATOM     24  C   UNL     1       2.191   8.405  18.456  0.00  0.00    +0.000 A 
ATOM     25  C   UNL     1       1.901   8.178  19.811  0.00  0.00    +0.000 A 
ATOM     26  C   UNL     1       0.916   8.920  20.467  0.00  0.00    +0.000 A 
ATOM     27  C   UNL     1       0.194   9.885  19.769  0.00  0.00    +0.000 A 
ATOM     28  C   UNL     1       0.453  10.108  18.418  0.00  0.00    +0.000 A 
ATOM     29  C   UNL     1       1.448   9.374  17.765  0.00  0.00    +0.000 A 
BRANCH  27  30
ATOM     30  N   UNL     1      -0.730  10.708  20.476  0.00  0.00    +0.000 N 
ATOM     31  H   UNL     1      -1.318  11.299  19.891  0.00  0.00    +0.000 HD
BRANCH  30  32
ATOM     32  S   UNL     1      -0.098  11.644  21.727  0.00  0.00    +0.000 S 
ATOM     33  O   UNL     1      -0.217  10.929  22.976  0.00  0.00    +0.000 OA
ATOM     34  O   UNL     1       1.172  12.146  21.267  0.00  0.00    +0.000 OA
BRANCH  32  35
ATOM     35  O   UNL     1      -1.118  12.882  21.833  0.00  0.00    +0.000 OA
ATOM     36  H   UNL     1      -0.578  13.692  21.928  0.00  0.00    +0.000 HD
ENDBRANCH  32  35
ENDBRANCH  30  32
ENDBRANCH  27  30
ENDBRANCH  23  24
ENDBRANCH   1  23
TORSDOF 12
ENDMDL
MODEL 2
REMARK VINA RESULT:      -7.1      0.290      1.390
REMARK  Name = 
REMARK  18 active torsions:
REMARK  status: ('A' for Active; 'I' for Inactive)
REMARK    1  A    between atoms: C_1  and  C_2
REMARK    2  A    between atoms: C_2  and  C_3
REMARK    3  A    between atoms: C_2  and  C_4
REMARK    4  A    between atoms: C_2  and  O_5
REMARK    5  A    between atoms: O_5  and  C_6
REMARK    6  A    between atoms: N_8  and  C_9
REMARK    7  A    between atoms: C_9  and  C_10
REMARK    8  A    between atoms: C_9  and  C_22
REMARK    9  A    between atoms: C_10  and  C_11
REMARK   10  A    between atoms: C_14  and  N_15
REMARK   11  A    between atoms: N_15  and  S_16
REMARK   12  A    between atoms: S_16  and  O_19
REMARK   13  A    between atoms: C_25  and  O_26
REMARK   14  A    between atoms: O_26  and  C_27
REMARK   15  A    between atoms: C_27  and  C_29
REMARK   16  A    between atoms: C_29  and  C_30
REMARK   17  A    between atoms: C_29  and  C_31
REMARK   18  A    between atoms: C_29  and  C_32
REMARK                            x       y       z     vdW  Elec       q    Type
REMARK                         _______ _______ _______ _____ _____    ______ ____
ROOT
ATOM      1  C   UNL     1       3.246   6.147  17.434  0.00  0.00    +0.000 C 
ENDROOT
BRANCH   1   2
ATOM      2  C   UNL     1       4.554   5.457  17.100  0.00  0.00    +0.000 A 
ATOM      3  C   UNL     1       5.657   5.359  17.929  0.00  0.00    +0.000 A 
ATOM      4  S   UNL     1       6.908   4.490  17.148  0.00  0.00    +0.000 S 
ATOM      5  C   UNL     1       5.926   4.350  15.747  0.00  0.00    +0.000 A 
ATOM      6  N   UNL     1       4.710   4.834  15.864  0.00  0.00    +0.000 NA
BRANCH   5   7
ATOM      7  O   UNL     1       6.396   3.716  14.686  0.00  0.00    +0.000 OA
BRANCH   7   8
ATOM      8  C   UNL     1       7.016   4.429  13.720  0.00  0.00    +0.000 C 
ATOM      9  O   UNL     1       7.849   5.315  13.871  0.00  0.00    +0.000 OA
BRANCH   8  10
ATOM     10  C   UNL     1       6.579   3.924  12.334  0.00  0.00    +0.000 C 
ATOM     11  C   UNL     1       7.177   2.537  12.061  0.00  0.00    +0.000 C 
ATOM     12  C   UNL     1       5.044   3.823  12.287  0.00  0.00    +0.000 C 
ATOM     13  C   UNL     1       7.038   4.918  11.255  0.00  0.00    +0.000 C 
ENDBRANCH   8  10
ENDBRANCH   7   8
ENDBRANCH   5   7
ENDBRANCH   1   2
BRANCH   1  16
ATOM     14  C   UNL     1       1.732   4.558  18.505  0.00  0.00    +0.000 C 
ATOM     15  O   UNL     1       1.242   4.229  17.437  0.00  0.00    +0.000 OA
ATOM     16  N   UNL     1       2.691   5.522  18.618  0.00  0.00    +0.000 N 
ATOM     17  H   UNL     1       3.232   5.510  19.476  0.00  0.00    +0.000 HD
BRANCH  14  18
ATOM     18  O   UNL     1       1.423   4.035  19.714  0.00  0.00    +0.000 OA
BRANCH  18  20
ATOM     19  C   UNL     1       1.735   2.510  21.617  0.00  0.00    +0.000 C 
ATOM     20  C   UNL     1       2.110   2.826  20.163  0.00  0.00    +0.000 C 
ATOM     21  C   UNL     1       3.631   2.908  19.968  0.00  0.00    +0.000 C 
ATOM     22  C   UNL     1       1.587   1.682  19.276  0.00  0.00    +0.000 C 
ENDBRANCH  18  20
ENDBRANCH  14  18
ENDBRANCH   1  16
BRANCH   1  23
ATOM     23  C   UNL     1       3.453   7.664  17.594  0.00  0.00    +0.000 C 
BRANCH  23  24
ATOM     24  C   UNL     1       2.447   8.396  18.460  0.00  0.00    +0.000 A 
ATOM     25  C   UNL     1       1.708   9.456  17.912  0.00  0.00    +0.000 A 
ATOM     26  C   UNL     1       0.684  10.066  18.640  0.00  0.00    +0.000 A 
ATOM     27  C   UNL     1       0.401   9.636  19.934  0.00  0.00    +0.000 A 
ATOM     28  C   UNL     1       1.140   8.600  20.502  0.00  0.00    +0.000 A 
ATOM     29  C   UNL     1       2.157   7.981  19.768  0.00  0.00    +0.000 A 
BRANCH  27  30
ATOM     30  N   UNL     1      -0.716  10.193  20.622  0.00  0.00    +0.000 N 
ATOM     31  H   UNL     1      -1.460  10.545  20.023  0.00  0.00    +0.000 HD
BRANCH  30  32
ATOM     32  S   UNL     1      -0.374  11.352  21.797  0.00  0.00    +0.000 S 
ATOM     33  O   UNL     1       0.889  11.984  21.501  0.00  0.00    +0.000 OA
ATOM     34  O   UNL     1      -1.577  12.125  21.978  0.00  0.00    +0.000 OA
BRANCH  32  35
ATOM     35  O   UNL     1      -0.129  10.486  23.130  0.00  0.00    +0.000 OA
ATOM     36  H   UNL     1      -0.064   9.550  22.855  0.00  0.00    +0.000 HD
ENDBRANCH  32  35
ENDBRANCH  30  32
ENDBRANCH  27  30
ENDBRANCH  23  24
ENDBRANCH   1  23
TORSDOF 12
ENDMDL
MODEL 3
REMARK VINA RESULT:      -7.1      4.278     10.097
REMARK  Name = 
REMARK  18 active torsions:
REMARK  status: ('A' for Active; 'I' for Inactive)
REMARK    1  A    between atoms: C_1  and  C_2
REMARK    2  A    between atoms: C_2  and  C_3
REMARK    3  A    between atoms: C_2  and  C_4
REMARK    4  A    between atoms: C_2  and  O_5
REMARK    5  A    between atoms: O_5  and  C_6
REMARK    6  A    between atoms: N_8  and  C_9
REMARK    7  A    between atoms: C_9  and  C_10
REMARK    8  A    between atoms: C_9  and  C_22
REMARK    9  A    between atoms: C_10  and  C_11
REMARK   10  A    between atoms: C_14  and  N_15
REMARK   11  A    between atoms: N_15  and  S_16
REMARK   12  A    between atoms: S_16  and  O_19
REMARK   13  A    between atoms: C_25  and  O_26
REMARK   14  A    between atoms: O_26  and  C_27
REMARK   15  A    between atoms: C_27  and  C_29
REMARK   16  A    between atoms: C_29  and  C_30
REMARK   17  A    between atoms: C_29  and  C_31
REMARK   18  A    between atoms: C_29  and  C_32
REMARK                            x       y       z     vdW  Elec       q    Type
REMARK                         _______ _______ _______ _____ _____    ______ ____
ROOT
ATOM      1  C   UNL     1       0.895  10.752  18.710  0.00  0.00    +0.000 C 
ENDROOT
BRANCH   1   2
ATOM      2  C   UNL     1       1.632  11.990  19.180  0.00  0.00    +0.000 A 
ATOM      3  C   UNL     1       2.438  12.801  18.401  0.00  0.00    +0.000 A 
ATOM      4  S   UNL     1       3.063  14.089  19.340  0.00  0.00    +0.000 S 
ATOM      5  C   UNL     1       2.270  13.455  20.724  0.00  0.00    +0.000 A 
ATOM      6  N   UNL     1       1.512  12.405  20.504  0.00  0.00    +0.000 NA
BRANCH   5   7
ATOM      7  O   UNL     1       2.391  14.079  21.884  0.00  0.00    +0.000 OA
BRANCH   7   8
ATOM      8  C   UNL     1       1.879  15.323  22.014  0.00  0.00    +0.000 C 
ATOM      9  O   UNL     1       0.712  15.664  21.859  0.00  0.00    +0.000 OA
BRANCH   8  10
ATOM     10  C   UNL     1       2.980  16.297  22.468  0.00  0.00    +0.000 C 
ATOM     11  C   UNL     1       3.332  17.269  21.335  0.00  0.00    +0.000 C 
ATOM     12  C   UNL     1       2.480  17.104  23.680  0.00  0.00    +0.000 C 
ATOM     13  C   UNL     1       4.227  15.504  22.889  0.00  0.00    +0.000 C 
ENDBRANCH   8  10
ENDBRANCH   7   8
ENDBRANCH   5   7
ENDBRANCH   1   2
BRANCH   1  16
ATOM     14  C   UNL     1      -1.435  11.463  18.548  0.00  0.00    +0.000 C 
ATOM     15  O   UNL     1      -1.615  11.315  19.745  0.00  0.00    +0.000 OA
ATOM     16  N   UNL     1      -0.253  11.173  17.932  0.00  0.00    +0.000 N 
ATOM     17  H   UNL     1      -0.110  11.600  17.024  0.00  0.00    +0.000 HD
BRANCH  14  18
ATOM     18  O   UNL     1      -2.344  11.931  17.660  0.00  0.00    +0.000 OA
BRANCH  18  20
ATOM     19  C   UNL     1      -3.215   9.633  17.694  0.00  0.00    +0.000 C 
ATOM     20  C   UNL     1      -3.214  10.983  16.967  0.00  0.00    +0.000 C 
ATOM     21  C   UNL     1      -2.852  10.834  15.482  0.00  0.00    +0.000 C 
ATOM     22  C   UNL     1      -4.634  11.569  17.044  0.00  0.00    +0.000 C 
ENDBRANCH  18  20
ENDBRANCH  14  18
ENDBRANCH   1  16
BRANCH   1  23
ATOM     23  C   UNL     1       1.839   9.815  17.934  0.00  0.00    +0.000 C 
BRANCH  23  24
ATOM     24  C   UNL     1       2.068   8.441  18.532  0.00  0.00    +0.000 A 
ATOM     25  C   UNL     1       2.701   7.452  17.763  0.00  0.00    +0.000 A 
ATOM     26  C   UNL     1       3.044   6.219  18.323  0.00  0.00    +0.000 A 
ATOM     27  C   UNL     1       2.739   5.954  19.656  0.00  0.00    +0.000 A 
ATOM     28  C   UNL     1       2.090   6.916  20.428  0.00  0.00    +0.000 A 
ATOM     29  C   UNL     1       1.758   8.154  19.870  0.00  0.00    +0.000 A 
BRANCH  27  30
ATOM     30  N   UNL     1       3.192   4.736  20.244  0.00  0.00    +0.000 N 
ATOM     31  H   UNL     1       3.989   4.304  19.779  0.00  0.00    +0.000 HD
BRANCH  30  32
ATOM     32  S   UNL     1       2.023   3.556  20.523  0.00  0.00    +0.000 S 
ATOM     33  O   UNL     1       0.711   4.101  20.265  0.00  0.00    +0.000 OA
ATOM     34  O   UNL     1       2.481   2.357  19.867  0.00  0.00    +0.000 OA
BRANCH  32  35
ATOM     35  O   UNL     1       2.092   3.316  22.111  0.00  0.00    +0.000 OA
ATOM     36  H   UNL     1       1.849   2.383  22.272  0.00  0.00    +0.000 HD
ENDBRANCH  32  35
ENDBRANCH  30  32
ENDBRANCH  27  30
ENDBRANCH  23  24
ENDBRANCH   1  23
TORSDOF 12
ENDMDL
MODEL 4
REMARK VINA RESULT:      -6.9      4.073      9.914
REMARK  Name = 
REMARK  18 active torsions:
REMARK  status: ('A' for Active; 'I' for Inactive)
REMARK    1  A    between atoms: C_1  and  C_2
REMARK    2  A    between atoms: C_2  and  C_3
REMARK    3  A    between atoms: C_2  and  C_4
REMARK    4  A    between atoms: C_2  and  O_5
REMARK    5  A    between atoms: O_5  and  C_6
REMARK    6  A    between atoms: N_8  and  C_9
REMARK    7  A    between atoms: C_9  and  C_10
REMARK    8  A    between atoms: C_9  and  C_22
REMARK    9  A    between atoms: C_10  and  C_11
REMARK   10  A    between atoms: C_14  and  N_15
REMARK   11  A    between atoms: N_15  and  S_16
REMARK   12  A    between atoms: S_16  and  O_19
REMARK   13  A    between atoms: C_25  and  O_26
REMARK   14  A    between atoms: O_26  and  C_27
REMARK   15  A    between atoms: C_27  and  C_29
REMARK   16  A    between atoms: C_29  and  C_30
REMARK   17  A    between atoms: C_29  and  C_31
REMARK   18  A    between atoms: C_29  and  C_32
REMARK                            x       y       z     vdW  Elec       q    Type
REMARK                         _______ _______ _______ _____ _____    ______ ____
ROOT
ATOM      1  C   UNL     1       0.810  10.281  18.782  0.00  0.00    +0.000 C 
ENDROOT
BRANCH   1   2
ATOM      2  C   UNL     1       1.139  11.604  19.444  0.00  0.00    +0.000 A 
ATOM      3  C   UNL     1       1.055  11.878  20.798  0.00  0.00    +0.000 A 
ATOM      4  S   UNL     1       1.527  13.495  21.103  0.00  0.00    +0.000 S 
ATOM      5  C   UNL     1       1.757  13.738  19.420  0.00  0.00    +0.000 A 
ATOM      6  N   UNL     1       1.586  12.672  18.670  0.00  0.00    +0.000 NA
BRANCH   5   7
ATOM      7  O   UNL     1       2.159  14.920  18.983  0.00  0.00    +0.000 OA
BRANCH   7   8
ATOM      8  C   UNL     1       1.231  15.861  18.699  0.00  0.00    +0.000 C 
ATOM      9  O   UNL     1       0.015  15.715  18.660  0.00  0.00    +0.000 OA
BRANCH   8  10
ATOM     10  C   UNL     1       1.915  17.223  18.486  0.00  0.00    +0.000 C 
ATOM     11  C   UNL     1       2.869  17.526  19.649  0.00  0.00    +0.000 C 
ATOM     12  C   UNL     1       2.721  17.191  17.175  0.00  0.00    +0.000 C 
ATOM     13  C   UNL     1       0.848  18.323  18.379  0.00  0.00    +0.000 C 
ENDBRANCH   8  10
ENDBRANCH   7   8
ENDBRANCH   5   7
ENDBRANCH   1   2
BRANCH   1  16
ATOM     14  C   UNL     1      -1.398  10.998  18.023  0.00  0.00    +0.000 C 
ATOM     15  O   UNL     1      -1.793  11.160  19.166  0.00  0.00    +0.000 OA
ATOM     16  N   UNL     1      -0.153  10.527  17.726  0.00  0.00    +0.000 N 
ATOM     17  H   UNL     1       0.176  10.709  16.784  0.00  0.00    +0.000 HD
BRANCH  14  18
ATOM     18  O   UNL     1      -2.103  11.255  16.896  0.00  0.00    +0.000 OA
BRANCH  18  20
ATOM     19  C   UNL     1      -4.537  11.597  16.930  0.00  0.00    +0.000 C 
ATOM     20  C   UNL     1      -3.395  10.599  16.700  0.00  0.00    +0.000 C 
ATOM     21  C   UNL     1      -3.551   9.341  17.566  0.00  0.00    +0.000 C 
ATOM     22  C   UNL     1      -3.433  10.159  15.227  0.00  0.00    +0.000 C 
ENDBRANCH  18  20
ENDBRANCH  14  18
ENDBRANCH   1  16
BRANCH   1  23
ATOM     23  C   UNL     1       2.089   9.587  18.281  0.00  0.00    +0.000 C 
BRANCH  23  24
ATOM     24  C   UNL     1       2.205   8.101  18.559  0.00  0.00    +0.000 A 
ATOM     25  C   UNL     1       2.742   7.255  17.576  0.00  0.00    +0.000 A 
ATOM     26  C   UNL     1       2.982   5.906  17.845  0.00  0.00    +0.000 A 
ATOM     27  C   UNL     1       2.668   5.381  19.096  0.00  0.00    +0.000 A 
ATOM     28  C   UNL     1       2.113   6.202  20.077  0.00  0.00    +0.000 A 
ATOM     29  C   UNL     1       1.884   7.555  19.811  0.00  0.00    +0.000 A 
BRANCH  27  30
ATOM     30  N   UNL     1       3.020   4.032  19.392  0.00  0.00    +0.000 N 
ATOM     31  H   UNL     1       3.865   3.696  18.934  0.00  0.00    +0.000 HD
BRANCH  30  32
ATOM     32  S   UNL     1       1.806   2.879  19.198  0.00  0.00    +0.000 S 
ATOM     33  O   UNL     1       1.179   2.616  20.472  0.00  0.00    +0.000 OA
ATOM     34  O   UNL     1       1.033   3.281  18.050  0.00  0.00    +0.000 OA
BRANCH  32  35
ATOM     35  O   UNL     1       2.607   1.538  18.819  0.00  0.00    +0.000 OA
ATOM     36  H   UNL     1       2.099   0.787  19.182  0.00  0.00    +0.000 HD
ENDBRANCH  32  35
ENDBRANCH  30  32
ENDBRANCH  27  30
ENDBRANCH  23  24
ENDBRANCH   1  23
TORSDOF 12
ENDMDL
MODEL 5
REMARK VINA RESULT:      -6.9      0.395      1.151
REMARK  Name = 
REMARK  18 active torsions:
REMARK  status: ('A' for Active; 'I' for Inactive)
REMARK    1  A    between atoms: C_1  and  C_2
REMARK    2  A    between atoms: C_2  and  C_3
REMARK    3  A    between atoms: C_2  and  C_4
REMARK    4  A    between atoms: C_2  and  O_5
REMARK    5  A    between atoms: O_5  and  C_6
REMARK    6  A    between atoms: N_8  and  C_9
REMARK    7  A    between atoms: C_9  and  C_10
REMARK    8  A    between atoms: C_9  and  C_22
REMARK    9  A    between atoms: C_10  and  C_11
REMARK   10  A    between atoms: C_14  and  N_15
REMARK   11  A    between atoms: N_15  and  S_16
REMARK   12  A    between atoms: S_16  and  O_19
REMARK   13  A    between atoms: C_25  and  O_26
REMARK   14  A    between atoms: O_26  and  C_27
REMARK   15  A    between atoms: C_27  and  C_29
REMARK   16  A    between atoms: C_29  and  C_30
REMARK   17  A    between atoms: C_29  and  C_31
REMARK   18  A    between atoms: C_29  and  C_32
REMARK                            x       y       z     vdW  Elec       q    Type
REMARK                         _______ _______ _______ _____ _____    ______ ____
ROOT
ATOM      1  C   UNL     1       3.188   6.178  17.530  0.00  0.00    +0.000 C 
ENDROOT
BRANCH   1   2
ATOM      2  C   UNL     1       4.511   5.515  17.198  0.00  0.00    +0.000 A 
ATOM      3  C   UNL     1       5.622   5.460  18.021  0.00  0.00    +0.000 A 
ATOM      4  S   UNL     1       6.889   4.609  17.247  0.00  0.00    +0.000 S 
ATOM      5  C   UNL     1       5.901   4.419  15.856  0.00  0.00    +0.000 A 
ATOM      6  N   UNL     1       4.673   4.873  15.973  0.00  0.00    +0.000 NA
BRANCH   5   7
ATOM      7  O   UNL     1       6.379   3.777  14.803  0.00  0.00    +0.000 OA
BRANCH   7   8
ATOM      8  C   UNL     1       6.988   4.486  13.827  0.00  0.00    +0.000 C 
ATOM      9  O   UNL     1       7.818   5.377  13.965  0.00  0.00    +0.000 OA
BRANCH   8  10
ATOM     10  C   UNL     1       6.543   3.968  12.448  0.00  0.00    +0.000 C 
ATOM     11  C   UNL     1       5.012   3.897  12.376  0.00  0.00    +0.000 C 
ATOM     12  C   UNL     1       7.050   4.925  11.354  0.00  0.00    +0.000 C 
ATOM     13  C   UNL     1       7.148   2.577  12.201  0.00  0.00    +0.000 C 
ENDBRANCH   8  10
ENDBRANCH   7   8
ENDBRANCH   5   7
ENDBRANCH   1   2
BRANCH   1  16
ATOM     14  C   UNL     1       1.687   4.530  18.525  0.00  0.00    +0.000 C 
ATOM     15  O   UNL     1       1.228   4.218  17.439  0.00  0.00    +0.000 OA
ATOM     16  N   UNL     1       2.621   5.511  18.685  0.00  0.00    +0.000 N 
ATOM     17  H   UNL     1       3.143   5.488  19.554  0.00  0.00    +0.000 HD
BRANCH  14  18
ATOM     18  O   UNL     1       1.362   3.969  19.714  0.00  0.00    +0.000 OA
BRANCH  18  20
ATOM     19  C   UNL     1       1.698   1.594  19.176  0.00  0.00    +0.000 C 
ATOM     20  C   UNL     1       2.041   2.744  20.131  0.00  0.00    +0.000 C 
ATOM     21  C   UNL     1       1.748   2.379  21.594  0.00  0.00    +0.000 C 
ATOM     22  C   UNL     1       3.549   3.028  20.015  0.00  0.00    +0.000 C 
ENDBRANCH  18  20
ENDBRANCH  14  18
ENDBRANCH   1  16
BRANCH   1  23
ATOM     23  C   UNL     1       3.372   7.692  17.738  0.00  0.00    +0.000 C 
BRANCH  23  24
ATOM     24  C   UNL     1       2.250   8.417  18.455  0.00  0.00    +0.000 A 
ATOM     25  C   UNL     1       1.973   8.105  19.795  0.00  0.00    +0.000 A 
ATOM     26  C   UNL     1       1.036   8.841  20.523  0.00  0.00    +0.000 A 
ATOM     27  C   UNL     1       0.348   9.886  19.911  0.00  0.00    +0.000 A 
ATOM     28  C   UNL     1       0.593  10.195  18.574  0.00  0.00    +0.000 A 
ATOM     29  C   UNL     1       1.541   9.466  17.850  0.00  0.00    +0.000 A 
BRANCH  27  30
ATOM     30  N   UNL     1      -0.524  10.697  20.695  0.00  0.00    +0.000 N 
ATOM     31  H   UNL     1      -1.428  10.894  20.270  0.00  0.00    +0.000 HD
BRANCH  30  32
ATOM     32  S   UNL     1       0.119  12.137  21.289  0.00  0.00    +0.000 S 
ATOM     33  O   UNL     1      -0.462  12.433  22.577  0.00  0.00    +0.000 OA
ATOM     34  O   UNL     1       1.547  12.057  21.109  0.00  0.00    +0.000 OA
BRANCH  32  35
ATOM     35  O   UNL     1      -0.450  13.255  20.283  0.00  0.00    +0.000 OA
ATOM     36  H   UNL     1      -1.183  13.708  20.744  0.00  0.00    +0.000 HD
ENDBRANCH  32  35
ENDBRANCH  30  32
ENDBRANCH  27  30
ENDBRANCH  23  24
ENDBRANCH   1  23
TORSDOF 12
ENDMDL
MODEL 6
REMARK VINA RESULT:      -6.9      4.369      9.197
REMARK  Name = 
REMARK  18 active torsions:
REMARK  status: ('A' for Active; 'I' for Inactive)
REMARK    1  A    between atoms: C_1  and  C_2
REMARK    2  A    between atoms: C_2  and  C_3
REMARK    3  A    between atoms: C_2  and  C_4
REMARK    4  A    between atoms: C_2  and  O_5
REMARK    5  A    between atoms: O_5  and  C_6
REMARK    6  A    between atoms: N_8  and  C_9
REMARK    7  A    between atoms: C_9  and  C_10
REMARK    8  A    between atoms: C_9  and  C_22
REMARK    9  A    between atoms: C_10  and  C_11
REMARK   10  A    between atoms: C_14  and  N_15
REMARK   11  A    between atoms: N_15  and  S_16
REMARK   12  A    between atoms: S_16  and  O_19
REMARK   13  A    between atoms: C_25  and  O_26
REMARK   14  A    between atoms: O_26  and  C_27
REMARK   15  A    between atoms: C_27  and  C_29
REMARK   16  A    between atoms: C_29  and  C_30
REMARK   17  A    between atoms: C_29  and  C_31
REMARK   18  A    between atoms: C_29  and  C_32
REMARK                            x       y       z     vdW  Elec       q    Type
REMARK                         _______ _______ _______ _____ _____    ______ ____
ROOT
ATOM      1  C   UNL     1       0.940  11.095  18.724  0.00  0.00    +0.000 C 
ENDROOT
BRANCH   1   2
ATOM      2  C   UNL     1       1.673  12.367  19.099  0.00  0.00    +0.000 A 
ATOM      3  C   UNL     1       1.566  13.042  20.303  0.00  0.00    +0.000 A 
ATOM      4  S   UNL     1       2.575  14.424  20.296  0.00  0.00    +0.000 S 
ATOM      5  C   UNL     1       3.042  14.067  18.684  0.00  0.00    +0.000 A 
ATOM      6  N   UNL     1       2.559  12.947  18.195  0.00  0.00    +0.000 NA
BRANCH   5   7
ATOM      7  O   UNL     1       3.896  14.864  18.063  0.00  0.00    +0.000 OA
BRANCH   7   8
ATOM      8  C   UNL     1       5.218  14.594  18.145  0.00  0.00    +0.000 C 
ATOM      9  O   UNL     1       5.815  13.653  17.636  0.00  0.00    +0.000 OA
BRANCH   8  10
ATOM     10  C   UNL     1       5.931  15.705  18.936  0.00  0.00    +0.000 C 
ATOM     11  C   UNL     1       6.165  15.259  20.385  0.00  0.00    +0.000 C 
ATOM     12  C   UNL     1       7.291  16.006  18.281  0.00  0.00    +0.000 C 
ATOM     13  C   UNL     1       5.080  16.984  18.908  0.00  0.00    +0.000 C 
ENDBRANCH   8  10
ENDBRANCH   7   8
ENDBRANCH   5   7
ENDBRANCH   1   2
BRANCH   1  16
ATOM     14  C   UNL     1      -1.451  11.556  18.553  0.00  0.00    +0.000 C 
ATOM     15  O   UNL     1      -1.638  11.283  19.727  0.00  0.00    +0.000 OA
ATOM     16  N   UNL     1      -0.231  11.454  17.950  0.00  0.00    +0.000 N 
ATOM     17  H   UNL     1      -0.119  11.975  17.087  0.00  0.00    +0.000 HD
BRANCH  14  18
ATOM     18  O   UNL     1      -2.389  11.999  17.682  0.00  0.00    +0.000 OA
BRANCH  18  20
ATOM     19  C   UNL     1      -3.225  10.993  15.601  0.00  0.00    +0.000 C 
ATOM     20  C   UNL     1      -3.350  11.048  17.128  0.00  0.00    +0.000 C 
ATOM     21  C   UNL     1      -4.790  11.343  17.575  0.00  0.00    +0.000 C 
ATOM     22  C   UNL     1      -2.961   9.669  17.689  0.00  0.00    +0.000 C 
ENDBRANCH  18  20
ENDBRANCH  14  18
ENDBRANCH   1  16
BRANCH   1  23
ATOM     23  C   UNL     1       1.877  10.123  17.982  0.00  0.00    +0.000 C 
BRANCH  23  24
ATOM     24  C   UNL     1       2.046   8.747  18.596  0.00  0.00    +0.000 A 
ATOM     25  C   UNL     1       2.810   7.781  17.923  0.00  0.00    +0.000 A 
ATOM     26  C   UNL     1       3.094   6.550  18.518  0.00  0.00    +0.000 A 
ATOM     27  C   UNL     1       2.598   6.262  19.787  0.00  0.00    +0.000 A 
ATOM     28  C   UNL     1       1.819   7.201  20.461  0.00  0.00    +0.000 A 
ATOM     29  C   UNL     1       1.545   8.438  19.870  0.00  0.00    +0.000 A 
BRANCH  27  30
ATOM     30  N   UNL     1       2.986   5.048  20.426  0.00  0.00    +0.000 N 
ATOM     31  H   UNL     1       3.975   4.816  20.346  0.00  0.00    +0.000 HD
BRANCH  30  32
ATOM     32  S   UNL     1       2.077   3.679  20.054  0.00  0.00    +0.000 S 
ATOM     33  O   UNL     1       0.673   3.966  20.230  0.00  0.00    +0.000 OA
ATOM     34  O   UNL     1       2.589   3.169  18.806  0.00  0.00    +0.000 OA
BRANCH  32  35
ATOM     35  O   UNL     1       2.461   2.636  21.216  0.00  0.00    +0.000 OA
ATOM     36  H   UNL     1       2.113   1.764  20.944  0.00  0.00    +0.000 HD
ENDBRANCH  32  35
ENDBRANCH  30  32
ENDBRANCH  27  30
ENDBRANCH  23  24
ENDBRANCH   1  23
TORSDOF 12
ENDMDL
MODEL 7
REMARK VINA RESULT:      -6.9      4.247      7.412
REMARK  Name = 
REMARK  18 active torsions:
REMARK  status: ('A' for Active; 'I' for Inactive)
REMARK    1  A    between atoms: C_1  and  C_2
REMARK    2  A    between atoms: C_2  and  C_3
REMARK    3  A    between atoms: C_2  and  C_4
REMARK    4  A    between atoms: C_2  and  O_5
REMARK    5  A    between atoms: O_5  and  C_6
REMARK    6  A    between atoms: N_8  and  C_9
REMARK    7  A    between atoms: C_9  and  C_10
REMARK    8  A    between atoms: C_9  and  C_22
REMARK    9  A    between atoms: C_10  and  C_11
REMARK   10  A    between atoms: C_14  and  N_15
REMARK   11  A    between atoms: N_15  and  S_16
REMARK   12  A    between atoms: S_16  and  O_19
REMARK   13  A    between atoms: C_25  and  O_26
REMARK   14  A    between atoms: O_26  and  C_27
REMARK   15  A    between atoms: C_27  and  C_29
REMARK   16  A    between atoms: C_29  and  C_30
REMARK   17  A    between atoms: C_29  and  C_31
REMARK   18  A    between atoms: C_29  and  C_32
REMARK                            x       y       z     vdW  Elec       q    Type
REMARK                         _______ _______ _______ _____ _____    ______ ____
ROOT
ATOM      1  C   UNL     1       0.103  10.707  19.722  0.00  0.00    +0.000 C 
ENDROOT
BRANCH   1   2
ATOM      2  C   UNL     1       1.029   9.606  19.247  0.00  0.00    +0.000 A 
ATOM      3  C   UNL     1       1.637   9.533  18.006  0.00  0.00    +0.000 A 
ATOM      4  S   UNL     1       2.602   8.123  17.904  0.00  0.00    +0.000 S 
ATOM      5  C   UNL     1       2.108   7.678  19.485  0.00  0.00    +0.000 A 
ATOM      6  N   UNL     1       1.345   8.552  20.102  0.00  0.00    +0.000 NA
BRANCH   5   7
ATOM      7  O   UNL     1       2.566   6.557  20.018  0.00  0.00    +0.000 OA
BRANCH   7   8
ATOM      8  C   UNL     1       3.230   5.683  19.228  0.00  0.00    +0.000 C 
ATOM      9  O   UNL     1       4.353   5.816  18.756  0.00  0.00    +0.000 OA
BRANCH   8  10
ATOM     10  C   UNL     1       2.392   4.406  19.041  0.00  0.00    +0.000 C 
ATOM     11  C   UNL     1       1.405   4.242  20.204  0.00  0.00    +0.000 C 
ATOM     12  C   UNL     1       1.599   4.504  17.725  0.00  0.00    +0.000 C 
ATOM     13  C   UNL     1       3.323   3.187  18.962  0.00  0.00    +0.000 C 
ENDBRANCH   8  10
ENDBRANCH   7   8
ENDBRANCH   5   7
ENDBRANCH   1   2
BRANCH   1  16
ATOM     14  C   UNL     1      -1.900  10.934  18.344  0.00  0.00    +0.000 C 
ATOM     15  O   UNL     1      -1.413  11.847  17.698  0.00  0.00    +0.000 OA
ATOM     16  N   UNL     1      -1.258  10.335  19.388  0.00  0.00    +0.000 N 
ATOM     17  H   UNL     1      -1.604   9.421  19.655  0.00  0.00    +0.000 HD
BRANCH  14  18
ATOM     18  O   UNL     1      -3.116  10.377  18.137  0.00  0.00    +0.000 OA
BRANCH  18  20
ATOM     19  C   UNL     1      -4.642  11.788  16.825  0.00  0.00    +0.000 C 
ATOM     20  C   UNL     1      -4.307  11.220  18.210  0.00  0.00    +0.000 C 
ATOM     21  C   UNL     1      -4.178  12.327  19.266  0.00  0.00    +0.000 C 
ATOM     22  C   UNL     1      -5.461  10.298  18.640  0.00  0.00    +0.000 C 
ENDBRANCH  18  20
ENDBRANCH  14  18
ENDBRANCH   1  16
BRANCH   1  23
ATOM     23  C   UNL     1       0.302  10.980  21.224  0.00  0.00    +0.000 C 
BRANCH  23  24
ATOM     24  C   UNL     1      -0.777  11.794  21.912  0.00  0.00    +0.000 A 
ATOM     25  C   UNL     1      -1.115  13.058  21.404  0.00  0.00    +0.000 A 
ATOM     26  C   UNL     1      -2.189  13.778  21.932  0.00  0.00    +0.000 A 
ATOM     27  C   UNL     1      -2.926  13.249  22.990  0.00  0.00    +0.000 A 
ATOM     28  C   UNL     1      -2.590  12.005  23.521  0.00  0.00    +0.000 A 
ATOM     29  C   UNL     1      -1.522  11.280  22.984  0.00  0.00    +0.000 A 
BRANCH  27  30
ATOM     30  N   UNL     1      -4.084  13.944  23.445  0.00  0.00    +0.000 N 
ATOM     31  H   UNL     1      -3.948  14.508  24.282  0.00  0.00    +0.000 HD
BRANCH  30  32
ATOM     32  S   UNL     1      -5.486  13.027  23.632  0.00  0.00    +0.000 S 
ATOM     33  O   UNL     1      -5.306  12.081  24.708  0.00  0.00    +0.000 OA
ATOM     34  O   UNL     1      -6.590  13.953  23.623  0.00  0.00    +0.000 OA
BRANCH  32  35
ATOM     35  O   UNL     1      -5.554  12.151  22.286  0.00  0.00    +0.000 OA
ATOM     36  H   UNL     1      -4.659  11.791  22.133  0.00  0.00    +0.000 HD
ENDBRANCH  32  35
ENDBRANCH  30  32
ENDBRANCH  27  30
ENDBRANCH  23  24
ENDBRANCH   1  23
TORSDOF 12
ENDMDL
MODEL 8
REMARK VINA RESULT:      -6.9      4.341     10.879
REMARK  Name = 
REMARK  18 active torsions:
REMARK  status: ('A' for Active; 'I' for Inactive)
REMARK    1  A    between atoms: C_1  and  C_2
REMARK    2  A    between atoms: C_2  and  C_3
REMARK    3  A    between atoms: C_2  and  C_4
REMARK    4  A    between atoms: C_2  and  O_5
REMARK    5  A    between atoms: O_5  and  C_6
REMARK    6  A    between atoms: N_8  and  C_9
REMARK    7  A    between atoms: C_9  and  C_10
REMARK    8  A    between atoms: C_9  and  C_22
REMARK    9  A    between atoms: C_10  and  C_11
REMARK   10  A    between atoms: C_14  and  N_15
REMARK   11  A    between atoms: N_15  and  S_16
REMARK   12  A    between atoms: S_16  and  O_19
REMARK   13  A    between atoms: C_25  and  O_26
REMARK   14  A    between atoms: O_26  and  C_27
REMARK   15  A    between atoms: C_27  and  C_29
REMARK   16  A    between atoms: C_29  and  C_30
REMARK   17  A    between atoms: C_29  and  C_31
REMARK   18  A    between atoms: C_29  and  C_32
REMARK                            x       y       z     vdW  Elec       q    Type
REMARK                         _______ _______ _______ _____ _____    ______ ____
ROOT
ATOM      1  C   UNL     1       0.213  11.200  18.632  0.00  0.00    +0.000 C 
ENDROOT
BRANCH   1   2
ATOM      2  C   UNL     1      -1.225  10.972  18.209  0.00  0.00    +0.000 A 
ATOM      3  C   UNL     1      -1.694   9.904  17.465  0.00  0.00    +0.000 A 
ATOM      4  S   UNL     1      -3.383  10.048  17.226  0.00  0.00    +0.000 S 
ATOM      5  C   UNL     1      -3.369  11.538  18.077  0.00  0.00    +0.000 A 
ATOM      6  N   UNL     1      -2.209  11.881  18.590  0.00  0.00    +0.000 NA
BRANCH   5   7
ATOM      7  O   UNL     1      -4.500  12.205  18.237  0.00  0.00    +0.000 OA
BRANCH   7   8
ATOM      8  C   UNL     1      -5.168  12.086  19.407  0.00  0.00    +0.000 C 
ATOM      9  O   UNL     1      -4.742  12.323  20.531  0.00  0.00    +0.000 OA
BRANCH   8  10
ATOM     10  C   UNL     1      -6.622  11.661  19.138  0.00  0.00    +0.000 C 
ATOM     11  C   UNL     1      -7.543  12.184  20.249  0.00  0.00    +0.000 C 
ATOM     12  C   UNL     1      -7.084  12.244  17.791  0.00  0.00    +0.000 C 
ATOM     13  C   UNL     1      -6.704  10.129  19.063  0.00  0.00    +0.000 C 
ENDBRANCH   8  10
ENDBRANCH   7   8
ENDBRANCH   5   7
ENDBRANCH   1   2
BRANCH   1  16
ATOM     14  C   UNL     1       1.538  13.246  18.501  0.00  0.00    +0.000 C 
ATOM     15  O   UNL     1       2.483  12.661  17.997  0.00  0.00    +0.000 OA
ATOM     16  N   UNL     1       0.394  12.614  18.891  0.00  0.00    +0.000 N 
ATOM     17  H   UNL     1      -0.420  13.207  19.012  0.00  0.00    +0.000 HD
BRANCH  14  18
ATOM     18  O   UNL     1       1.466  14.576  18.742  0.00  0.00    +0.000 OA
BRANCH  18  20
ATOM     19  C   UNL     1       3.682  15.618  18.528  0.00  0.00    +0.000 C 
ATOM     20  C   UNL     1       2.548  15.224  19.482  0.00  0.00    +0.000 C 
ATOM     21  C   UNL     1       3.054  14.367  20.651  0.00  0.00    +0.000 C 
ATOM     22  C   UNL     1       1.951  16.513  20.073  0.00  0.00    +0.000 C 
ENDBRANCH  18  20
ENDBRANCH  14  18
ENDBRANCH   1  16
BRANCH   1  23
ATOM     23  C   UNL     1       0.575  10.315  19.840  0.00  0.00    +0.000 C 
BRANCH  23  24
ATOM     24  C   UNL     1       1.268   9.003  19.533  0.00  0.00    +0.000 A 
ATOM     25  C   UNL     1       1.842   8.806  18.267  0.00  0.00    +0.000 A 
ATOM     26  C   UNL     1       2.599   7.665  17.993  0.00  0.00    +0.000 A 
ATOM     27  C   UNL     1       2.773   6.695  18.977  0.00  0.00    +0.000 A 
ATOM     28  C   UNL     1       2.192   6.863  20.233  0.00  0.00    +0.000 A 
ATOM     29  C   UNL     1       1.445   8.012  20.510  0.00  0.00    +0.000 A 
BRANCH  27  30
ATOM     30  N   UNL     1       3.637   5.591  18.719  0.00  0.00    +0.000 N 
ATOM     31  H   UNL     1       4.320   5.741  17.979  0.00  0.00    +0.000 HD
BRANCH  30  32
ATOM     32  S   UNL     1       2.895   4.097  18.474  0.00  0.00    +0.000 S 
ATOM     33  O   UNL     1       2.756   3.412  19.737  0.00  0.00    +0.000 OA
ATOM     34  O   UNL     1       1.759   4.335  17.620  0.00  0.00    +0.000 OA
BRANCH  32  35
ATOM     35  O   UNL     1       3.984   3.261  17.638  0.00  0.00    +0.000 OA
ATOM     36  H   UNL     1       3.491   2.693  17.013  0.00  0.00    +0.000 HD
ENDBRANCH  32  35
ENDBRANCH  30  32
ENDBRANCH  27  30
ENDBRANCH  23  24
ENDBRANCH   1  23
TORSDOF 12
ENDMDL
MODEL 9
REMARK VINA RESULT:      -6.8      4.157      7.298
REMARK  Name = 
REMARK  18 active torsions:
REMARK  status: ('A' for Active; 'I' for Inactive)
REMARK    1  A    between atoms: C_1  and  C_2
REMARK    2  A    between atoms: C_2  and  C_3
REMARK    3  A    between atoms: C_2  and  C_4
REMARK    4  A    between atoms: C_2  and  O_5
REMARK    5  A    between atoms: O_5  and  C_6
REMARK    6  A    between atoms: N_8  and  C_9
REMARK    7  A    between atoms: C_9  and  C_10
REMARK    8  A    between atoms: C_9  and  C_22
REMARK    9  A    between atoms: C_10  and  C_11
REMARK   10  A    between atoms: C_14  and  N_15
REMARK   11  A    between atoms: N_15  and  S_16
REMARK   12  A    between atoms: S_16  and  O_19
REMARK   13  A    between atoms: C_25  and  O_26
REMARK   14  A    between atoms: O_26  and  C_27
REMARK   15  A    between atoms: C_27  and  C_29
REMARK   16  A    between atoms: C_29  and  C_30
REMARK   17  A    between atoms: C_29  and  C_31
REMARK   18  A    between atoms: C_29  and  C_32
REMARK                            x       y       z     vdW  Elec       q    Type
REMARK                         _______ _______ _______ _____ _____    ______ ____
ROOT
ATOM      1  C   UNL     1       0.325  10.552  19.584  0.00  0.00    +0.000 C 
ENDROOT
BRANCH   1   2
ATOM      2  C   UNL     1       1.243   9.438  19.122  0.00  0.00    +0.000 A 
ATOM      3  C   UNL     1       1.824   9.329  17.872  0.00  0.00    +0.000 A 
ATOM      4  S   UNL     1       2.791   7.918  17.791  0.00  0.00    +0.000 S 
ATOM      5  C   UNL     1       2.331   7.520  19.396  0.00  0.00    +0.000 A 
ATOM      6  N   UNL     1       1.580   8.412  20.002  0.00  0.00    +0.000 NA
BRANCH   5   7
ATOM      7  O   UNL     1       2.804   6.417  19.952  0.00  0.00    +0.000 OA
BRANCH   7   8
ATOM      8  C   UNL     1       2.012   5.322  20.005  0.00  0.00    +0.000 C 
ATOM      9  O   UNL     1       0.962   5.196  20.622  0.00  0.00    +0.000 OA
BRANCH   8  10
ATOM     10  C   UNL     1       2.583   4.220  19.095  0.00  0.00    +0.000 C 
ATOM     11  C   UNL     1       4.090   4.424  18.893  0.00  0.00    +0.000 C 
ATOM     12  C   UNL     1       2.348   2.846  19.747  0.00  0.00    +0.000 C 
ATOM     13  C   UNL     1       1.860   4.247  17.739  0.00  0.00    +0.000 C 
ENDBRANCH   8  10
ENDBRANCH   7   8
ENDBRANCH   5   7
ENDBRANCH   1   2
BRANCH   1  16
ATOM     14  C   UNL     1      -1.196  11.768  18.110  0.00  0.00    +0.000 C 
ATOM     15  O   UNL     1      -0.655  12.835  18.350  0.00  0.00    +0.000 OA
ATOM     16  N   UNL     1      -0.822  10.595  18.697  0.00  0.00    +0.000 N 
ATOM     17  H   UNL     1      -1.118   9.749  18.224  0.00  0.00    +0.000 HD
BRANCH  14  18
ATOM     18  O   UNL     1      -2.220  11.574  17.246  0.00  0.00    +0.000 OA
BRANCH  18  20
ATOM     19  C   UNL     1      -3.821  11.979  19.067  0.00  0.00    +0.000 C 
ATOM     20  C   UNL     1      -3.534  11.209  17.771  0.00  0.00    +0.000 C 
ATOM     21  C   UNL     1      -3.691   9.693  17.959  0.00  0.00    +0.000 C 
ATOM     22  C   UNL     1      -4.558  11.656  16.713  0.00  0.00    +0.000 C 
ENDBRANCH  18  20
ENDBRANCH  14  18
ENDBRANCH   1  16
BRANCH   1  23
ATOM     23  C   UNL     1      -0.063  10.365  21.062  0.00  0.00    +0.000 C 
BRANCH  23  24
ATOM     24  C   UNL     1      -0.519  11.606  21.803  0.00  0.00    +0.000 A 
ATOM     25  C   UNL     1       0.168  12.815  21.612  0.00  0.00    +0.000 A 
ATOM     26  C   UNL     1      -0.301  14.003  22.176  0.00  0.00    +0.000 A 
ATOM     27  C   UNL     1      -1.454  13.992  22.957  0.00  0.00    +0.000 A 
ATOM     28  C   UNL     1      -2.137  12.797  23.176  0.00  0.00    +0.000 A 
ATOM     29  C   UNL     1      -1.673  11.610  22.601  0.00  0.00    +0.000 A 
BRANCH  27  30
ATOM     30  N   UNL     1      -1.982  15.227  23.435  0.00  0.00    +0.000 N 
ATOM     31  H   UNL     1      -1.657  16.055  22.938  0.00  0.00    +0.000 HD
BRANCH  30  32
ATOM     32  S   UNL     1      -1.857  15.507  25.092  0.00  0.00    +0.000 S 
ATOM     33  O   UNL     1      -2.831  14.705  25.794  0.00  0.00    +0.000 OA
ATOM     34  O   UNL     1      -0.455  15.442  25.418  0.00  0.00    +0.000 OA
BRANCH  32  35
ATOM     35  O   UNL     1      -2.341  17.031  25.261  0.00  0.00    +0.000 OA
ATOM     36  H   UNL     1      -2.681  17.322  24.392  0.00  0.00    +0.000 HD
ENDBRANCH  32  35
ENDBRANCH  30  32
ENDBRANCH  27  30
ENDBRANCH  23  24
ENDBRANCH   1  23
TORSDOF 12
ENDMDL
