MODEL 1
REMARK VINA RESULT:      -5.1      0.000      0.000
REMARK  Name = 
REMARK  4 active torsions:
REMARK  status: ('A' for Active; 'I' for Inactive)
REMARK    1  A    between atoms: C_1  and  C_2
REMARK    2  A    between atoms: C_2  and  N_3
REMARK    3  A    between atoms: C_8  and  C_9
REMARK    4  A    between atoms: C_9  and  O_11
REMARK                            x       y       z     vdW  Elec       q    Type
REMARK                         _______ _______ _______ _____ _____    ______ ____
ROOT
ATOM      1  N   UNL     1       3.539   4.058  19.837  0.00  0.00    +0.000 NA
ATOM      2  C   UNL     1       2.741   5.125  19.157  0.00  0.00    +0.000 C 
ATOM      3  C   UNL     1       2.151   4.732  17.786  0.00  0.00    +0.000 C 
ATOM      4  N   UNL     1       1.317   3.533  17.868  0.00  0.00    +0.000 NA
ATOM      5  C   UNL     1       2.022   2.425  18.527  0.00  0.00    +0.000 C 
ATOM      6  C   UNL     1       2.719   2.788  19.859  0.00  0.00    +0.000 C 
ATOM      7  H   UNL     1       1.015   3.247  16.937  0.00  0.00    +0.000 HD
ENDROOT
BRANCH   1   9
ATOM      8  C   UNL     1       5.731   5.115  19.121  0.00  0.00    +0.000 C 
ATOM      9  C   UNL     1       4.821   3.892  19.115  0.00  0.00    +0.000 C 
ENDBRANCH   1   9
BRANCH   6  10
ATOM     10  C   UNL     1       1.703   2.864  21.019  0.00  0.00    +0.000 C 
ATOM     11  O   UNL     1       1.979   2.904  22.210  0.00  0.00    +0.000 OA
BRANCH  10  12
ATOM     12  O   UNL     1       0.429   3.001  20.559  0.00  0.00    +0.000 OA
ATOM     13  H   UNL     1       0.367   2.440  19.749  0.00  0.00    +0.000 HD
ENDBRANCH  10  12
ENDBRANCH   6  10
TORSDOF 3
ENDMDL
MODEL 2
REMARK VINA RESULT:      -5.0      4.222      5.204
REMARK  Name = 
REMARK  4 active torsions:
REMARK  status: ('A' for Active; 'I' for Inactive)
REMARK    1  A    between atoms: C_1  and  C_2
REMARK    2  A    between atoms: C_2  and  N_3
REMARK    3  A    between atoms: C_8  and  C_9
REMARK    4  A    between atoms: C_9  and  O_11
REMARK                            x       y       z     vdW  Elec       q    Type
REMARK                         _______ _______ _______ _____ _____    ______ ____
ROOT
ATOM      1  N   UNL     1       5.312   5.844  18.043  0.00  0.00    +0.000 NA
ATOM      2  C   UNL     1       4.615   4.525  18.143  0.00  0.00    +0.000 C 
ATOM      3  C   UNL     1       4.480   3.751  16.814  0.00  0.00    +0.000 C 
ATOM      4  N   UNL     1       5.776   3.525  16.173  0.00  0.00    +0.000 NA
ATOM      5  C   UNL     1       6.537   4.775  16.034  0.00  0.00    +0.000 C 
ATOM      6  C   UNL     1       6.620   5.641  17.311  0.00  0.00    +0.000 C 
ATOM      7  H   UNL     1       5.648   3.093  15.259  0.00  0.00    +0.000 HD
ENDROOT
BRANCH   1   9
ATOM      8  C   UNL     1       3.082   7.053  18.039  0.00  0.00    +0.000 C 
ATOM      9  C   UNL     1       4.419   6.801  17.352  0.00  0.00    +0.000 C 
ENDBRANCH   1   9
BRANCH   6  10
ATOM     10  C   UNL     1       7.668   5.083  18.299  0.00  0.00    +0.000 C 
ATOM     11  O   UNL     1       7.829   5.451  19.454  0.00  0.00    +0.000 OA
BRANCH  10  12
ATOM     12  O   UNL     1       8.342   4.026  17.767  0.00  0.00    +0.000 OA
ATOM     13  H   UNL     1       8.882   3.647  18.502  0.00  0.00    +0.000 HD
ENDBRANCH  10  12
ENDBRANCH   6  10
TORSDOF 3
ENDMDL
MODEL 3
REMARK VINA RESULT:      -5.0      5.178      6.328
REMARK  Name = 
REMARK  4 active torsions:
REMARK  status: ('A' for Active; 'I' for Inactive)
REMARK    1  A    between atoms: C_1  and  C_2
REMARK    2  A    between atoms: C_2  and  N_3
REMARK    3  A    between atoms: C_8  and  C_9
REMARK    4  A    between atoms: C_9  and  O_11
REMARK                            x       y       z     vdW  Elec       q    Type
REMARK                         _______ _______ _______ _____ _____    ______ ____
ROOT
ATOM      1  N   UNL     1       7.235   6.121  16.627  0.00  0.00    +0.000 NA
ATOM      2  C   UNL     1       7.512   5.011  17.590  0.00  0.00    +0.000 C 
ATOM      3  C   UNL     1       6.266   4.407  18.272  0.00  0.00    +0.000 C 
ATOM      4  N   UNL     1       5.284   3.923  17.301  0.00  0.00    +0.000 NA
ATOM      5  C   UNL     1       4.950   4.954  16.308  0.00  0.00    +0.000 C 
ATOM      6  C   UNL     1       6.163   5.664  15.663  0.00  0.00    +0.000 C 
ATOM      7  H   UNL     1       4.438   3.614  17.778  0.00  0.00    +0.000 HD
ENDROOT
BRANCH   1   9
ATOM      8  C   UNL     1       7.964   8.292  17.719  0.00  0.00    +0.000 C 
ATOM      9  C   UNL     1       6.833   7.323  17.392  0.00  0.00    +0.000 C 
ENDBRANCH   1   9
BRANCH   6  10
ATOM     10  C   UNL     1       6.810   4.785  14.570  0.00  0.00    +0.000 C 
ATOM     11  O   UNL     1       6.414   3.687  14.207  0.00  0.00    +0.000 OA
BRANCH  10  12
ATOM     12  O   UNL     1       7.838   5.432  13.954  0.00  0.00    +0.000 OA
ATOM     13  H   UNL     1       8.297   4.754  13.401  0.00  0.00    +0.000 HD
ENDBRANCH  10  12
ENDBRANCH   6  10
TORSDOF 3
ENDMDL
MODEL 4
REMARK VINA RESULT:      -5.0      3.473      4.472
REMARK  Name = 
REMARK  4 active torsions:
REMARK  status: ('A' for Active; 'I' for Inactive)
REMARK    1  A    between atoms: C_1  and  C_2
REMARK    2  A    between atoms: C_2  and  N_3
REMARK    3  A    between atoms: C_8  and  C_9
REMARK    4  A    between atoms: C_9  and  O_11
REMARK                            x       y       z     vdW  Elec       q    Type
REMARK                         _______ _______ _______ _____ _____    ______ ____
ROOT
ATOM      1  N   UNL     1       4.484   5.087  19.442  0.00  0.00    +0.000 NA
ATOM      2  C   UNL     1       4.239   3.616  19.334  0.00  0.00    +0.000 C 
ATOM      3  C   UNL     1       3.927   3.104  17.912  0.00  0.00    +0.000 C 
ATOM      4  N   UNL     1       4.978   3.454  16.956  0.00  0.00    +0.000 NA
ATOM      5  C   UNL     1       5.289   4.890  16.993  0.00  0.00    +0.000 C 
ATOM      6  C   UNL     1       5.513   5.479  18.405  0.00  0.00    +0.000 C 
ATOM      7  H   UNL     1       4.703   3.183  16.013  0.00  0.00    +0.000 HD
ENDROOT
BRANCH   1   9
ATOM      8  C   UNL     1       2.117   5.450  20.277  0.00  0.00    +0.000 C 
ATOM      9  C   UNL     1       3.198   5.797  19.260  0.00  0.00    +0.000 C 
ENDBRANCH   1   9
BRANCH   6  10
ATOM     10  C   UNL     1       6.921   5.134  18.938  0.00  0.00    +0.000 C 
ATOM     11  O   UNL     1       7.373   5.458  20.027  0.00  0.00    +0.000 OA
BRANCH  10  12
ATOM     12  O   UNL     1       7.589   4.309  18.085  0.00  0.00    +0.000 OA
ATOM     13  H   UNL     1       7.429   3.390  18.410  0.00  0.00    +0.000 HD
ENDBRANCH  10  12
ENDBRANCH   6  10
TORSDOF 3
ENDMDL
MODEL 5
REMARK VINA RESULT:      -4.9      2.301      2.804
REMARK  Name = 
REMARK  4 active torsions:
REMARK  status: ('A' for Active; 'I' for Inactive)
REMARK    1  A    between atoms: C_1  and  C_2
REMARK    2  A    between atoms: C_2  and  N_3
REMARK    3  A    between atoms: C_8  and  C_9
REMARK    4  A    between atoms: C_9  and  O_11
REMARK                            x       y       z     vdW  Elec       q    Type
REMARK                         _______ _______ _______ _____ _____    ______ ____
ROOT
ATOM      1  N   UNL     1       2.772   3.529  20.186  0.00  0.00    +0.000 NA
ATOM      2  C   UNL     1       1.566   2.645  20.233  0.00  0.00    +0.000 C 
ATOM      3  C   UNL     1       0.838   2.454  18.886  0.00  0.00    +0.000 C 
ATOM      4  N   UNL     1       1.728   1.942  17.844  0.00  0.00    +0.000 NA
ATOM      5  C   UNL     1       2.948   2.754  17.726  0.00  0.00    +0.000 C 
ATOM      6  C   UNL     1       3.666   3.060  19.060  0.00  0.00    +0.000 C 
ATOM      7  H   UNL     1       1.244   1.912  16.948  0.00  0.00    +0.000 HD
ENDROOT
BRANCH   1   9
ATOM      8  C   UNL     1       3.384   5.885  19.469  0.00  0.00    +0.000 C 
ATOM      9  C   UNL     1       2.325   4.930  20.008  0.00  0.00    +0.000 C 
ENDBRANCH   1   9
BRANCH   6  10
ATOM     10  C   UNL     1       4.490   1.847  19.544  0.00  0.00    +0.000 C 
ATOM     11  O   UNL     1       5.111   1.778  20.595  0.00  0.00    +0.000 OA
BRANCH  10  12
ATOM     12  O   UNL     1       4.356   0.785  18.703  0.00  0.00    +0.000 OA
ATOM     13  H   UNL     1       3.851   0.100  19.203  0.00  0.00    +0.000 HD
ENDBRANCH  10  12
ENDBRANCH   6  10
TORSDOF 3
ENDMDL
MODEL 6
REMARK VINA RESULT:      -4.9      2.906      4.020
REMARK  Name = 
REMARK  4 active torsions:
REMARK  status: ('A' for Active; 'I' for Inactive)
REMARK    1  A    between atoms: C_1  and  C_2
REMARK    2  A    between atoms: C_2  and  N_3
REMARK    3  A    between atoms: C_8  and  C_9
REMARK    4  A    between atoms: C_9  and  O_11
REMARK                            x       y       z     vdW  Elec       q    Type
REMARK                         _______ _______ _______ _____ _____    ______ ____
ROOT
ATOM      1  N   UNL     1       3.608   3.979  19.850  0.00  0.00    +0.000 NA
ATOM      2  C   UNL     1       3.884   2.512  19.933  0.00  0.00    +0.000 C 
ATOM      3  C   UNL     1       3.563   1.708  18.655  0.00  0.00    +0.000 C 
ATOM      4  N   UNL     1       4.266   2.231  17.483  0.00  0.00    +0.000 NA
ATOM      5  C   UNL     1       4.052   3.676  17.321  0.00  0.00    +0.000 C 
ATOM      6  C   UNL     1       4.263   4.520  18.599  0.00  0.00    +0.000 C 
ATOM      7  H   UNL     1       3.967   1.739  16.642  0.00  0.00    +0.000 HD
ENDROOT
BRANCH   1   9
ATOM      8  C   UNL     1       1.394   3.495  20.990  0.00  0.00    +0.000 C 
ATOM      9  C   UNL     1       2.142   4.186  19.856  0.00  0.00    +0.000 C 
ENDBRANCH   1   9
BRANCH   6  10
ATOM     10  C   UNL     1       5.765   4.749  18.877  0.00  0.00    +0.000 C 
ATOM     11  O   UNL     1       6.229   5.474  19.744  0.00  0.00    +0.000 OA
BRANCH  10  12
ATOM     12  O   UNL     1       6.544   3.945  18.101  0.00  0.00    +0.000 OA
ATOM     13  H   UNL     1       7.442   3.954  18.511  0.00  0.00    +0.000 HD
ENDBRANCH  10  12
ENDBRANCH   6  10
TORSDOF 3
ENDMDL
MODEL 7
REMARK VINA RESULT:      -4.9      2.871      4.256
REMARK  Name = 
REMARK  4 active torsions:
REMARK  status: ('A' for Active; 'I' for Inactive)
REMARK    1  A    between atoms: C_1  and  C_2
REMARK    2  A    between atoms: C_2  and  N_3
REMARK    3  A    between atoms: C_8  and  C_9
REMARK    4  A    between atoms: C_9  and  O_11
REMARK                            x       y       z     vdW  Elec       q    Type
REMARK                         _______ _______ _______ _____ _____    ______ ____
ROOT
ATOM      1  N   UNL     1       4.653   4.916  17.049  0.00  0.00    +0.000 NA
ATOM      2  C   UNL     1       5.790   4.241  16.350  0.00  0.00    +0.000 C 
ATOM      3  C   UNL     1       7.194   4.609  16.875  0.00  0.00    +0.000 C 
ATOM      4  N   UNL     1       7.334   4.352  18.308  0.00  0.00    +0.000 NA
ATOM      5  C   UNL     1       6.251   4.979  19.080  0.00  0.00    +0.000 C 
ATOM      6  C   UNL     1       4.825   4.725  18.540  0.00  0.00    +0.000 C 
ATOM      7  H   UNL     1       8.237   4.686  18.642  0.00  0.00    +0.000 HD
ENDROOT
BRANCH   1   9
ATOM      8  C   UNL     1       3.775   7.246  17.535  0.00  0.00    +0.000 C 
ATOM      9  C   UNL     1       4.636   6.343  16.658  0.00  0.00    +0.000 C 
ENDBRANCH   1   9
BRANCH   6  10
ATOM     10  C   UNL     1       4.321   3.319  18.929  0.00  0.00    +0.000 C 
ATOM     11  O   UNL     1       3.290   2.794  18.534  0.00  0.00    +0.000 OA
BRANCH  10  12
ATOM     12  O   UNL     1       5.231   2.657  19.696  0.00  0.00    +0.000 OA
ATOM     13  H   UNL     1       5.084   2.965  20.623  0.00  0.00    +0.000 HD
ENDBRANCH  10  12
ENDBRANCH   6  10
TORSDOF 3
ENDMDL
MODEL 8
REMARK VINA RESULT:      -4.9      5.072      6.247
REMARK  Name = 
REMARK  4 active torsions:
REMARK  status: ('A' for Active; 'I' for Inactive)
REMARK    1  A    between atoms: C_1  and  C_2
REMARK    2  A    between atoms: C_2  and  N_3
REMARK    3  A    between atoms: C_8  and  C_9
REMARK    4  A    between atoms: C_9  and  O_11
REMARK                            x       y       z     vdW  Elec       q    Type
REMARK                         _______ _______ _______ _____ _____    ______ ____
ROOT
ATOM      1  N   UNL     1       4.951   5.096  16.182  0.00  0.00    +0.000 NA
ATOM      2  C   UNL     1       5.272   6.548  16.347  0.00  0.00    +0.000 C 
ATOM      3  C   UNL     1       6.288   6.873  17.463  0.00  0.00    +0.000 C 
ATOM      4  N   UNL     1       7.549   6.153  17.290  0.00  0.00    +0.000 NA
ATOM      5  C   UNL     1       7.330   4.710  17.117  0.00  0.00    +0.000 C 
ATOM      6  C   UNL     1       6.249   4.327  16.080  0.00  0.00    +0.000 C 
ATOM      7  H   UNL     1       8.164   6.318  18.086  0.00  0.00    +0.000 HD
ENDROOT
BRANCH   1   9
ATOM      8  C   UNL     1       3.896   3.156  17.430  0.00  0.00    +0.000 C 
ATOM      9  C   UNL     1       4.123   4.660  17.329  0.00  0.00    +0.000 C 
ENDBRANCH   1   9
BRANCH   6  10
ATOM     10  C   UNL     1       6.791   4.443  14.638  0.00  0.00    +0.000 C 
ATOM     11  O   UNL     1       7.614   5.258  14.246  0.00  0.00    +0.000 OA
BRANCH  10  12
ATOM     12  O   UNL     1       6.324   3.437  13.848  0.00  0.00    +0.000 OA
ATOM     13  H   UNL     1       5.368   3.332  14.071  0.00  0.00    +0.000 HD
ENDBRANCH  10  12
ENDBRANCH   6  10
TORSDOF 3
ENDMDL
MODEL 9
REMARK VINA RESULT:      -4.9      2.255      3.524
REMARK  Name = 
REMARK  4 active torsions:
REMARK  status: ('A' for Active; 'I' for Inactive)
REMARK    1  A    between atoms: C_1  and  C_2
REMARK    2  A    between atoms: C_2  and  N_3
REMARK    3  A    between atoms: C_8  and  C_9
REMARK    4  A    between atoms: C_9  and  O_11
REMARK                            x       y       z     vdW  Elec       q    Type
REMARK                         _______ _______ _______ _____ _____    ______ ____
ROOT
ATOM      1  N   UNL     1       2.415   2.764  19.434  0.00  0.00    +0.000 NA
ATOM      2  C   UNL     1       2.078   3.009  17.998  0.00  0.00    +0.000 C 
ATOM      3  C   UNL     1       1.685   4.462  17.654  0.00  0.00    +0.000 C 
ATOM      4  N   UNL     1       2.720   5.421  18.042  0.00  0.00    +0.000 NA
ATOM      5  C   UNL     1       3.118   5.251  19.447  0.00  0.00    +0.000 C 
ATOM      6  C   UNL     1       3.428   3.798  19.873  0.00  0.00    +0.000 C 
ATOM      7  H   UNL     1       2.396   6.374  17.886  0.00  0.00    +0.000 HD
ENDROOT
BRANCH   1   9
ATOM      8  C   UNL     1       1.354   2.691  21.737  0.00  0.00    +0.000 C 
ATOM      9  C   UNL     1       1.168   2.819  20.230  0.00  0.00    +0.000 C 
ENDBRANCH   1   9
BRANCH   6  10
ATOM     10  C   UNL     1       4.831   3.362  19.397  0.00  0.00    +0.000 C 
ATOM     11  O   UNL     1       5.654   4.079  18.848  0.00  0.00    +0.000 OA
BRANCH  10  12
ATOM     12  O   UNL     1       5.108   2.081  19.767  0.00  0.00    +0.000 OA
ATOM     13  H   UNL     1       6.067   1.941  19.577  0.00  0.00    +0.000 HD
ENDBRANCH  10  12
ENDBRANCH   6  10
TORSDOF 3
ENDMDL
