MODEL 1
REMARK VINA RESULT:      -9.4      0.000      0.000
REMARK  Name = 
REMARK  7 active torsions:
REMARK  status: ('A' for Active; 'I' for Inactive)
REMARK    1  A    between atoms: C_1  and  C_2
REMARK    2  A    between atoms: C_2  and  C_3
REMARK    3  A    between atoms: C_2  and  N_9
REMARK    4  A    between atoms: C_10  and  C_11
REMARK    5  A    between atoms: C_15  and  C_16
REMARK    6  A    between atoms: C_17  and  C_18
REMARK    7  A    between atoms: N_20  and  O_21
REMARK                            x       y       z     vdW  Elec       q    Type
REMARK                         _______ _______ _______ _____ _____    ______ ____
ROOT
ATOM      1  N   UNL     1       3.485   4.922  17.769  0.00  0.00    +0.000 N 
ATOM      2  C   UNL     1       3.606   5.879  18.779  0.00  0.00    +0.000 A 
ATOM      3  N   UNL     1       4.046   5.215  19.842  0.00  0.00    +0.000 NA
ATOM      4  C   UNL     1       3.281   4.068  19.763  0.00  0.00    +0.000 A 
ATOM      5  C   UNL     1       2.739   3.370  20.854  0.00  0.00    +0.000 A 
ATOM      6  C   UNL     1       1.364   3.138  20.789  0.00  0.00    +0.000 A 
ATOM      7  C   UNL     1       0.653   3.421  19.621  0.00  0.00    +0.000 A 
ATOM      8  C   UNL     1       1.308   3.768  18.419  0.00  0.00    +0.000 A 
ATOM      9  C   UNL     1       2.699   4.003  18.473  0.00  0.00    +0.000 A 
ENDROOT
BRANCH   2  10
ATOM     10  C   UNL     1       2.723   7.045  18.689  0.00  0.00    +0.000 A 
ATOM     11  C   UNL     1       2.432   7.684  17.489  0.00  0.00    +0.000 A 
ATOM     12  C   UNL     1       1.696   8.867  17.516  0.00  0.00    +0.000 A 
ATOM     13  C   UNL     1       1.216   9.406  18.721  0.00  0.00    +0.000 A 
ATOM     14  C   UNL     1       1.538   8.797  19.944  0.00  0.00    +0.000 A 
ATOM     15  C   UNL     1       2.318   7.650  19.890  0.00  0.00    +0.000 A 
BRANCH  14  16
ATOM     16  C   UNL     1       0.959   9.208  21.225  0.00  0.00    +0.000 C 
ATOM     17  C   UNL     1      -0.277   9.716  21.405  0.00  0.00    +0.000 C 
BRANCH  17  18
ATOM     18  C   UNL     1      -0.600  10.358  22.708  0.00  0.00    +0.000 C 
ATOM     19  O   UNL     1      -0.130   9.984  23.778  0.00  0.00    +0.000 OA
ATOM     20  N   UNL     1      -1.410  11.458  22.613  0.00  0.00    +0.000 N 
ATOM     21  H   UNL     1      -1.755  11.876  21.757  0.00  0.00    +0.000 HD
BRANCH  20  22
ATOM     22  O   UNL     1      -1.608  12.193  23.806  0.00  0.00    +0.000 OA
ATOM     23  H   UNL     1      -0.731  12.615  23.946  0.00  0.00    +0.000 HD
ENDBRANCH  20  22
ENDBRANCH  17  18
ENDBRANCH  14  16
ENDBRANCH   2  10
BRANCH   1  25
ATOM     24  C   UNL     1       4.916   3.343  16.407  0.00  0.00    +0.000 C 
ATOM     25  C   UNL     1       4.570   4.827  16.768  0.00  0.00    +0.000 C 
BRANCH  25  26
ATOM     26  C   UNL     1       5.912   5.499  17.107  0.00  0.00    +0.000 A 
ATOM     27  C   UNL     1       6.170   6.866  16.858  0.00  0.00    +0.000 A 
ATOM     28  C   UNL     1       7.179   7.559  17.541  0.00  0.00    +0.000 A 
ATOM     29  C   UNL     1       7.955   6.898  18.486  0.00  0.00    +0.000 A 
ATOM     30  C   UNL     1       7.758   5.538  18.706  0.00  0.00    +0.000 A 
ATOM     31  C   UNL     1       6.763   4.841  18.010  0.00  0.00    +0.000 A 
ENDBRANCH  25  26
ENDBRANCH   1  25
TORSDOF 6
ENDMDL
MODEL 2
REMARK VINA RESULT:      -9.3      4.633      7.982
REMARK  Name = 
REMARK  7 active torsions:
REMARK  status: ('A' for Active; 'I' for Inactive)
REMARK    1  A    between atoms: C_1  and  C_2
REMARK    2  A    between atoms: C_2  and  C_3
REMARK    3  A    between atoms: C_2  and  N_9
REMARK    4  A    between atoms: C_10  and  C_11
REMARK    5  A    between atoms: C_15  and  C_16
REMARK    6  A    between atoms: C_17  and  C_18
REMARK    7  A    between atoms: N_20  and  O_21
REMARK                            x       y       z     vdW  Elec       q    Type
REMARK                         _______ _______ _______ _____ _____    ______ ____
ROOT
ATOM      1  N   UNL     1       2.391   6.089  18.872  0.00  0.00    +0.000 N 
ATOM      2  C   UNL     1       2.799   5.225  17.853  0.00  0.00    +0.000 A 
ATOM      3  N   UNL     1       1.766   4.418  17.641  0.00  0.00    +0.000 NA
ATOM      4  C   UNL     1       1.364   4.168  18.937  0.00  0.00    +0.000 A 
ATOM      5  C   UNL     1       0.882   2.943  19.422  0.00  0.00    +0.000 A 
ATOM      6  C   UNL     1       1.538   2.448  20.551  0.00  0.00    +0.000 A 
ATOM      7  C   UNL     1       2.467   3.237  21.231  0.00  0.00    +0.000 A 
ATOM      8  C   UNL     1       2.642   4.605  20.929  0.00  0.00    +0.000 A 
ATOM      9  C   UNL     1       1.981   5.116  19.791  0.00  0.00    +0.000 A 
ENDROOT
BRANCH   2  10
ATOM     10  C   UNL     1       4.239   4.970  17.746  0.00  0.00    +0.000 A 
ATOM     11  C   UNL     1       5.096   4.991  18.840  0.00  0.00    +0.000 A 
ATOM     12  C   UNL     1       6.468   4.877  18.625  0.00  0.00    +0.000 A 
ATOM     13  C   UNL     1       6.997   4.707  17.335  0.00  0.00    +0.000 A 
ATOM     14  C   UNL     1       6.150   4.728  16.216  0.00  0.00    +0.000 A 
ATOM     15  C   UNL     1       4.792   4.897  16.457  0.00  0.00    +0.000 A 
BRANCH  14  16
ATOM     16  C   UNL     1       6.600   4.411  14.859  0.00  0.00    +0.000 C 
ATOM     17  C   UNL     1       5.802   4.150  13.804  0.00  0.00    +0.000 C 
BRANCH  17  18
ATOM     18  C   UNL     1       6.408   3.557  12.581  0.00  0.00    +0.000 C 
ATOM     19  O   UNL     1       7.288   4.110  11.930  0.00  0.00    +0.000 OA
ATOM     20  N   UNL     1       5.959   2.299  12.279  0.00  0.00    +0.000 N 
ATOM     21  H   UNL     1       5.307   1.748  12.825  0.00  0.00    +0.000 HD
BRANCH  20  22
ATOM     22  O   UNL     1       6.627   1.635  11.223  0.00  0.00    +0.000 OA
ATOM     23  H   UNL     1       7.484   1.384  11.635  0.00  0.00    +0.000 HD
ENDBRANCH  20  22
ENDBRANCH  17  18
ENDBRANCH  14  16
ENDBRANCH   2  10
BRANCH   1  25
ATOM     24  C   UNL     1       2.928   8.172  17.542  0.00  0.00    +0.000 C 
ATOM     25  C   UNL     1       1.922   7.439  18.492  0.00  0.00    +0.000 C 
BRANCH  25  26
ATOM     26  C   UNL     1       1.618   8.432  19.627  0.00  0.00    +0.000 A 
ATOM     27  C   UNL     1       1.119   9.733  19.395  0.00  0.00    +0.000 A 
ATOM     28  C   UNL     1       0.447  10.450  20.395  0.00  0.00    +0.000 A 
ATOM     29  C   UNL     1       0.265   9.884  21.651  0.00  0.00    +0.000 A 
ATOM     30  C   UNL     1       0.800   8.627  21.920  0.00  0.00    +0.000 A 
ATOM     31  C   UNL     1       1.487   7.918  20.928  0.00  0.00    +0.000 A 
ENDBRANCH  25  26
ENDBRANCH   1  25
TORSDOF 6
ENDMDL
MODEL 3
REMARK VINA RESULT:      -9.3      1.200      1.943
REMARK  Name = 
REMARK  7 active torsions:
REMARK  status: ('A' for Active; 'I' for Inactive)
REMARK    1  A    between atoms: C_1  and  C_2
REMARK    2  A    between atoms: C_2  and  C_3
REMARK    3  A    between atoms: C_2  and  N_9
REMARK    4  A    between atoms: C_10  and  C_11
REMARK    5  A    between atoms: C_15  and  C_16
REMARK    6  A    between atoms: C_17  and  C_18
REMARK    7  A    between atoms: N_20  and  O_21
REMARK                            x       y       z     vdW  Elec       q    Type
REMARK                         _______ _______ _______ _____ _____    ______ ____
ROOT
ATOM      1  N   UNL     1       3.987   4.461  18.625  0.00  0.00    +0.000 N 
ATOM      2  C   UNL     1       3.619   5.418  19.573  0.00  0.00    +0.000 A 
ATOM      3  N   UNL     1       3.497   4.754  20.716  0.00  0.00    +0.000 NA
ATOM      4  C   UNL     1       2.855   3.612  20.282  0.00  0.00    +0.000 A 
ATOM      5  C   UNL     1       1.857   2.918  20.983  0.00  0.00    +0.000 A 
ATOM      6  C   UNL     1       0.676   2.692  20.272  0.00  0.00    +0.000 A 
ATOM      7  C   UNL     1       0.608   2.977  18.907  0.00  0.00    +0.000 A 
ATOM      8  C   UNL     1       1.757   3.320  18.161  0.00  0.00    +0.000 A 
ATOM      9  C   UNL     1       2.956   3.547  18.870  0.00  0.00    +0.000 A 
ENDROOT
BRANCH   2  10
ATOM     10  C   UNL     1       2.891   6.589  19.075  0.00  0.00    +0.000 A 
ATOM     11  C   UNL     1       2.996   7.047  17.766  0.00  0.00    +0.000 A 
ATOM     12  C   UNL     1       2.378   8.247  17.420  0.00  0.00    +0.000 A 
ATOM     13  C   UNL     1       1.627   8.982  18.351  0.00  0.00    +0.000 A 
ATOM     14  C   UNL     1       1.548   8.557  19.687  0.00  0.00    +0.000 A 
ATOM     15  C   UNL     1       2.219   7.386  20.016  0.00  0.00    +0.000 A 
BRANCH  14  16
ATOM     16  C   UNL     1       0.671   9.181  20.680  0.00  0.00    +0.000 C 
ATOM     17  C   UNL     1       1.055   9.665  21.879  0.00  0.00    +0.000 C 
BRANCH  17  18
ATOM     18  C   UNL     1       0.008   9.988  22.886  0.00  0.00    +0.000 C 
ATOM     19  O   UNL     1       0.084   9.656  24.065  0.00  0.00    +0.000 OA
ATOM     20  N   UNL     1      -1.018  10.759  22.410  0.00  0.00    +0.000 N 
ATOM     21  H   UNL     1      -1.094  11.145  21.477  0.00  0.00    +0.000 HD
BRANCH  20  22
ATOM     22  O   UNL     1      -1.947  11.224  23.371  0.00  0.00    +0.000 OA
ATOM     23  H   UNL     1      -1.740  10.666  24.155  0.00  0.00    +0.000 HD
ENDBRANCH  20  22
ENDBRANCH  17  18
ENDBRANCH  14  16
ENDBRANCH   2  10
BRANCH   1  25
ATOM     24  C   UNL     1       6.329   5.243  19.176  0.00  0.00    +0.000 C 
ATOM     25  C   UNL     1       5.417   4.359  18.260  0.00  0.00    +0.000 C 
BRANCH  25  26
ATOM     26  C   UNL     1       5.809   4.710  16.814  0.00  0.00    +0.000 A 
ATOM     27  C   UNL     1       7.117   5.094  16.446  0.00  0.00    +0.000 A 
ATOM     28  C   UNL     1       7.569   4.987  15.123  0.00  0.00    +0.000 A 
ATOM     29  C   UNL     1       6.719   4.496  14.139  0.00  0.00    +0.000 A 
ATOM     30  C   UNL     1       5.407   4.167  14.467  0.00  0.00    +0.000 A 
ATOM     31  C   UNL     1       4.950   4.292  15.784  0.00  0.00    +0.000 A 
ENDBRANCH  25  26
ENDBRANCH   1  25
TORSDOF 6
ENDMDL
MODEL 4
REMARK VINA RESULT:      -9.2      1.205      1.899
REMARK  Name = 
REMARK  7 active torsions:
REMARK  status: ('A' for Active; 'I' for Inactive)
REMARK    1  A    between atoms: C_1  and  C_2
REMARK    2  A    between atoms: C_2  and  C_3
REMARK    3  A    between atoms: C_2  and  N_9
REMARK    4  A    between atoms: C_10  and  C_11
REMARK    5  A    between atoms: C_15  and  C_16
REMARK    6  A    between atoms: C_17  and  C_18
REMARK    7  A    between atoms: N_20  and  O_21
REMARK                            x       y       z     vdW  Elec       q    Type
REMARK                         _______ _______ _______ _____ _____    ______ ____
ROOT
ATOM      1  N   UNL     1       3.945   4.395  18.762  0.00  0.00    +0.000 N 
ATOM      2  C   UNL     1       3.491   5.249  19.770  0.00  0.00    +0.000 A 
ATOM      3  N   UNL     1       3.275   4.468  20.822  0.00  0.00    +0.000 NA
ATOM      4  C   UNL     1       2.679   3.380  20.216  0.00  0.00    +0.000 A 
ATOM      5  C   UNL     1       1.628   2.620  20.752  0.00  0.00    +0.000 A 
ATOM      6  C   UNL     1       0.514   2.475  19.922  0.00  0.00    +0.000 A 
ATOM      7  C   UNL     1       0.562   2.902  18.594  0.00  0.00    +0.000 A 
ATOM      8  C   UNL     1       1.769   3.317  17.990  0.00  0.00    +0.000 A 
ATOM      9  C   UNL     1       2.901   3.464  18.819  0.00  0.00    +0.000 A 
ENDROOT
BRANCH   2  10
ATOM     10  C   UNL     1       2.802   6.468  19.337  0.00  0.00    +0.000 A 
ATOM     11  C   UNL     1       2.915   6.987  18.052  0.00  0.00    +0.000 A 
ATOM     12  C   UNL     1       2.338   8.224  17.771  0.00  0.00    +0.000 A 
ATOM     13  C   UNL     1       1.620   8.938  18.744  0.00  0.00    +0.000 A 
ATOM     14  C   UNL     1       1.535   8.449  20.058  0.00  0.00    +0.000 A 
ATOM     15  C   UNL     1       2.165   7.240  20.322  0.00  0.00    +0.000 A 
BRANCH  14  16
ATOM     16  C   UNL     1       0.687   9.053  21.088  0.00  0.00    +0.000 C 
ATOM     17  C   UNL     1       0.181  10.303  21.061  0.00  0.00    +0.000 C 
BRANCH  17  18
ATOM     18  C   UNL     1      -0.403  10.863  22.309  0.00  0.00    +0.000 C 
ATOM     19  O   UNL     1      -0.520  10.217  23.346  0.00  0.00    +0.000 OA
ATOM     20  N   UNL     1      -0.732  12.190  22.236  0.00  0.00    +0.000 N 
ATOM     21  H   UNL     1      -0.574  12.804  21.446  0.00  0.00    +0.000 HD
BRANCH  20  22
ATOM     22  O   UNL     1      -1.136  12.800  23.447  0.00  0.00    +0.000 OA
ATOM     23  H   UNL     1      -0.277  12.998  23.884  0.00  0.00    +0.000 HD
ENDBRANCH  20  22
ENDBRANCH  17  18
ENDBRANCH  14  16
ENDBRANCH   2  10
BRANCH   1  25
ATOM     24  C   UNL     1       6.167   5.548  19.124  0.00  0.00    +0.000 C 
ATOM     25  C   UNL     1       5.401   4.326  18.512  0.00  0.00    +0.000 C 
BRANCH  25  26
ATOM     26  C   UNL     1       5.869   4.229  17.049  0.00  0.00    +0.000 A 
ATOM     27  C   UNL     1       4.972   4.117  15.964  0.00  0.00    +0.000 A 
ATOM     28  C   UNL     1       5.352   4.463  14.660  0.00  0.00    +0.000 A 
ATOM     29  C   UNL     1       6.639   4.925  14.413  0.00  0.00    +0.000 A 
ATOM     30  C   UNL     1       7.557   4.988  15.457  0.00  0.00    +0.000 A 
ATOM     31  C   UNL     1       7.184   4.625  16.756  0.00  0.00    +0.000 A 
ENDBRANCH  25  26
ENDBRANCH   1  25
TORSDOF 6
ENDMDL
MODEL 5
REMARK VINA RESULT:      -8.9      1.969      2.744
REMARK  Name = 
REMARK  7 active torsions:
REMARK  status: ('A' for Active; 'I' for Inactive)
REMARK    1  A    between atoms: C_1  and  C_2
REMARK    2  A    between atoms: C_2  and  C_3
REMARK    3  A    between atoms: C_2  and  N_9
REMARK    4  A    between atoms: C_10  and  C_11
REMARK    5  A    between atoms: C_15  and  C_16
REMARK    6  A    between atoms: C_17  and  C_18
REMARK    7  A    between atoms: N_20  and  O_21
REMARK                            x       y       z     vdW  Elec       q    Type
REMARK                         _______ _______ _______ _____ _____    ______ ____
ROOT
ATOM      1  N   UNL     1       4.922   3.979  17.391  0.00  0.00    +0.000 N 
ATOM      2  C   UNL     1       4.790   4.847  18.477  0.00  0.00    +0.000 A 
ATOM      3  N   UNL     1       4.920   4.083  19.556  0.00  0.00    +0.000 NA
ATOM      4  C   UNL     1       4.182   2.979  19.180  0.00  0.00    +0.000 A 
ATOM      5  C   UNL     1       3.359   2.219  20.025  0.00  0.00    +0.000 A 
ATOM      6  C   UNL     1       2.045   2.049  19.583  0.00  0.00    +0.000 A 
ATOM      7  C   UNL     1       1.674   2.452  18.298  0.00  0.00    +0.000 A 
ATOM      8  C   UNL     1       2.630   2.867  17.345  0.00  0.00    +0.000 A 
ATOM      9  C   UNL     1       3.961   3.040  17.782  0.00  0.00    +0.000 A 
ENDROOT
BRANCH   2  10
ATOM     10  C   UNL     1       3.983   6.051  18.261  0.00  0.00    +0.000 A 
ATOM     11  C   UNL     1       4.138   6.878  17.154  0.00  0.00    +0.000 A 
ATOM     12  C   UNL     1       3.426   8.076  17.102  0.00  0.00    +0.000 A 
ATOM     13  C   UNL     1       2.535   8.445  18.122  0.00  0.00    +0.000 A 
ATOM     14  C   UNL     1       2.400   7.643  19.266  0.00  0.00    +0.000 A 
ATOM     15  C   UNL     1       3.162   6.483  19.315  0.00  0.00    +0.000 A 
BRANCH  14  16
ATOM     16  C   UNL     1       1.390   7.879  20.301  0.00  0.00    +0.000 C 
ATOM     17  C   UNL     1       0.649   8.997  20.439  0.00  0.00    +0.000 C 
BRANCH  17  18
ATOM     18  C   UNL     1      -0.107   9.199  21.705  0.00  0.00    +0.000 C 
ATOM     19  O   UNL     1      -0.733   8.305  22.264  0.00  0.00    +0.000 OA
ATOM     20  N   UNL     1       0.016  10.451  22.245  0.00  0.00    +0.000 N 
ATOM     21  H   UNL     1       0.591  11.204  21.888  0.00  0.00    +0.000 HD
BRANCH  20  22
ATOM     22  O   UNL     1      -0.551  10.635  23.529  0.00  0.00    +0.000 OA
ATOM     23  H   UNL     1      -1.181   9.882  23.594  0.00  0.00    +0.000 HD
ENDBRANCH  20  22
ENDBRANCH  17  18
ENDBRANCH  14  16
ENDBRANCH   2  10
BRANCH   1  25
ATOM     24  C   UNL     1       7.312   4.807  17.409  0.00  0.00    +0.000 C 
ATOM     25  C   UNL     1       6.231   3.919  16.705  0.00  0.00    +0.000 C 
BRANCH  25  26
ATOM     26  C   UNL     1       6.273   4.310  15.217  0.00  0.00    +0.000 A 
ATOM     27  C   UNL     1       7.311   5.087  14.657  0.00  0.00    +0.000 A 
ATOM     28  C   UNL     1       7.579   5.070  13.281  0.00  0.00    +0.000 A 
ATOM     29  C   UNL     1       6.812   4.279  12.435  0.00  0.00    +0.000 A 
ATOM     30  C   UNL     1       5.746   3.550  12.956  0.00  0.00    +0.000 A 
ATOM     31  C   UNL     1       5.466   3.581  14.327  0.00  0.00    +0.000 A 
ENDBRANCH  25  26
ENDBRANCH   1  25
TORSDOF 6
ENDMDL
MODEL 6
REMARK VINA RESULT:      -8.7      2.404      5.024
REMARK  Name = 
REMARK  7 active torsions:
REMARK  status: ('A' for Active; 'I' for Inactive)
REMARK    1  A    between atoms: C_1  and  C_2
REMARK    2  A    between atoms: C_2  and  C_3
REMARK    3  A    between atoms: C_2  and  N_9
REMARK    4  A    between atoms: C_10  and  C_11
REMARK    5  A    between atoms: C_15  and  C_16
REMARK    6  A    between atoms: C_17  and  C_18
REMARK    7  A    between atoms: N_20  and  O_21
REMARK                            x       y       z     vdW  Elec       q    Type
REMARK                         _______ _______ _______ _____ _____    ______ ____
ROOT
ATOM      1  N   UNL     1       4.527   4.470  18.224  0.00  0.00    +0.000 N 
ATOM      2  C   UNL     1       3.830   5.544  17.667  0.00  0.00    +0.000 A 
ATOM      3  N   UNL     1       4.428   5.788  16.507  0.00  0.00    +0.000 NA
ATOM      4  C   UNL     1       5.753   5.654  16.867  0.00  0.00    +0.000 A 
ATOM      5  C   UNL     1       6.815   6.436  16.386  0.00  0.00    +0.000 A 
ATOM      6  C   UNL     1       7.607   7.036  17.367  0.00  0.00    +0.000 A 
ATOM      7  C   UNL     1       7.441   6.699  18.712  0.00  0.00    +0.000 A 
ATOM      8  C   UNL     1       6.617   5.625  19.113  0.00  0.00    +0.000 A 
ATOM      9  C   UNL     1       5.814   5.011  18.128  0.00  0.00    +0.000 A 
ENDROOT
BRANCH   2  10
ATOM     10  C   UNL     1       3.173   6.459  18.605  0.00  0.00    +0.000 A 
ATOM     11  C   UNL     1       2.875   6.112  19.918  0.00  0.00    +0.000 A 
ATOM     12  C   UNL     1       2.125   6.994  20.695  0.00  0.00    +0.000 A 
ATOM     13  C   UNL     1       1.697   8.233  20.193  0.00  0.00    +0.000 A 
ATOM     14  C   UNL     1       1.951   8.579  18.856  0.00  0.00    +0.000 A 
ATOM     15  C   UNL     1       2.654   7.657  18.090  0.00  0.00    +0.000 A 
BRANCH  14  16
ATOM     16  C   UNL     1       1.670   9.904  18.300  0.00  0.00    +0.000 C 
ATOM     17  C   UNL     1       1.595  11.054  19.000  0.00  0.00    +0.000 C 
BRANCH  17  18
ATOM     18  C   UNL     1       1.009  12.253  18.342  0.00  0.00    +0.000 C 
ATOM     19  O   UNL     1       1.681  13.206  17.960  0.00  0.00    +0.000 OA
ATOM     20  N   UNL     1      -0.340  12.176  18.122  0.00  0.00    +0.000 N 
ATOM     21  H   UNL     1      -0.936  11.383  18.324  0.00  0.00    +0.000 HD
BRANCH  20  22
ATOM     22  O   UNL     1      -0.907  13.221  17.353  0.00  0.00    +0.000 OA
ATOM     23  H   UNL     1      -1.691  13.479  17.888  0.00  0.00    +0.000 HD
ENDBRANCH  20  22
ENDBRANCH  17  18
ENDBRANCH  14  16
ENDBRANCH   2  10
BRANCH   1  25
ATOM     24  C   UNL     1       3.130   2.951  16.762  0.00  0.00    +0.000 C 
ATOM     25  C   UNL     1       3.943   3.118  18.090  0.00  0.00    +0.000 C 
BRANCH  25  26
ATOM     26  C   UNL     1       3.013   2.630  19.215  0.00  0.00    +0.000 A 
ATOM     27  C   UNL     1       3.446   2.460  20.549  0.00  0.00    +0.000 A 
ATOM     28  C   UNL     1       2.540   2.448  21.619  0.00  0.00    +0.000 A 
ATOM     29  C   UNL     1       1.180   2.600  21.377  0.00  0.00    +0.000 A 
ATOM     30  C   UNL     1       0.725   2.710  20.066  0.00  0.00    +0.000 A 
ATOM     31  C   UNL     1       1.627   2.704  18.996  0.00  0.00    +0.000 A 
ENDBRANCH  25  26
ENDBRANCH   1  25
TORSDOF 6
ENDMDL
MODEL 7
REMARK VINA RESULT:      -8.5      5.191      8.594
REMARK  Name = 
REMARK  7 active torsions:
REMARK  status: ('A' for Active; 'I' for Inactive)
REMARK    1  A    between atoms: C_1  and  C_2
REMARK    2  A    between atoms: C_2  and  C_3
REMARK    3  A    between atoms: C_2  and  N_9
REMARK    4  A    between atoms: C_10  and  C_11
REMARK    5  A    between atoms: C_15  and  C_16
REMARK    6  A    between atoms: C_17  and  C_18
REMARK    7  A    between atoms: N_20  and  O_21
REMARK                            x       y       z     vdW  Elec       q    Type
REMARK                         _______ _______ _______ _____ _____    ______ ____
ROOT
ATOM      1  N   UNL     1       4.599   5.708  17.354  0.00  0.00    +0.000 N 
ATOM      2  C   UNL     1       5.293   4.521  17.109  0.00  0.00    +0.000 A 
ATOM      3  N   UNL     1       5.807   4.165  18.280  0.00  0.00    +0.000 NA
ATOM      4  C   UNL     1       6.237   5.388  18.755  0.00  0.00    +0.000 A 
ATOM      5  C   UNL     1       7.411   5.613  19.490  0.00  0.00    +0.000 A 
ATOM      6  C   UNL     1       8.257   6.598  18.975  0.00  0.00    +0.000 A 
ATOM      7  C   UNL     1       7.837   7.410  17.920  0.00  0.00    +0.000 A 
ATOM      8  C   UNL     1       6.502   7.399  17.460  0.00  0.00    +0.000 A 
ATOM      9  C   UNL     1       5.638   6.409  17.976  0.00  0.00    +0.000 A 
ENDROOT
BRANCH   2  10
ATOM     10  C   UNL     1       5.810   4.332  15.750  0.00  0.00    +0.000 A 
ATOM     11  C   UNL     1       7.160   4.433  15.432  0.00  0.00    +0.000 A 
ATOM     12  C   UNL     1       7.543   4.377  14.093  0.00  0.00    +0.000 A 
ATOM     13  C   UNL     1       6.603   4.188  13.067  0.00  0.00    +0.000 A 
ATOM     14  C   UNL     1       5.233   4.129  13.368  0.00  0.00    +0.000 A 
ATOM     15  C   UNL     1       4.876   4.241  14.705  0.00  0.00    +0.000 A 
BRANCH  14  16
ATOM     16  C   UNL     1       4.206   3.788  12.381  0.00  0.00    +0.000 C 
ATOM     17  C   UNL     1       4.426   3.486  11.085  0.00  0.00    +0.000 C 
BRANCH  17  18
ATOM     18  C   UNL     1       3.267   3.459  10.152  0.00  0.00    +0.000 C 
ATOM     19  O   UNL     1       2.581   2.461   9.961  0.00  0.00    +0.000 OA
ATOM     20  N   UNL     1       2.974   4.667   9.578  0.00  0.00    +0.000 N 
ATOM     21  H   UNL     1       3.438   5.548   9.764  0.00  0.00    +0.000 HD
BRANCH  20  22
ATOM     22  O   UNL     1       1.784   4.722   8.814  0.00  0.00    +0.000 OA
ATOM     23  H   UNL     1       2.118   4.925   7.911  0.00  0.00    +0.000 HD
ENDBRANCH  20  22
ENDBRANCH  17  18
ENDBRANCH  14  16
ENDBRANCH   2  10
BRANCH   1  25
ATOM     24  C   UNL     1       2.518   6.993  17.996  0.00  0.00    +0.000 C 
ATOM     25  C   UNL     1       3.132   5.631  17.527  0.00  0.00    +0.000 C 
BRANCH  25  26
ATOM     26  C   UNL     1       2.584   4.569  18.496  0.00  0.00    +0.000 A 
ATOM     27  C   UNL     1       2.357   4.825  19.867  0.00  0.00    +0.000 A 
ATOM     28  C   UNL     1       1.479   4.038  20.625  0.00  0.00    +0.000 A 
ATOM     29  C   UNL     1       0.813   2.974  20.029  0.00  0.00    +0.000 A 
ATOM     30  C   UNL     1       1.066   2.666  18.695  0.00  0.00    +0.000 A 
ATOM     31  C   UNL     1       1.956   3.441  17.943  0.00  0.00    +0.000 A 
ENDBRANCH  25  26
ENDBRANCH   1  25
TORSDOF 6
ENDMDL
MODEL 8
REMARK VINA RESULT:      -8.5      0.607      1.087
REMARK  Name = 
REMARK  7 active torsions:
REMARK  status: ('A' for Active; 'I' for Inactive)
REMARK    1  A    between atoms: C_1  and  C_2
REMARK    2  A    between atoms: C_2  and  C_3
REMARK    3  A    between atoms: C_2  and  N_9
REMARK    4  A    between atoms: C_10  and  C_11
REMARK    5  A    between atoms: C_15  and  C_16
REMARK    6  A    between atoms: C_17  and  C_18
REMARK    7  A    between atoms: N_20  and  O_21
REMARK                            x       y       z     vdW  Elec       q    Type
REMARK                         _______ _______ _______ _____ _____    ______ ____
ROOT
ATOM      1  N   UNL     1       3.670   4.958  18.008  0.00  0.00    +0.000 N 
ATOM      2  C   UNL     1       3.449   5.752  19.136  0.00  0.00    +0.000 A 
ATOM      3  N   UNL     1       3.557   4.930  20.172  0.00  0.00    +0.000 NA
ATOM      4  C   UNL     1       2.885   3.823  19.694  0.00  0.00    +0.000 A 
ATOM      5  C   UNL     1       2.054   2.982  20.450  0.00  0.00    +0.000 A 
ATOM      6  C   UNL     1       0.772   2.788  19.931  0.00  0.00    +0.000 A 
ATOM      7  C   UNL     1       0.448   3.255  18.655  0.00  0.00    +0.000 A 
ATOM      8  C   UNL     1       1.431   3.764  17.779  0.00  0.00    +0.000 A 
ATOM      9  C   UNL     1       2.731   3.960  18.293  0.00  0.00    +0.000 A 
ENDROOT
BRANCH   2  10
ATOM     10  C   UNL     1       2.605   6.936  18.949  0.00  0.00    +0.000 A 
ATOM     11  C   UNL     1       2.358   7.502  17.704  0.00  0.00    +0.000 A 
ATOM     12  C   UNL     1       1.660   8.707  17.637  0.00  0.00    +0.000 A 
ATOM     13  C   UNL     1       1.173   9.339  18.793  0.00  0.00    +0.000 A 
ATOM     14  C   UNL     1       1.452   8.803  20.060  0.00  0.00    +0.000 A 
ATOM     15  C   UNL     1       2.196   7.631  20.099  0.00  0.00    +0.000 A 
BRANCH  14  16
ATOM     16  C   UNL     1       0.860   9.315  21.299  0.00  0.00    +0.000 C 
ATOM     17  C   UNL     1      -0.438   9.633  21.480  0.00  0.00    +0.000 C 
BRANCH  17  18
ATOM     18  C   UNL     1      -0.817  10.416  22.687  0.00  0.00    +0.000 C 
ATOM     19  O   UNL     1      -0.432  10.138  23.818  0.00  0.00    +0.000 OA
ATOM     20  N   UNL     1      -1.574  11.528  22.427  0.00  0.00    +0.000 N 
ATOM     21  H   UNL     1      -1.846  11.867  21.513  0.00  0.00    +0.000 HD
BRANCH  20  22
ATOM     22  O   UNL     1      -1.817  12.387  23.525  0.00  0.00    +0.000 OA
ATOM     23  H   UNL     1      -2.730  12.136  23.795  0.00  0.00    +0.000 HD
ENDBRANCH  20  22
ENDBRANCH  17  18
ENDBRANCH  14  16
ENDBRANCH   2  10
BRANCH   1  25
ATOM     24  C   UNL     1       5.731   3.600  17.454  0.00  0.00    +0.000 C 
ATOM     25  C   UNL     1       5.013   4.990  17.388  0.00  0.00    +0.000 C 
BRANCH  25  26
ATOM     26  C   UNL     1       6.025   6.012  17.936  0.00  0.00    +0.000 A 
ATOM     27  C   UNL     1       7.001   5.681  18.902  0.00  0.00    +0.000 A 
ATOM     28  C   UNL     1       8.160   6.453  19.068  0.00  0.00    +0.000 A 
ATOM     29  C   UNL     1       8.365   7.575  18.275  0.00  0.00    +0.000 A 
ATOM     30  C   UNL     1       7.389   7.953  17.357  0.00  0.00    +0.000 A 
ATOM     31  C   UNL     1       6.223   7.193  17.203  0.00  0.00    +0.000 A 
ENDBRANCH  25  26
ENDBRANCH   1  25
TORSDOF 6
ENDMDL
MODEL 9
REMARK VINA RESULT:      -8.3      0.999      1.169
REMARK  Name = 
REMARK  7 active torsions:
REMARK  status: ('A' for Active; 'I' for Inactive)
REMARK    1  A    between atoms: C_1  and  C_2
REMARK    2  A    between atoms: C_2  and  C_3
REMARK    3  A    between atoms: C_2  and  N_9
REMARK    4  A    between atoms: C_10  and  C_11
REMARK    5  A    between atoms: C_15  and  C_16
REMARK    6  A    between atoms: C_17  and  C_18
REMARK    7  A    between atoms: N_20  and  O_21
REMARK                            x       y       z     vdW  Elec       q    Type
REMARK                         _______ _______ _______ _____ _____    ______ ____
ROOT
ATOM      1  N   UNL     1       3.953   4.880  17.346  0.00  0.00    +0.000 N 
ATOM      2  C   UNL     1       3.946   5.687  18.485  0.00  0.00    +0.000 A 
ATOM      3  N   UNL     1       4.293   4.887  19.486  0.00  0.00    +0.000 NA
ATOM      4  C   UNL     1       3.572   3.753  19.171  0.00  0.00    +0.000 A 
ATOM      5  C   UNL     1       2.942   2.903  20.093  0.00  0.00    +0.000 A 
ATOM      6  C   UNL     1       1.587   2.664  19.854  0.00  0.00    +0.000 A 
ATOM      7  C   UNL     1       0.991   3.098  18.669  0.00  0.00    +0.000 A 
ATOM      8  C   UNL     1       1.754   3.619  17.601  0.00  0.00    +0.000 A 
ATOM      9  C   UNL     1       3.125   3.862  17.831  0.00  0.00    +0.000 A 
ENDROOT
BRANCH   2  10
ATOM     10  C   UNL     1       3.044   6.843  18.465  0.00  0.00    +0.000 A 
ATOM     11  C   UNL     1       2.901   7.673  17.359  0.00  0.00    +0.000 A 
ATOM     12  C   UNL     1       2.129   8.828  17.478  0.00  0.00    +0.000 A 
ATOM     13  C   UNL     1       1.469   9.150  18.674  0.00  0.00    +0.000 A 
ATOM     14  C   UNL     1       1.639   8.346  19.813  0.00  0.00    +0.000 A 
ATOM     15  C   UNL     1       2.457   7.232  19.680  0.00  0.00    +0.000 A 
BRANCH  14  16
ATOM     16  C   UNL     1       0.874   8.528  21.049  0.00  0.00    +0.000 C 
ATOM     17  C   UNL     1       0.487   9.710  21.570  0.00  0.00    +0.000 C 
BRANCH  17  18
ATOM     18  C   UNL     1      -0.014   9.741  22.971  0.00  0.00    +0.000 C 
ATOM     19  O   UNL     1      -1.150  10.091  23.271  0.00  0.00    +0.000 OA
ATOM     20  N   UNL     1       0.874   9.270  23.901  0.00  0.00    +0.000 N 
ATOM     21  H   UNL     1       1.789   8.879  23.713  0.00  0.00    +0.000 HD
BRANCH  20  22
ATOM     22  O   UNL     1       0.379   9.130  25.220  0.00  0.00    +0.000 OA
ATOM     23  H   UNL     1      -0.539   9.472  25.141  0.00  0.00    +0.000 HD
ENDBRANCH  20  22
ENDBRANCH  17  18
ENDBRANCH  14  16
ENDBRANCH   2  10
BRANCH   1  25
ATOM     24  C   UNL     1       5.606   3.518  15.999  0.00  0.00    +0.000 C 
ATOM     25  C   UNL     1       5.136   4.940  16.459  0.00  0.00    +0.000 C 
BRANCH  25  26
ATOM     26  C   UNL     1       6.394   5.643  16.998  0.00  0.00    +0.000 A 
ATOM     27  C   UNL     1       6.626   7.028  16.841  0.00  0.00    +0.000 A 
ATOM     28  C   UNL     1       7.509   7.724  17.678  0.00  0.00    +0.000 A 
ATOM     29  C   UNL     1       8.183   7.049  18.688  0.00  0.00    +0.000 A 
ATOM     30  C   UNL     1       8.016   5.674  18.824  0.00  0.00    +0.000 A 
ATOM     31  C   UNL     1       7.148   4.975  17.977  0.00  0.00    +0.000 A 
ENDBRANCH  25  26
ENDBRANCH   1  25
TORSDOF 6
ENDMDL
