MODEL 1
REMARK VINA RESULT:      -9.1      0.000      0.000
REMARK  Name = 
REMARK  5 active torsions:
REMARK  status: ('A' for Active; 'I' for Inactive)
REMARK    1  A    between atoms: N_2  and  C_3
REMARK    2  A    between atoms: C_8  and  C_9
REMARK    3  A    between atoms: C_15  and  C_17
REMARK    4  A    between atoms: C_17  and  C_18
REMARK    5  A    between atoms: C_28  and  C_29
REMARK                            x       y       z     vdW  Elec       q    Type
REMARK                         _______ _______ _______ _____ _____    ______ ____
ROOT
ATOM      1  C   UNL     1       0.716   8.377  20.251  0.00  0.00    +0.000 C 
ATOM      2  C   UNL     1       1.429   7.318  21.126  0.00  0.00    +0.000 C 
ATOM      3  N   UNL     1       1.801   6.193  20.241  0.00  0.00    +0.000 NA
ATOM      4  C   UNL     1       2.303   5.025  20.978  0.00  0.00    +0.000 C 
ATOM      5  C   UNL     1       2.993   3.943  20.113  0.00  0.00    +0.000 C 
ATOM      6  N   UNL     1       3.811   4.487  19.024  0.00  0.00    +0.000 N 
ATOM      7  C   UNL     1       4.927   3.773  18.618  0.00  0.00    +0.000 C 
ATOM      8  O   UNL     1       5.311   2.767  19.220  0.00  0.00    +0.000 OA
ATOM      9  C   UNL     1       3.158   5.552  18.262  0.00  0.00    +0.000 C 
ATOM     10  C   UNL     1       2.742   6.690  19.207  0.00  0.00    +0.000 C 
ATOM     11  C   UNL     1       2.087   7.841  18.411  0.00  0.00    +0.000 C 
ATOM     12  O   UNL     1       1.657   8.902  19.284  0.00  0.00    +0.000 OA
ENDROOT
BRANCH   1  18
ATOM     13  C   UNL     1      -0.764  11.787  21.155  0.00  0.00    +0.000 A 
ATOM     14  C   UNL     1      -0.933  11.663  22.526  0.00  0.00    +0.000 A 
ATOM     15  F   UNL     1      -1.363  12.698  23.259  0.00  0.00    +0.000 F 
ATOM     16  C   UNL     1      -0.645  10.462  23.157  0.00  0.00    +0.000 A 
ATOM     17  C   UNL     1      -0.155   9.386  22.413  0.00  0.00    +0.000 A 
ATOM     18  C   UNL     1       0.064   9.505  21.027  0.00  0.00    +0.000 A 
ATOM     19  C   UNL     1      -0.281  10.719  20.392  0.00  0.00    +0.000 A 
ATOM     20 CL   UNL     1      -0.104  10.908  18.677  0.00  0.00    +0.000 Cl
BRANCH  13  22
ATOM     21  C   UNL     1      -1.313  14.049  20.081  0.00  0.00    +0.000 C 
ATOM     22  N   UNL     1      -1.064  13.006  20.571  0.00  0.00    +0.000 NA
ENDBRANCH  13  22
ENDBRANCH   1  18
BRANCH   7  23
ATOM     23  C   UNL     1       5.685   4.245  17.382  0.00  0.00    +0.000 C 
BRANCH  23  24
ATOM     24  C   UNL     1       6.428   5.549  17.587  0.00  0.00    +0.000 A 
ATOM     25  C   UNL     1       7.353   5.672  18.634  0.00  0.00    +0.000 A 
ATOM     26  C   UNL     1       8.028   6.867  18.852  0.00  0.00    +0.000 A 
ATOM     27  C   UNL     1       7.737   7.941  18.028  0.00  0.00    +0.000 A 
ATOM     28  N   UNL     1       8.391   9.174  18.247  0.00  0.00    +0.000 N 
ATOM     29  C   UNL     1       8.203  10.349  17.567  0.00  0.00    +0.000 A 
ATOM     30  N   UNL     1       9.004  11.265  18.061  0.00  0.00    +0.000 NA
ATOM     31  N   UNL     1       9.700  10.648  19.071  0.00  0.00    +0.000 NA
ATOM     32  N   UNL     1       9.335   9.378  19.193  0.00  0.00    +0.000 NA
ATOM     33  N   UNL     1       6.834   7.866  17.012  0.00  0.00    +0.000 NA
ATOM     34  C   UNL     1       6.193   6.685  16.799  0.00  0.00    +0.000 A 
ATOM     35  C   UNL     1       5.223   6.680  15.653  0.00  0.00    +0.000 C 
ENDBRANCH  23  24
ENDBRANCH   7  23
TORSDOF 4
ENDMDL
MODEL 2
REMARK VINA RESULT:      -8.6      4.382     11.254
REMARK  Name = 
REMARK  5 active torsions:
REMARK  status: ('A' for Active; 'I' for Inactive)
REMARK    1  A    between atoms: N_2  and  C_3
REMARK    2  A    between atoms: C_8  and  C_9
REMARK    3  A    between atoms: C_15  and  C_17
REMARK    4  A    between atoms: C_17  and  C_18
REMARK    5  A    between atoms: C_28  and  C_29
REMARK                            x       y       z     vdW  Elec       q    Type
REMARK                         _______ _______ _______ _____ _____    ______ ____
ROOT
ATOM      1  C   UNL     1       2.013   7.689  18.767  0.00  0.00    +0.000 C 
ATOM      2  C   UNL     1       2.239   9.119  18.220  0.00  0.00    +0.000 C 
ATOM      3  N   UNL     1       1.104   9.950  18.678  0.00  0.00    +0.000 NA
ATOM      4  C   UNL     1       1.083  11.283  18.059  0.00  0.00    +0.000 C 
ATOM      5  C   UNL     1       0.119  12.301  18.714  0.00  0.00    +0.000 C 
ATOM      6  N   UNL     1       0.062  12.208  20.176  0.00  0.00    +0.000 N 
ATOM      7  C   UNL     1      -0.191  13.362  20.902  0.00  0.00    +0.000 C 
ATOM      8  O   UNL     1      -0.251  14.470  20.362  0.00  0.00    +0.000 OA
ATOM      9  C   UNL     1      -0.059  10.840  20.683  0.00  0.00    +0.000 C 
ATOM     10  C   UNL     1       1.106   9.985  20.161  0.00  0.00    +0.000 C 
ATOM     11  C   UNL     1       1.013   8.548  20.720  0.00  0.00    +0.000 C 
ATOM     12  O   UNL     1       2.077   7.720  20.214  0.00  0.00    +0.000 OA
ENDROOT
BRANCH   1  18
ATOM     13  C   UNL     1       3.736   4.342  18.084  0.00  0.00    +0.000 A 
ATOM     14  C   UNL     1       4.855   4.744  17.371  0.00  0.00    +0.000 A 
ATOM     15  F   UNL     1       5.789   3.857  17.003  0.00  0.00    +0.000 F 
ATOM     16  C   UNL     1       5.026   6.081  17.040  0.00  0.00    +0.000 A 
ATOM     17  C   UNL     1       4.084   7.025  17.453  0.00  0.00    +0.000 A 
ATOM     18  C   UNL     1       2.962   6.643  18.215  0.00  0.00    +0.000 A 
ATOM     19  C   UNL     1       2.778   5.271  18.501  0.00  0.00    +0.000 A 
ATOM     20 CL   UNL     1       1.381   4.723  19.372  0.00  0.00    +0.000 Cl
BRANCH  13  22
ATOM     21  C   UNL     1       3.514   1.852  18.650  0.00  0.00    +0.000 C 
ATOM     22  N   UNL     1       3.611   2.998  18.392  0.00  0.00    +0.000 NA
ENDBRANCH  13  22
ENDBRANCH   1  18
BRANCH   7  23
ATOM     23  C   UNL     1      -0.416  13.244  22.405  0.00  0.00    +0.000 C 
BRANCH  23  24
ATOM     24  C   UNL     1      -1.874  13.320  22.807  0.00  0.00    +0.000 A 
ATOM     25  C   UNL     1      -2.618  12.142  22.975  0.00  0.00    +0.000 A 
ATOM     26  C   UNL     1      -3.961  12.191  23.322  0.00  0.00    +0.000 A 
ATOM     27  C   UNL     1      -4.554  13.435  23.466  0.00  0.00    +0.000 A 
ATOM     28  N   UNL     1      -5.926  13.510  23.793  0.00  0.00    +0.000 N 
ATOM     29  C   UNL     1      -6.688  14.640  23.934  0.00  0.00    +0.000 A 
ATOM     30  N   UNL     1      -7.916  14.295  24.251  0.00  0.00    +0.000 NA
ATOM     31  N   UNL     1      -7.917  12.923  24.303  0.00  0.00    +0.000 NA
ATOM     32  N   UNL     1      -6.714  12.436  24.026  0.00  0.00    +0.000 NA
ATOM     33  N   UNL     1      -3.871  14.600  23.297  0.00  0.00    +0.000 NA
ATOM     34  C   UNL     1      -2.550  14.537  22.973  0.00  0.00    +0.000 A 
ATOM     35  C   UNL     1      -1.866  15.864  22.816  0.00  0.00    +0.000 C 
ENDBRANCH  23  24
ENDBRANCH   7  23
TORSDOF 4
ENDMDL
MODEL 3
REMARK VINA RESULT:      -8.4      4.331     11.124
REMARK  Name = 
REMARK  5 active torsions:
REMARK  status: ('A' for Active; 'I' for Inactive)
REMARK    1  A    between atoms: N_2  and  C_3
REMARK    2  A    between atoms: C_8  and  C_9
REMARK    3  A    between atoms: C_15  and  C_17
REMARK    4  A    between atoms: C_17  and  C_18
REMARK    5  A    between atoms: C_28  and  C_29
REMARK                            x       y       z     vdW  Elec       q    Type
REMARK                         _______ _______ _______ _____ _____    ______ ____
ROOT
ATOM      1  C   UNL     1       2.182   7.617  18.599  0.00  0.00    +0.000 C 
ATOM      2  C   UNL     1       2.476   9.051  18.096  0.00  0.00    +0.000 C 
ATOM      3  N   UNL     1       1.347   9.907  18.523  0.00  0.00    +0.000 NA
ATOM      4  C   UNL     1       1.394  11.253  17.935  0.00  0.00    +0.000 C 
ATOM      5  C   UNL     1       0.433  12.286  18.571  0.00  0.00    +0.000 C 
ATOM      6  N   UNL     1       0.308  12.163  20.026  0.00  0.00    +0.000 N 
ATOM      7  C   UNL     1       0.058  13.307  20.767  0.00  0.00    +0.000 C 
ATOM      8  O   UNL     1       0.056  14.428  20.251  0.00  0.00    +0.000 OA
ATOM      9  C   UNL     1       0.123  10.788  20.495  0.00  0.00    +0.000 C 
ATOM     10  C   UNL     1       1.283   9.909  20.005  0.00  0.00    +0.000 C 
ATOM     11  C   UNL     1       1.122   8.463  20.526  0.00  0.00    +0.000 C 
ATOM     12  O   UNL     1       2.182   7.614  20.047  0.00  0.00    +0.000 OA
ENDROOT
BRANCH   1  18
ATOM     13  C   UNL     1       3.813   4.229  17.889  0.00  0.00    +0.000 A 
ATOM     14  C   UNL     1       4.990   4.612  17.264  0.00  0.00    +0.000 A 
ATOM     15  F   UNL     1       5.909   3.701  16.919  0.00  0.00    +0.000 F 
ATOM     16  C   UNL     1       5.234   5.951  16.998  0.00  0.00    +0.000 A 
ATOM     17  C   UNL     1       4.304   6.918  17.390  0.00  0.00    +0.000 A 
ATOM     18  C   UNL     1       3.122   6.554  18.064  0.00  0.00    +0.000 A 
ATOM     19  C   UNL     1       2.867   5.181  18.283  0.00  0.00    +0.000 A 
ATOM     20 CL   UNL     1       1.397   4.659  19.043  0.00  0.00    +0.000 Cl
BRANCH  13  22
ATOM     21  C   UNL     1       3.448   1.731  18.331  0.00  0.00    +0.000 C 
ATOM     22  N   UNL     1       3.615   2.881  18.134  0.00  0.00    +0.000 NA
ENDBRANCH  13  22
ENDBRANCH   1  18
BRANCH   7  23
ATOM     23  C   UNL     1      -0.238  13.164  22.255  0.00  0.00    +0.000 C 
BRANCH  23  24
ATOM     24  C   UNL     1      -1.712  13.243  22.591  0.00  0.00    +0.000 A 
ATOM     25  C   UNL     1      -2.403  14.454  22.436  0.00  0.00    +0.000 A 
ATOM     26  C   UNL     1      -3.750  14.553  22.759  0.00  0.00    +0.000 A 
ATOM     27  C   UNL     1      -4.384  13.431  23.270  0.00  0.00    +0.000 A 
ATOM     28  N   UNL     1      -5.747  13.515  23.631  0.00  0.00    +0.000 N 
ATOM     29  C   UNL     1      -6.523  12.532  24.186  0.00  0.00    +0.000 A 
ATOM     30  N   UNL     1      -7.739  12.994  24.367  0.00  0.00    +0.000 NA
ATOM     31  N   UNL     1      -7.716  14.291  23.919  0.00  0.00    +0.000 NA
ATOM     32  N   UNL     1      -6.512  14.618  23.470  0.00  0.00    +0.000 NA
ATOM     33  N   UNL     1      -3.744  12.243  23.450  0.00  0.00    +0.000 NA
ATOM     34  C   UNL     1      -2.428  12.157  23.113  0.00  0.00    +0.000 A 
ATOM     35  C   UNL     1      -1.800  10.810  23.329  0.00  0.00    +0.000 C 
ENDBRANCH  23  24
ENDBRANCH   7  23
TORSDOF 4
ENDMDL
MODEL 4
REMARK VINA RESULT:      -8.4      1.115      1.228
REMARK  Name = 
REMARK  5 active torsions:
REMARK  status: ('A' for Active; 'I' for Inactive)
REMARK    1  A    between atoms: N_2  and  C_3
REMARK    2  A    between atoms: C_8  and  C_9
REMARK    3  A    between atoms: C_15  and  C_17
REMARK    4  A    between atoms: C_17  and  C_18
REMARK    5  A    between atoms: C_28  and  C_29
REMARK                            x       y       z     vdW  Elec       q    Type
REMARK                         _______ _______ _______ _____ _____    ______ ____
ROOT
ATOM      1  C   UNL     1       0.887   8.994  19.428  0.00  0.00    +0.000 C 
ATOM      2  C   UNL     1       1.414   7.989  20.481  0.00  0.00    +0.000 C 
ATOM      3  N   UNL     1       1.829   6.768  19.755  0.00  0.00    +0.000 NA
ATOM      4  C   UNL     1       2.158   5.652  20.652  0.00  0.00    +0.000 C 
ATOM      5  C   UNL     1       2.887   4.461  19.986  0.00  0.00    +0.000 C 
ATOM      6  N   UNL     1       3.871   4.859  18.975  0.00  0.00    +0.000 N 
ATOM      7  C   UNL     1       4.986   4.056  18.787  0.00  0.00    +0.000 C 
ATOM      8  O   UNL     1       5.226   3.094  19.521  0.00  0.00    +0.000 OA
ATOM      9  C   UNL     1       3.390   5.878  18.041  0.00  0.00    +0.000 C 
ATOM     10  C   UNL     1       2.925   7.119  18.819  0.00  0.00    +0.000 C 
ATOM     11  C   UNL     1       2.451   8.220  17.844  0.00  0.00    +0.000 C 
ATOM     12  O   UNL     1       1.977   9.379  18.555  0.00  0.00    +0.000 OA
ENDROOT
BRANCH   1  18
ATOM     13  C   UNL     1      -1.625  11.815  20.034  0.00  0.00    +0.000 A 
ATOM     14  C   UNL     1      -0.932  12.620  20.925  0.00  0.00    +0.000 A 
ATOM     15  F   UNL     1      -1.444  13.787  21.335  0.00  0.00    +0.000 F 
ATOM     16  C   UNL     1       0.312  12.226  21.396  0.00  0.00    +0.000 A 
ATOM     17  C   UNL     1       0.880  11.032  20.945  0.00  0.00    +0.000 A 
ATOM     18  C   UNL     1       0.210  10.221  20.007  0.00  0.00    +0.000 A 
ATOM     19  C   UNL     1      -1.078  10.612  19.577  0.00  0.00    +0.000 A 
ATOM     20 CL   UNL     1      -1.987   9.624  18.479  0.00  0.00    +0.000 Cl
BRANCH  13  22
ATOM     21  C   UNL     1      -3.921  12.620  19.227  0.00  0.00    +0.000 C 
ATOM     22  N   UNL     1      -2.863  12.251  19.593  0.00  0.00    +0.000 NA
ENDBRANCH  13  22
ENDBRANCH   1  18
BRANCH   7  23
ATOM     23  C   UNL     1       5.926   4.371  17.629  0.00  0.00    +0.000 C 
BRANCH  23  24
ATOM     24  C   UNL     1       6.644   5.696  17.775  0.00  0.00    +0.000 A 
ATOM     25  C   UNL     1       7.565   5.884  18.817  0.00  0.00    +0.000 A 
ATOM     26  C   UNL     1       8.218   7.099  18.980  0.00  0.00    +0.000 A 
ATOM     27  C   UNL     1       7.910   8.129  18.107  0.00  0.00    +0.000 A 
ATOM     28  N   UNL     1       8.542   9.382  18.270  0.00  0.00    +0.000 N 
ATOM     29  C   UNL     1       8.335  10.521  17.536  0.00  0.00    +0.000 A 
ATOM     30  N   UNL     1       9.119  11.473  17.988  0.00  0.00    +0.000 NA
ATOM     31  N   UNL     1       9.823  10.916  19.027  0.00  0.00    +0.000 NA
ATOM     32  N   UNL     1       9.480   9.647  19.207  0.00  0.00    +0.000 NA
ATOM     33  N   UNL     1       7.012   7.991  17.094  0.00  0.00    +0.000 NA
ATOM     34  C   UNL     1       6.392   6.790  16.935  0.00  0.00    +0.000 A 
ATOM     35  C   UNL     1       5.425   6.715  15.789  0.00  0.00    +0.000 C 
ENDBRANCH  23  24
ENDBRANCH   7  23
TORSDOF 4
ENDMDL
MODEL 5
REMARK VINA RESULT:      -8.0      4.332      8.633
REMARK  Name = 
REMARK  5 active torsions:
REMARK  status: ('A' for Active; 'I' for Inactive)
REMARK    1  A    between atoms: N_2  and  C_3
REMARK    2  A    between atoms: C_8  and  C_9
REMARK    3  A    between atoms: C_15  and  C_17
REMARK    4  A    between atoms: C_17  and  C_18
REMARK    5  A    between atoms: C_28  and  C_29
REMARK                            x       y       z     vdW  Elec       q    Type
REMARK                         _______ _______ _______ _____ _____    ______ ____
ROOT
ATOM      1  C   UNL     1       2.274   7.145  19.542  0.00  0.00    +0.000 C 
ATOM      2  C   UNL     1       1.256   7.131  20.707  0.00  0.00    +0.000 C 
ATOM      3  N   UNL     1       1.167   8.512  21.231  0.00  0.00    +0.000 NA
ATOM      4  C   UNL     1       0.391   8.605  22.474  0.00  0.00    +0.000 C 
ATOM      5  C   UNL     1      -0.000  10.039  22.905  0.00  0.00    +0.000 C 
ATOM      6  N   UNL     1      -0.363  10.915  21.787  0.00  0.00    +0.000 N 
ATOM      7  C   UNL     1      -1.298  11.915  22.008  0.00  0.00    +0.000 C 
ATOM      8  O   UNL     1      -1.911  12.008  23.075  0.00  0.00    +0.000 OA
ATOM      9  C   UNL     1       0.560  10.849  20.653  0.00  0.00    +0.000 C 
ATOM     10  C   UNL     1       0.668   9.401  20.153  0.00  0.00    +0.000 C 
ATOM     11  C   UNL     1       1.609   9.321  18.930  0.00  0.00    +0.000 C 
ATOM     12  O   UNL     1       1.753   7.965  18.468  0.00  0.00    +0.000 OA
ENDROOT
BRANCH   1  18
ATOM     13  C   UNL     1       3.915   4.364  17.490  0.00  0.00    +0.000 A 
ATOM     14  C   UNL     1       3.209   3.249  17.915  0.00  0.00    +0.000 A 
ATOM     15  F   UNL     1       3.426   2.048  17.363  0.00  0.00    +0.000 F 
ATOM     16  C   UNL     1       2.255   3.369  18.916  0.00  0.00    +0.000 A 
ATOM     17  C   UNL     1       1.986   4.622  19.472  0.00  0.00    +0.000 A 
ATOM     18  C   UNL     1       2.663   5.773  19.024  0.00  0.00    +0.000 A 
ATOM     19  C   UNL     1       3.665   5.625  18.039  0.00  0.00    +0.000 A 
ATOM     20 CL   UNL     1       4.587   6.990  17.495  0.00  0.00    +0.000 Cl
BRANCH  13  22
ATOM     21  C   UNL     1       5.650   4.040  15.632  0.00  0.00    +0.000 C 
ATOM     22  N   UNL     1       4.856   4.193  16.488  0.00  0.00    +0.000 NA
ENDBRANCH  13  22
ENDBRANCH   1  18
BRANCH   7  23
ATOM     23  C   UNL     1      -1.556  12.930  20.902  0.00  0.00    +0.000 C 
BRANCH  23  24
ATOM     24  C   UNL     1      -0.348  13.780  20.565  0.00  0.00    +0.000 A 
ATOM     25  C   UNL     1       0.312  14.494  21.576  0.00  0.00    +0.000 A 
ATOM     26  C   UNL     1       1.408  15.296  21.283  0.00  0.00    +0.000 A 
ATOM     27  C   UNL     1       1.810  15.396  19.961  0.00  0.00    +0.000 A 
ATOM     28  N   UNL     1       2.905  16.226  19.636  0.00  0.00    +0.000 N 
ATOM     29  C   UNL     1       3.416  16.480  18.390  0.00  0.00    +0.000 A 
ATOM     30  N   UNL     1       4.441  17.295  18.503  0.00  0.00    +0.000 NA
ATOM     31  N   UNL     1       4.565  17.555  19.845  0.00  0.00    +0.000 NA
ATOM     32  N   UNL     1       3.638  16.911  20.542  0.00  0.00    +0.000 NA
ATOM     33  N   UNL     1       1.186  14.731  18.950  0.00  0.00    +0.000 NA
ATOM     34  C   UNL     1       0.125  13.936  19.254  0.00  0.00    +0.000 A 
ATOM     35  C   UNL     1      -0.500  13.228  18.086  0.00  0.00    +0.000 C 
ENDBRANCH  23  24
ENDBRANCH   7  23
TORSDOF 4
ENDMDL
MODEL 6
REMARK VINA RESULT:      -7.9      4.339      8.853
REMARK  Name = 
REMARK  5 active torsions:
REMARK  status: ('A' for Active; 'I' for Inactive)
REMARK    1  A    between atoms: N_2  and  C_3
REMARK    2  A    between atoms: C_8  and  C_9
REMARK    3  A    between atoms: C_15  and  C_17
REMARK    4  A    between atoms: C_17  and  C_18
REMARK    5  A    between atoms: C_28  and  C_29
REMARK                            x       y       z     vdW  Elec       q    Type
REMARK                         _______ _______ _______ _____ _____    ______ ____
ROOT
ATOM      1  C   UNL     1       2.421   7.233  18.972  0.00  0.00    +0.000 C 
ATOM      2  C   UNL     1       1.270   7.378  19.997  0.00  0.00    +0.000 C 
ATOM      3  N   UNL     1       1.267   8.783  20.459  0.00  0.00    +0.000 NA
ATOM      4  C   UNL     1       0.357   9.014  21.589  0.00  0.00    +0.000 C 
ATOM      5  C   UNL     1       0.073  10.499  21.918  0.00  0.00    +0.000 C 
ATOM      6  N   UNL     1      -0.051  11.355  20.735  0.00  0.00    +0.000 N 
ATOM      7  C   UNL     1      -0.892  12.455  20.801  0.00  0.00    +0.000 C 
ATOM      8  O   UNL     1      -1.619  12.661  21.776  0.00  0.00    +0.000 OA
ATOM      9  C   UNL     1       0.994  11.142  19.732  0.00  0.00    +0.000 C 
ATOM     10  C   UNL     1       1.006   9.668  19.297  0.00  0.00    +0.000 C 
ATOM     11  C   UNL     1       2.077   9.435  18.209  0.00  0.00    +0.000 C 
ATOM     12  O   UNL     1       2.129   8.052  17.814  0.00  0.00    +0.000 OA
ENDROOT
BRANCH   1  18
ATOM     13  C   UNL     1       3.982   4.206  17.229  0.00  0.00    +0.000 A 
ATOM     14  C   UNL     1       3.120   3.189  17.610  0.00  0.00    +0.000 A 
ATOM     15  F   UNL     1       3.271   1.947  17.131  0.00  0.00    +0.000 F 
ATOM     16  C   UNL     1       2.078   3.451  18.487  0.00  0.00    +0.000 A 
ATOM     17  C   UNL     1       1.880   4.751  18.962  0.00  0.00    +0.000 A 
ATOM     18  C   UNL     1       2.719   5.806  18.554  0.00  0.00    +0.000 A 
ATOM     19  C   UNL     1       3.805   5.511  17.699  0.00  0.00    +0.000 A 
ATOM     20 CL   UNL     1       4.919   6.750  17.215  0.00  0.00    +0.000 Cl
BRANCH  13  22
ATOM     21  C   UNL     1       5.883   3.624  15.611  0.00  0.00    +0.000 C 
ATOM     22  N   UNL     1       5.006   3.894  16.350  0.00  0.00    +0.000 NA
ENDBRANCH  13  22
ENDBRANCH   1  18
BRANCH   7  23
ATOM     23  C   UNL     1      -0.898  13.440  19.638  0.00  0.00    +0.000 C 
BRANCH  23  24
ATOM     24  C   UNL     1       0.290  14.379  19.632  0.00  0.00    +0.000 A 
ATOM     25  C   UNL     1       1.360  14.152  18.753  0.00  0.00    +0.000 A 
ATOM     26  C   UNL     1       2.468  14.989  18.748  0.00  0.00    +0.000 A 
ATOM     27  C   UNL     1       2.502  16.034  19.656  0.00  0.00    +0.000 A 
ATOM     28  N   UNL     1       3.631  16.883  19.688  0.00  0.00    +0.000 N 
ATOM     29  C   UNL     1       3.859  17.933  20.538  0.00  0.00    +0.000 A 
ATOM     30  N   UNL     1       5.017  18.480  20.244  0.00  0.00    +0.000 NA
ATOM     31  N   UNL     1       5.519  17.751  19.194  0.00  0.00    +0.000 NA
ATOM     32  N   UNL     1       4.686  16.779  18.848  0.00  0.00    +0.000 NA
ATOM     33  N   UNL     1       1.491  16.278  20.535  0.00  0.00    +0.000 NA
ATOM     34  C   UNL     1       0.404  15.460  20.518  0.00  0.00    +0.000 A 
ATOM     35  C   UNL     1      -0.671  15.803  21.508  0.00  0.00    +0.000 C 
ENDBRANCH  23  24
ENDBRANCH   7  23
TORSDOF 4
ENDMDL
MODEL 7
REMARK VINA RESULT:      -7.9      1.182      1.679
REMARK  Name = 
REMARK  5 active torsions:
REMARK  status: ('A' for Active; 'I' for Inactive)
REMARK    1  A    between atoms: N_2  and  C_3
REMARK    2  A    between atoms: C_8  and  C_9
REMARK    3  A    between atoms: C_15  and  C_17
REMARK    4  A    between atoms: C_17  and  C_18
REMARK    5  A    between atoms: C_28  and  C_29
REMARK                            x       y       z     vdW  Elec       q    Type
REMARK                         _______ _______ _______ _____ _____    ______ ____
ROOT
ATOM      1  C   UNL     1       1.030   9.248  19.344  0.00  0.00    +0.000 C 
ATOM      2  C   UNL     1       1.462   8.231  20.428  0.00  0.00    +0.000 C 
ATOM      3  N   UNL     1       1.814   6.972  19.735  0.00  0.00    +0.000 NA
ATOM      4  C   UNL     1       2.045   5.854  20.660  0.00  0.00    +0.000 C 
ATOM      5  C   UNL     1       2.711   4.605  20.035  0.00  0.00    +0.000 C 
ATOM      6  N   UNL     1       3.744   4.917  19.043  0.00  0.00    +0.000 N 
ATOM      7  C   UNL     1       4.808   4.040  18.899  0.00  0.00    +0.000 C 
ATOM      8  O   UNL     1       4.965   3.079  19.656  0.00  0.00    +0.000 OA
ATOM      9  C   UNL     1       3.355   5.948  18.079  0.00  0.00    +0.000 C 
ATOM     10  C   UNL     1       2.954   7.232  18.822  0.00  0.00    +0.000 C 
ATOM     11  C   UNL     1       2.578   8.342  17.816  0.00  0.00    +0.000 C 
ATOM     12  O   UNL     1       2.164   9.544  18.493  0.00  0.00    +0.000 OA
ENDROOT
BRANCH   1  18
ATOM     13  C   UNL     1      -1.027  11.688  21.455  0.00  0.00    +0.000 A 
ATOM     14  C   UNL     1      -0.883  12.867  20.739  0.00  0.00    +0.000 A 
ATOM     15  F   UNL     1      -1.535  13.977  21.108  0.00  0.00    +0.000 F 
ATOM     16  C   UNL     1      -0.066  12.905  19.618  0.00  0.00    +0.000 A 
ATOM     17  C   UNL     1       0.587  11.745  19.194  0.00  0.00    +0.000 A 
ATOM     18  C   UNL     1       0.421  10.528  19.884  0.00  0.00    +0.000 A 
ATOM     19  C   UNL     1      -0.375  10.518  21.051  0.00  0.00    +0.000 A 
ATOM     20 CL   UNL     1      -0.564   9.070  21.988  0.00  0.00    +0.000 Cl
BRANCH  13  22
ATOM     21  C   UNL     1      -2.564  11.715  23.505  0.00  0.00    +0.000 C 
ATOM     22  N   UNL     1      -1.853  11.700  22.566  0.00  0.00    +0.000 NA
ENDBRANCH  13  22
ENDBRANCH   1  18
BRANCH   7  23
ATOM     23  C   UNL     1       5.795   4.270  17.761  0.00  0.00    +0.000 C 
BRANCH  23  24
ATOM     24  C   UNL     1       6.546   5.582  17.865  0.00  0.00    +0.000 A 
ATOM     25  C   UNL     1       7.435   5.799  18.929  0.00  0.00    +0.000 A 
ATOM     26  C   UNL     1       8.116   7.002  19.054  0.00  0.00    +0.000 A 
ATOM     27  C   UNL     1       7.868   7.994  18.119  0.00  0.00    +0.000 A 
ATOM     28  N   UNL     1       8.529   9.237  18.241  0.00  0.00    +0.000 N 
ATOM     29  C   UNL     1       8.380  10.341  17.444  0.00  0.00    +0.000 A 
ATOM     30  N   UNL     1       9.174  11.294  17.875  0.00  0.00    +0.000 NA
ATOM     31  N   UNL     1       9.826  10.772  18.966  0.00  0.00    +0.000 NA
ATOM     32  N   UNL     1       9.441   9.524  19.197  0.00  0.00    +0.000 NA
ATOM     33  N   UNL     1       7.001   7.828  17.083  0.00  0.00    +0.000 NA
ATOM     34  C   UNL     1       6.353   6.637  16.962  0.00  0.00    +0.000 A 
ATOM     35  C   UNL     1       5.425   6.529  15.787  0.00  0.00    +0.000 C 
ENDBRANCH  23  24
ENDBRANCH   7  23
TORSDOF 4
ENDMDL
MODEL 8
REMARK VINA RESULT:      -7.8      4.394     11.124
REMARK  Name = 
REMARK  5 active torsions:
REMARK  status: ('A' for Active; 'I' for Inactive)
REMARK    1  A    between atoms: N_2  and  C_3
REMARK    2  A    between atoms: C_8  and  C_9
REMARK    3  A    between atoms: C_15  and  C_17
REMARK    4  A    between atoms: C_17  and  C_18
REMARK    5  A    between atoms: C_28  and  C_29
REMARK                            x       y       z     vdW  Elec       q    Type
REMARK                         _______ _______ _______ _____ _____    ______ ____
ROOT
ATOM      1  C   UNL     1       2.159   7.352  18.665  0.00  0.00    +0.000 C 
ATOM      2  C   UNL     1       2.338   8.797  18.137  0.00  0.00    +0.000 C 
ATOM      3  N   UNL     1       1.177   9.584  18.605  0.00  0.00    +0.000 NA
ATOM      4  C   UNL     1       1.113  10.923  18.005  0.00  0.00    +0.000 C 
ATOM      5  C   UNL     1       0.116  11.901  18.672  0.00  0.00    +0.000 C 
ATOM      6  N   UNL     1       0.061  11.786  20.133  0.00  0.00    +0.000 N 
ATOM      7  C   UNL     1      -0.230  12.921  20.873  0.00  0.00    +0.000 C 
ATOM      8  O   UNL     1      -0.325  14.034  20.349  0.00  0.00    +0.000 OA
ATOM      9  C   UNL     1      -0.016  10.408  20.621  0.00  0.00    +0.000 C 
ATOM     10  C   UNL     1       1.177   9.599  20.089  0.00  0.00    +0.000 C 
ATOM     11  C   UNL     1       1.130   8.152  20.628  0.00  0.00    +0.000 C 
ATOM     12  O   UNL     1       2.221   7.366  20.111  0.00  0.00    +0.000 OA
ENDROOT
BRANCH   1  18
ATOM     13  C   UNL     1       3.944   4.061  17.879  0.00  0.00    +0.000 A 
ATOM     14  C   UNL     1       5.088   4.510  17.239  0.00  0.00    +0.000 A 
ATOM     15  F   UNL     1       6.046   3.651  16.865  0.00  0.00    +0.000 F 
ATOM     16  C   UNL     1       5.260   5.863  16.988  0.00  0.00    +0.000 A 
ATOM     17  C   UNL     1       4.291   6.777  17.409  0.00  0.00    +0.000 A 
ATOM     18  C   UNL     1       3.141   6.345  18.099  0.00  0.00    +0.000 A 
ATOM     19  C   UNL     1       2.958   4.959  18.302  0.00  0.00    +0.000 A 
ATOM     20 CL   UNL     1       1.531   4.354  19.080  0.00  0.00    +0.000 Cl
BRANCH  13  22
ATOM     21  C   UNL     1       3.707   1.546  18.313  0.00  0.00    +0.000 C 
ATOM     22  N   UNL     1       3.818   2.701  18.108  0.00  0.00    +0.000 NA
ENDBRANCH  13  22
ENDBRANCH   1  18
BRANCH   7  23
ATOM     23  C   UNL     1      -0.451  12.776  22.374  0.00  0.00    +0.000 C 
BRANCH  23  24
ATOM     24  C   UNL     1      -1.322  13.865  22.967  0.00  0.00    +0.000 A 
ATOM     25  C   UNL     1      -0.731  14.982  23.576  0.00  0.00    +0.000 A 
ATOM     26  C   UNL     1      -1.513  15.980  24.144  0.00  0.00    +0.000 A 
ATOM     27  C   UNL     1      -2.889  15.825  24.121  0.00  0.00    +0.000 A 
ATOM     28  N   UNL     1      -3.703  16.814  24.716  0.00  0.00    +0.000 N 
ATOM     29  C   UNL     1      -5.069  16.812  24.828  0.00  0.00    +0.000 A 
ATOM     30  N   UNL     1      -5.453  17.912  25.436  0.00  0.00    +0.000 NA
ATOM     31  N   UNL     1      -4.302  18.607  25.712  0.00  0.00    +0.000 NA
ATOM     32  N   UNL     1      -3.234  17.950  25.280  0.00  0.00    +0.000 NA
ATOM     33  N   UNL     1      -3.499  14.748  23.554  0.00  0.00    +0.000 NA
ATOM     34  C   UNL     1      -2.722  13.786  22.986  0.00  0.00    +0.000 A 
ATOM     35  C   UNL     1      -3.470  12.639  22.372  0.00  0.00    +0.000 C 
ENDBRANCH  23  24
ENDBRANCH   7  23
TORSDOF 4
ENDMDL
MODEL 9
REMARK VINA RESULT:      -7.8      4.408     11.145
REMARK  Name = 
REMARK  5 active torsions:
REMARK  status: ('A' for Active; 'I' for Inactive)
REMARK    1  A    between atoms: N_2  and  C_3
REMARK    2  A    between atoms: C_8  and  C_9
REMARK    3  A    between atoms: C_15  and  C_17
REMARK    4  A    between atoms: C_17  and  C_18
REMARK    5  A    between atoms: C_28  and  C_29
REMARK                            x       y       z     vdW  Elec       q    Type
REMARK                         _______ _______ _______ _____ _____    ______ ____
ROOT
ATOM      1  C   UNL     1       2.632   7.050  18.976  0.00  0.00    +0.000 C 
ATOM      2  C   UNL     1       1.774   7.101  20.264  0.00  0.00    +0.000 C 
ATOM      3  N   UNL     1       1.629   8.524  20.641  0.00  0.00    +0.000 NA
ATOM      4  C   UNL     1       1.010   8.707  21.960  0.00  0.00    +0.000 C 
ATOM      5  C   UNL     1       0.550  10.150  22.281  0.00  0.00    +0.000 C 
ATOM      6  N   UNL     1      -0.028  10.856  21.133  0.00  0.00    +0.000 N 
ATOM      7  C   UNL     1      -1.013  11.802  21.369  0.00  0.00    +0.000 C 
ATOM      8  O   UNL     1      -1.493  11.977  22.492  0.00  0.00    +0.000 OA
ATOM      9  C   UNL     1       0.747  10.723  19.898  0.00  0.00    +0.000 C 
ATOM     10  C   UNL     1       0.921   9.237  19.549  0.00  0.00    +0.000 C 
ATOM     11  C   UNL     1       1.703   9.081  18.226  0.00  0.00    +0.000 C 
ATOM     12  O   UNL     1       1.908   7.694  17.900  0.00  0.00    +0.000 OA
ENDROOT
BRANCH   1  18
ATOM     13  C   UNL     1       4.377   4.186  17.135  0.00  0.00    +0.000 A 
ATOM     14  C   UNL     1       3.717   3.080  17.651  0.00  0.00    +0.000 A 
ATOM     15  F   UNL     1       3.981   1.850  17.192  0.00  0.00    +0.000 F 
ATOM     16  C   UNL     1       2.763   3.239  18.645  0.00  0.00    +0.000 A 
ATOM     17  C   UNL     1       2.446   4.520  19.105  0.00  0.00    +0.000 A 
ATOM     18  C   UNL     1       3.074   5.659  18.564  0.00  0.00    +0.000 A 
ATOM     19  C   UNL     1       4.078   5.475  17.587  0.00  0.00    +0.000 A 
ATOM     20 CL   UNL     1       4.942   6.830  16.932  0.00  0.00    +0.000 Cl
BRANCH  13  22
ATOM     21  C   UNL     1       6.115   3.793  15.293  0.00  0.00    +0.000 C 
ATOM     22  N   UNL     1       5.320   3.976  16.144  0.00  0.00    +0.000 NA
ENDBRANCH  13  22
ENDBRANCH   1  18
BRANCH   7  23
ATOM     23  C   UNL     1      -1.499  12.656  20.203  0.00  0.00    +0.000 C 
BRANCH  23  24
ATOM     24  C   UNL     1      -2.668  13.553  20.554  0.00  0.00    +0.000 A 
ATOM     25  C   UNL     1      -3.981  13.072  20.438  0.00  0.00    +0.000 A 
ATOM     26  C   UNL     1      -5.066  13.887  20.734  0.00  0.00    +0.000 A 
ATOM     27  C   UNL     1      -4.817  15.195  21.115  0.00  0.00    +0.000 A 
ATOM     28  N   UNL     1      -5.906  16.050  21.395  0.00  0.00    +0.000 N 
ATOM     29  C   UNL     1      -5.857  17.375  21.742  0.00  0.00    +0.000 A 
ATOM     30  N   UNL     1      -7.080  17.816  21.930  0.00  0.00    +0.000 NA
ATOM     31  N   UNL     1      -7.905  16.745  21.690  0.00  0.00    +0.000 NA
ATOM     32  N   UNL     1      -7.203  15.668  21.364  0.00  0.00    +0.000 NA
ATOM     33  N   UNL     1      -3.559  15.703  21.224  0.00  0.00    +0.000 NA
ATOM     34  C   UNL     1      -2.504  14.889  20.947  0.00  0.00    +0.000 A 
ATOM     35  C   UNL     1      -1.150  15.519  21.102  0.00  0.00    +0.000 C 
ENDBRANCH  23  24
ENDBRANCH   7  23
TORSDOF 4
ENDMDL
