MODEL 1
REMARK VINA RESULT:      -6.3      0.000      0.000
REMARK  Name = 
REMARK  7 active torsions:
REMARK  status: ('A' for Active; 'I' for Inactive)
REMARK    1  A    between atoms: C_1  and  C_2
REMARK    2  A    between atoms: C_2  and  N_3
REMARK    3  A    between atoms: C_9  and  C_10
REMARK    4  A    between atoms: C_10  and  C_11
REMARK    5  A    between atoms: N_17  and  C_18
REMARK    6  A    between atoms: C_18  and  C_19
REMARK    7  A    between atoms: C_23  and  C_24
REMARK                            x       y       z     vdW  Elec       q    Type
REMARK                         _______ _______ _______ _____ _____    ______ ____
ROOT
ATOM      1  N   UNL     1       0.641  11.028  20.102  0.00  0.00    +0.000 N 
ATOM      2  C   UNL     1      -0.160  11.151  21.234  0.00  0.00    +0.000 C 
ATOM      3  O   UNL     1      -0.660  10.185  21.807  0.00  0.00    +0.000 OA
ATOM      4  C   UNL     1      -0.392  12.508  21.613  0.00  0.00    +0.000 A 
ATOM      5  C   UNL     1       0.203  13.588  21.015  0.00  0.00    +0.000 A 
ATOM      6  N   UNL     1      -0.094  14.738  21.691  0.00  0.00    +0.000 NA
ATOM      7  C   UNL     1      -0.877  14.360  22.705  0.00  0.00    +0.000 A 
ATOM      8  N   UNL     1      -1.281  13.047  22.503  0.00  0.00    +0.000 N 
ATOM      9  N   UNL     1       1.094  13.413  20.019  0.00  0.00    +0.000 N 
ATOM     10  C   UNL     1       1.382  12.110  19.643  0.00  0.00    +0.000 C 
ATOM     11  N   UNL     1       2.258  11.974  18.669  0.00  0.00    +0.000 NA
ATOM     12  C   UNL     1       2.381  13.376  18.156  0.00  0.00    +0.000 C 
ATOM     13  C   UNL     1       3.596  14.175  18.643  0.00  0.00    +0.000 C 
ATOM     14  C   UNL     1       3.057  15.576  18.991  0.00  0.00    +0.000 C 
ATOM     15  C   UNL     1       1.565  15.558  18.694  0.00  0.00    +0.000 C 
ATOM     16  C   UNL     1       1.162  14.119  18.751  0.00  0.00    +0.000 C 
ENDROOT
BRANCH   1  18
ATOM     17  C   UNL     1      -1.147  10.784  18.369  0.00  0.00    +0.000 C 
ATOM     18  C   UNL     1       0.045  10.187  19.074  0.00  0.00    +0.000 C 
ENDBRANCH   1  18
BRANCH   7  19
ATOM     19  C   UNL     1      -1.344  15.162  23.898  0.00  0.00    +0.000 C 
BRANCH  19  20
ATOM     20  C   UNL     1      -2.687  15.867  23.833  0.00  0.00    +0.000 A 
ATOM     21  C   UNL     1      -3.203  16.199  22.563  0.00  0.00    +0.000 A 
ATOM     22  C   UNL     1      -4.497  16.682  22.411  0.00  0.00    +0.000 A 
ATOM     23  C   UNL     1      -5.317  16.830  23.532  0.00  0.00    +0.000 A 
ATOM     24  C   UNL     1      -4.831  16.511  24.796  0.00  0.00    +0.000 A 
ATOM     25  C   UNL     1      -3.525  16.025  24.946  0.00  0.00    +0.000 A 
ENDBRANCH  19  20
ENDBRANCH   7  19
BRANCH   8  26
ATOM     26  C   UNL     1      -2.395  12.338  23.126  0.00  0.00    +0.000 C 
BRANCH  26  27
ATOM     27  C   UNL     1      -3.780  12.686  22.605  0.00  0.00    +0.000 A 
ATOM     28  C   UNL     1      -4.133  12.823  21.259  0.00  0.00    +0.000 A 
ATOM     29  C   UNL     1      -5.451  13.096  20.889  0.00  0.00    +0.000 A 
ATOM     30  C   UNL     1      -6.452  13.231  21.855  0.00  0.00    +0.000 A 
ATOM     31  C   UNL     1      -6.131  13.101  23.206  0.00  0.00    +0.000 A 
ATOM     32  C   UNL     1      -7.188  13.163  24.269  0.00  0.00    +0.000 C 
ATOM     33  C   UNL     1      -4.797  12.857  23.566  0.00  0.00    +0.000 A 
ENDBRANCH  26  27
ENDBRANCH   8  26
TORSDOF 5
ENDMDL
MODEL 2
REMARK VINA RESULT:      -6.2      5.114      9.868
REMARK  Name = 
REMARK  7 active torsions:
REMARK  status: ('A' for Active; 'I' for Inactive)
REMARK    1  A    between atoms: C_1  and  C_2
REMARK    2  A    between atoms: C_2  and  N_3
REMARK    3  A    between atoms: C_9  and  C_10
REMARK    4  A    between atoms: C_10  and  C_11
REMARK    5  A    between atoms: N_17  and  C_18
REMARK    6  A    between atoms: C_18  and  C_19
REMARK    7  A    between atoms: C_23  and  C_24
REMARK                            x       y       z     vdW  Elec       q    Type
REMARK                         _______ _______ _______ _____ _____    ______ ____
ROOT
ATOM      1  N   UNL     1       0.338   9.245  21.239  0.00  0.00    +0.000 N 
ATOM      2  C   UNL     1       0.970   8.098  20.765  0.00  0.00    +0.000 C 
ATOM      3  O   UNL     1       0.892   7.011  21.332  0.00  0.00    +0.000 OA
ATOM      4  C   UNL     1       1.763   8.335  19.601  0.00  0.00    +0.000 A 
ATOM      5  C   UNL     1       1.813   9.529  18.932  0.00  0.00    +0.000 A 
ATOM      6  N   UNL     1       2.533   9.404  17.777  0.00  0.00    +0.000 NA
ATOM      7  C   UNL     1       2.928   8.129  17.742  0.00  0.00    +0.000 A 
ATOM      8  N   UNL     1       2.693   7.546  18.980  0.00  0.00    +0.000 N 
ATOM      9  N   UNL     1       1.063  10.573  19.338  0.00  0.00    +0.000 N 
ATOM     10  C   UNL     1       0.246  10.379  20.441  0.00  0.00    +0.000 C 
ATOM     11  N   UNL     1      -0.475  11.418  20.810  0.00  0.00    +0.000 NA
ATOM     12  C   UNL     1       0.130  12.525  20.004  0.00  0.00    +0.000 C 
ATOM     13  C   UNL     1      -0.619  12.924  18.726  0.00  0.00    +0.000 C 
ATOM     14  C   UNL     1       0.468  13.097  17.648  0.00  0.00    +0.000 C 
ATOM     15  C   UNL     1       1.802  12.808  18.318  0.00  0.00    +0.000 C 
ATOM     16  C   UNL     1       1.477  11.955  19.504  0.00  0.00    +0.000 C 
ENDROOT
BRANCH   1  18
ATOM     17  C   UNL     1      -0.627   9.873  23.461  0.00  0.00    +0.000 C 
ATOM     18  C   UNL     1       0.586   9.486  22.653  0.00  0.00    +0.000 C 
ENDBRANCH   1  18
BRANCH   7  19
ATOM     19  C   UNL     1       3.576   7.363  16.612  0.00  0.00    +0.000 C 
BRANCH  19  20
ATOM     20  C   UNL     1       4.853   6.588  16.882  0.00  0.00    +0.000 A 
ATOM     21  C   UNL     1       4.900   5.231  16.503  0.00  0.00    +0.000 A 
ATOM     22  C   UNL     1       6.085   4.506  16.554  0.00  0.00    +0.000 A 
ATOM     23  C   UNL     1       7.261   5.130  16.974  0.00  0.00    +0.000 A 
ATOM     24  C   UNL     1       7.241   6.468  17.356  0.00  0.00    +0.000 A 
ATOM     25  C   UNL     1       6.045   7.196  17.304  0.00  0.00    +0.000 A 
ENDBRANCH  19  20
ENDBRANCH   7  19
BRANCH   8  26
ATOM     26  C   UNL     1       3.268   6.320  19.525  0.00  0.00    +0.000 C 
BRANCH  26  27
ATOM     27  C   UNL     1       2.416   5.067  19.391  0.00  0.00    +0.000 A 
ATOM     28  C   UNL     1       1.872   4.576  18.200  0.00  0.00    +0.000 A 
ATOM     29  C   UNL     1       1.145   3.385  18.183  0.00  0.00    +0.000 A 
ATOM     30  C   UNL     1       0.950   2.649  19.355  0.00  0.00    +0.000 A 
ATOM     31  C   UNL     1       1.479   3.114  20.559  0.00  0.00    +0.000 A 
ATOM     32  C   UNL     1       1.359   2.317  21.825  0.00  0.00    +0.000 C 
ATOM     33  C   UNL     1       2.182   4.329  20.568  0.00  0.00    +0.000 A 
ENDBRANCH  26  27
ENDBRANCH   8  26
TORSDOF 5
ENDMDL
MODEL 3
REMARK VINA RESULT:      -6.0      2.235      8.003
REMARK  Name = 
REMARK  7 active torsions:
REMARK  status: ('A' for Active; 'I' for Inactive)
REMARK    1  A    between atoms: C_1  and  C_2
REMARK    2  A    between atoms: C_2  and  N_3
REMARK    3  A    between atoms: C_9  and  C_10
REMARK    4  A    between atoms: C_10  and  C_11
REMARK    5  A    between atoms: N_17  and  C_18
REMARK    6  A    between atoms: C_18  and  C_19
REMARK    7  A    between atoms: C_23  and  C_24
REMARK                            x       y       z     vdW  Elec       q    Type
REMARK                         _______ _______ _______ _____ _____    ______ ____
ROOT
ATOM      1  N   UNL     1      -3.482  13.285  22.274  0.00  0.00    +0.000 N 
ATOM      2  C   UNL     1      -2.114  13.117  22.078  0.00  0.00    +0.000 C 
ATOM      3  O   UNL     1      -1.275  13.426  22.921  0.00  0.00    +0.000 OA
ATOM      4  C   UNL     1      -1.791  12.618  20.779  0.00  0.00    +0.000 A 
ATOM      5  C   UNL     1      -2.719  12.222  19.853  0.00  0.00    +0.000 A 
ATOM      6  N   UNL     1      -2.107  11.651  18.772  0.00  0.00    +0.000 NA
ATOM      7  C   UNL     1      -0.799  11.702  19.037  0.00  0.00    +0.000 A 
ATOM      8  N   UNL     1      -0.589  12.532  20.130  0.00  0.00    +0.000 N 
ATOM      9  N   UNL     1      -4.035  12.257  20.144  0.00  0.00    +0.000 N 
ATOM     10  C   UNL     1      -4.396  12.697  21.408  0.00  0.00    +0.000 C 
ATOM     11  N   UNL     1      -5.688  12.717  21.661  0.00  0.00    +0.000 NA
ATOM     12  C   UNL     1      -6.280  12.504  20.301  0.00  0.00    +0.000 C 
ATOM     13  C   UNL     1      -6.739  11.078  19.975  0.00  0.00    +0.000 C 
ATOM     14  C   UNL     1      -6.248  10.805  18.540  0.00  0.00    +0.000 C 
ATOM     15  C   UNL     1      -5.535  12.064  18.072  0.00  0.00    +0.000 C 
ATOM     16  C   UNL     1      -5.114  12.773  19.321  0.00  0.00    +0.000 C 
ENDROOT
BRANCH   1  18
ATOM     17  C   UNL     1      -4.180  14.706  24.212  0.00  0.00    +0.000 C 
ATOM     18  C   UNL     1      -3.828  14.617  22.749  0.00  0.00    +0.000 C 
ENDBRANCH   1  18
BRANCH   7  19
ATOM     19  C   UNL     1       0.347  11.042  18.307  0.00  0.00    +0.000 C 
BRANCH  19  20
ATOM     20  C   UNL     1       0.875   9.711  18.812  0.00  0.00    +0.000 A 
ATOM     21  C   UNL     1       1.648   8.925  17.933  0.00  0.00    +0.000 A 
ATOM     22  C   UNL     1       2.312   7.786  18.373  0.00  0.00    +0.000 A 
ATOM     23  C   UNL     1       2.230   7.412  19.716  0.00  0.00    +0.000 A 
ATOM     24  C   UNL     1       1.472   8.170  20.604  0.00  0.00    +0.000 A 
ATOM     25  C   UNL     1       0.803   9.317  20.157  0.00  0.00    +0.000 A 
ENDBRANCH  19  20
ENDBRANCH   7  19
BRANCH   8  26
ATOM     26  C   UNL     1       0.654  13.168  20.555  0.00  0.00    +0.000 C 
BRANCH  26  27
ATOM     27  C   UNL     1       1.141  14.323  19.694  0.00  0.00    +0.000 A 
ATOM     28  C   UNL     1       0.435  15.503  19.441  0.00  0.00    +0.000 A 
ATOM     29  C   UNL     1       0.999  16.524  18.673  0.00  0.00    +0.000 A 
ATOM     30  C   UNL     1       2.287  16.394  18.147  0.00  0.00    +0.000 A 
ATOM     31  C   UNL     1       3.015  15.228  18.381  0.00  0.00    +0.000 A 
ATOM     32  C   UNL     1       4.429  15.080  17.899  0.00  0.00    +0.000 C 
ATOM     33  C   UNL     1       2.425  14.197  19.128  0.00  0.00    +0.000 A 
ENDBRANCH  26  27
ENDBRANCH   8  26
TORSDOF 5
ENDMDL
MODEL 4
REMARK VINA RESULT:      -6.0      3.048      7.725
REMARK  Name = 
REMARK  7 active torsions:
REMARK  status: ('A' for Active; 'I' for Inactive)
REMARK    1  A    between atoms: C_1  and  C_2
REMARK    2  A    between atoms: C_2  and  N_3
REMARK    3  A    between atoms: C_9  and  C_10
REMARK    4  A    between atoms: C_10  and  C_11
REMARK    5  A    between atoms: N_17  and  C_18
REMARK    6  A    between atoms: C_18  and  C_19
REMARK    7  A    between atoms: C_23  and  C_24
REMARK                            x       y       z     vdW  Elec       q    Type
REMARK                         _______ _______ _______ _____ _____    ______ ____
ROOT
ATOM      1  N   UNL     1       0.391  13.092  21.608  0.00  0.00    +0.000 N 
ATOM      2  C   UNL     1       1.149  14.219  21.301  0.00  0.00    +0.000 C 
ATOM      3  O   UNL     1       1.145  15.235  21.991  0.00  0.00    +0.000 OA
ATOM      4  C   UNL     1       1.869  14.092  20.074  0.00  0.00    +0.000 A 
ATOM      5  C   UNL     1       1.922  12.946  19.326  0.00  0.00    +0.000 A 
ATOM      6  N   UNL     1       2.809  13.084  18.294  0.00  0.00    +0.000 NA
ATOM      7  C   UNL     1       3.297  14.322  18.411  0.00  0.00    +0.000 A 
ATOM      8  N   UNL     1       2.529  15.030  19.327  0.00  0.00    +0.000 N 
ATOM      9  N   UNL     1       1.296  11.827  19.742  0.00  0.00    +0.000 N 
ATOM     10  C   UNL     1       0.616  11.890  20.949  0.00  0.00    +0.000 C 
ATOM     11  N   UNL     1       0.017  10.780  21.327  0.00  0.00    +0.000 NA
ATOM     12  C   UNL     1       0.094   9.940  20.089  0.00  0.00    +0.000 C 
ATOM     13  C   UNL     1       1.211   8.889  20.048  0.00  0.00    +0.000 C 
ATOM     14  C   UNL     1       1.815   8.984  18.633  0.00  0.00    +0.000 C 
ATOM     15  C   UNL     1       1.039  10.065  17.896  0.00  0.00    +0.000 C 
ATOM     16  C   UNL     1       0.455  10.936  18.963  0.00  0.00    +0.000 C 
ENDROOT
BRANCH   1  18
ATOM     17  C   UNL     1      -1.379  13.385  23.353  0.00  0.00    +0.000 C 
ATOM     18  C   UNL     1      -1.002  13.406  21.893  0.00  0.00    +0.000 C 
ENDBRANCH   1  18
BRANCH   7  19
ATOM     19  C   UNL     1       4.457  14.961  17.683  0.00  0.00    +0.000 C 
BRANCH  19  20
ATOM     20  C   UNL     1       5.858  14.798  18.241  0.00  0.00    +0.000 A 
ATOM     21  C   UNL     1       6.086  15.165  19.584  0.00  0.00    +0.000 A 
ATOM     22  C   UNL     1       7.291  14.882  20.218  0.00  0.00    +0.000 A 
ATOM     23  C   UNL     1       8.296  14.206  19.523  0.00  0.00    +0.000 A 
ATOM     24  C   UNL     1       8.097  13.834  18.197  0.00  0.00    +0.000 A 
ATOM     25  C   UNL     1       6.883  14.122  17.560  0.00  0.00    +0.000 A 
ENDBRANCH  19  20
ENDBRANCH   7  19
BRANCH   8  26
ATOM     26  C   UNL     1       2.449  16.475  19.512  0.00  0.00    +0.000 C 
BRANCH  26  27
ATOM     27  C   UNL     1       1.514  17.217  18.569  0.00  0.00    +0.000 A 
ATOM     28  C   UNL     1       1.850  17.694  17.298  0.00  0.00    +0.000 A 
ATOM     29  C   UNL     1       0.897  18.319  16.493  0.00  0.00    +0.000 A 
ATOM     30  C   UNL     1      -0.420  18.474  16.933  0.00  0.00    +0.000 A 
ATOM     31  C   UNL     1      -0.786  18.009  18.196  0.00  0.00    +0.000 A 
ATOM     32  C   UNL     1      -2.206  18.087  18.676  0.00  0.00    +0.000 C 
ATOM     33  C   UNL     1       0.189  17.410  19.008  0.00  0.00    +0.000 A 
ENDBRANCH  26  27
ENDBRANCH   8  26
TORSDOF 5
ENDMDL
MODEL 5
REMARK VINA RESULT:      -6.0      2.882      7.825
REMARK  Name = 
REMARK  7 active torsions:
REMARK  status: ('A' for Active; 'I' for Inactive)
REMARK    1  A    between atoms: C_1  and  C_2
REMARK    2  A    between atoms: C_2  and  N_3
REMARK    3  A    between atoms: C_9  and  C_10
REMARK    4  A    between atoms: C_10  and  C_11
REMARK    5  A    between atoms: N_17  and  C_18
REMARK    6  A    between atoms: C_18  and  C_19
REMARK    7  A    between atoms: C_23  and  C_24
REMARK                            x       y       z     vdW  Elec       q    Type
REMARK                         _______ _______ _______ _____ _____    ______ ____
ROOT
ATOM      1  N   UNL     1      -5.141  13.799  22.218  0.00  0.00    +0.000 N 
ATOM      2  C   UNL     1      -3.775  14.012  22.054  0.00  0.00    +0.000 C 
ATOM      3  O   UNL     1      -3.114  14.720  22.810  0.00  0.00    +0.000 OA
ATOM      4  C   UNL     1      -3.245  13.381  20.887  0.00  0.00    +0.000 A 
ATOM      5  C   UNL     1      -3.961  12.547  20.070  0.00  0.00    +0.000 A 
ATOM      6  N   UNL     1      -3.147  11.978  19.130  0.00  0.00    +0.000 NA
ATOM      7  C   UNL     1      -1.929  12.470  19.372  0.00  0.00    +0.000 A 
ATOM      8  N   UNL     1      -2.035  13.528  20.265  0.00  0.00    +0.000 N 
ATOM      9  N   UNL     1      -5.244  12.246  20.353  0.00  0.00    +0.000 N 
ATOM     10  C   UNL     1      -5.791  12.803  21.499  0.00  0.00    +0.000 C 
ATOM     11  N   UNL     1      -7.044  12.487  21.748  0.00  0.00    +0.000 NA
ATOM     12  C   UNL     1      -7.468  11.837  20.467  0.00  0.00    +0.000 C 
ATOM     13  C   UNL     1      -7.470  10.304  20.450  0.00  0.00    +0.000 C 
ATOM     14  C   UNL     1      -6.838   9.906  19.101  0.00  0.00    +0.000 C 
ATOM     15  C   UNL     1      -6.499  11.199  18.376  0.00  0.00    +0.000 C 
ATOM     16  C   UNL     1      -6.378  12.238  19.446  0.00  0.00    +0.000 C 
ENDROOT
BRANCH   1  18
ATOM     17  C   UNL     1      -6.390  15.277  23.805  0.00  0.00    +0.000 C 
ATOM     18  C   UNL     1      -5.889  15.035  22.404  0.00  0.00    +0.000 C 
ENDBRANCH   1  18
BRANCH   7  19
ATOM     19  C   UNL     1      -0.599  12.049  18.791  0.00  0.00    +0.000 C 
BRANCH  19  20
ATOM     20  C   UNL     1       0.004  10.722  19.215  0.00  0.00    +0.000 A 
ATOM     21  C   UNL     1       0.897  10.085  18.329  0.00  0.00    +0.000 A 
ATOM     22  C   UNL     1       1.623   8.964  18.714  0.00  0.00    +0.000 A 
ATOM     23  C   UNL     1       1.483   8.460  20.009  0.00  0.00    +0.000 A 
ATOM     24  C   UNL     1       0.607   9.070  20.902  0.00  0.00    +0.000 A 
ATOM     25  C   UNL     1      -0.124  10.199  20.510  0.00  0.00    +0.000 A 
ENDBRANCH  19  20
ENDBRANCH   7  19
BRANCH   8  26
ATOM     26  C   UNL     1      -1.059  14.578  20.542  0.00  0.00    +0.000 C 
BRANCH  26  27
ATOM     27  C   UNL     1      -1.280  15.899  19.821  0.00  0.00    +0.000 A 
ATOM     28  C   UNL     1      -2.314  16.804  20.079  0.00  0.00    +0.000 A 
ATOM     29  C   UNL     1      -2.394  18.016  19.390  0.00  0.00    +0.000 A 
ATOM     30  C   UNL     1      -1.436  18.356  18.430  0.00  0.00    +0.000 A 
ATOM     31  C   UNL     1      -0.394  17.473  18.150  0.00  0.00    +0.000 A 
ATOM     32  C   UNL     1       0.696  17.834  17.183  0.00  0.00    +0.000 C 
ATOM     33  C   UNL     1      -0.342  16.246  18.828  0.00  0.00    +0.000 A 
ENDBRANCH  26  27
ENDBRANCH   8  26
TORSDOF 5
ENDMDL
MODEL 6
REMARK VINA RESULT:      -6.0      1.350      2.109
REMARK  Name = 
REMARK  7 active torsions:
REMARK  status: ('A' for Active; 'I' for Inactive)
REMARK    1  A    between atoms: C_1  and  C_2
REMARK    2  A    between atoms: C_2  and  N_3
REMARK    3  A    between atoms: C_9  and  C_10
REMARK    4  A    between atoms: C_10  and  C_11
REMARK    5  A    between atoms: N_17  and  C_18
REMARK    6  A    between atoms: C_18  and  C_19
REMARK    7  A    between atoms: C_23  and  C_24
REMARK                            x       y       z     vdW  Elec       q    Type
REMARK                         _______ _______ _______ _____ _____    ______ ____
ROOT
ATOM      1  N   UNL     1       0.181  11.580  21.482  0.00  0.00    +0.000 N 
ATOM      2  C   UNL     1      -0.751  11.826  22.487  0.00  0.00    +0.000 C 
ATOM      3  O   UNL     1      -1.023  11.006  23.361  0.00  0.00    +0.000 OA
ATOM      4  C   UNL     1      -1.399  13.092  22.353  0.00  0.00    +0.000 A 
ATOM      5  C   UNL     1      -1.066  14.033  21.415  0.00  0.00    +0.000 A 
ATOM      6  N   UNL     1      -1.754  15.194  21.633  0.00  0.00    +0.000 NA
ATOM      7  C   UNL     1      -2.514  14.960  22.706  0.00  0.00    +0.000 A 
ATOM      8  N   UNL     1      -2.504  13.599  22.982  0.00  0.00    +0.000 N 
ATOM      9  N   UNL     1      -0.050  13.815  20.557  0.00  0.00    +0.000 N 
ATOM     10  C   UNL     1       0.636  12.615  20.674  0.00  0.00    +0.000 C 
ATOM     11  N   UNL     1       1.624  12.435  19.823  0.00  0.00    +0.000 NA
ATOM     12  C   UNL     1       1.406  13.548  18.844  0.00  0.00    +0.000 C 
ATOM     13  C   UNL     1       2.280  14.795  19.027  0.00  0.00    +0.000 C 
ATOM     14  C   UNL     1       1.330  15.994  18.846  0.00  0.00    +0.000 C 
ATOM     15  C   UNL     1      -0.050  15.422  18.558  0.00  0.00    +0.000 C 
ATOM     16  C   UNL     1      -0.034  14.037  19.122  0.00  0.00    +0.000 C 
ENDROOT
BRANCH   1  18
ATOM     17  C   UNL     1       0.899   9.194  21.249  0.00  0.00    +0.000 C 
ATOM     18  C   UNL     1      -0.027  10.303  20.815  0.00  0.00    +0.000 C 
ENDBRANCH   1  18
BRANCH   7  19
ATOM     19  C   UNL     1      -3.326  15.933  23.529  0.00  0.00    +0.000 C 
BRANCH  19  20
ATOM     20  C   UNL     1      -4.744  16.260  23.096  0.00  0.00    +0.000 A 
ATOM     21  C   UNL     1      -5.032  16.274  21.716  0.00  0.00    +0.000 A 
ATOM     22  C   UNL     1      -6.336  16.389  21.249  0.00  0.00    +0.000 A 
ATOM     23  C   UNL     1      -7.392  16.478  22.158  0.00  0.00    +0.000 A 
ATOM     24  C   UNL     1      -7.134  16.468  23.526  0.00  0.00    +0.000 A 
ATOM     25  C   UNL     1      -5.818  16.353  23.994  0.00  0.00    +0.000 A 
ENDBRANCH  19  20
ENDBRANCH   7  19
BRANCH   8  26
ATOM     26  C   UNL     1      -3.438  12.837  23.805  0.00  0.00    +0.000 C 
BRANCH  26  27
ATOM     27  C   UNL     1      -4.867  12.759  23.291  0.00  0.00    +0.000 A 
ATOM     28  C   UNL     1      -6.020  12.790  24.082  0.00  0.00    +0.000 A 
ATOM     29  C   UNL     1      -7.289  12.762  23.500  0.00  0.00    +0.000 A 
ATOM     30  C   UNL     1      -7.437  12.713  22.112  0.00  0.00    +0.000 A 
ATOM     31  C   UNL     1      -6.306  12.680  21.296  0.00  0.00    +0.000 A 
ATOM     32  C   UNL     1      -6.421  12.704  19.800  0.00  0.00    +0.000 C 
ATOM     33  C   UNL     1      -5.037  12.677  21.895  0.00  0.00    +0.000 A 
ENDBRANCH  26  27
ENDBRANCH   8  26
TORSDOF 5
ENDMDL
MODEL 7
REMARK VINA RESULT:      -5.9      2.655      5.899
REMARK  Name = 
REMARK  7 active torsions:
REMARK  status: ('A' for Active; 'I' for Inactive)
REMARK    1  A    between atoms: C_1  and  C_2
REMARK    2  A    between atoms: C_2  and  N_3
REMARK    3  A    between atoms: C_9  and  C_10
REMARK    4  A    between atoms: C_10  and  C_11
REMARK    5  A    between atoms: N_17  and  C_18
REMARK    6  A    between atoms: C_18  and  C_19
REMARK    7  A    between atoms: C_23  and  C_24
REMARK                            x       y       z     vdW  Elec       q    Type
REMARK                         _______ _______ _______ _____ _____    ______ ____
ROOT
ATOM      1  N   UNL     1      -3.323  11.470  17.799  0.00  0.00    +0.000 N 
ATOM      2  C   UNL     1      -2.240  11.970  18.517  0.00  0.00    +0.000 C 
ATOM      3  O   UNL     1      -1.076  11.846  18.142  0.00  0.00    +0.000 OA
ATOM      4  C   UNL     1      -2.617  12.574  19.755  0.00  0.00    +0.000 A 
ATOM      5  C   UNL     1      -3.913  12.764  20.156  0.00  0.00    +0.000 A 
ATOM      6  N   UNL     1      -3.958  13.501  21.307  0.00  0.00    +0.000 NA
ATOM      7  C   UNL     1      -2.683  13.759  21.612  0.00  0.00    +0.000 A 
ATOM      8  N   UNL     1      -1.858  12.969  20.823  0.00  0.00    +0.000 N 
ATOM      9  N   UNL     1      -4.937  12.403  19.357  0.00  0.00    +0.000 N 
ATOM     10  C   UNL     1      -4.620  11.848  18.127  0.00  0.00    +0.000 C 
ATOM     11  N   UNL     1      -5.642  11.508  17.371  0.00  0.00    +0.000 NA
ATOM     12  C   UNL     1      -6.792  11.616  18.325  0.00  0.00    +0.000 C 
ATOM     13  C   UNL     1      -7.628  12.899  18.241  0.00  0.00    +0.000 C 
ATOM     14  C   UNL     1      -7.871  13.329  19.701  0.00  0.00    +0.000 C 
ATOM     15  C   UNL     1      -7.188  12.295  20.583  0.00  0.00    +0.000 C 
ATOM     16  C   UNL     1      -6.135  11.669  19.724  0.00  0.00    +0.000 C 
ENDROOT
BRANCH   1  18
ATOM     17  C   UNL     1      -2.827   9.859  15.950  0.00  0.00    +0.000 C 
ATOM     18  C   UNL     1      -3.150  10.079  17.407  0.00  0.00    +0.000 C 
ENDBRANCH   1  18
BRANCH   7  19
ATOM     19  C   UNL     1      -2.125  14.700  22.654  0.00  0.00    +0.000 C 
BRANCH  19  20
ATOM     20  C   UNL     1      -3.015  15.799  23.208  0.00  0.00    +0.000 A 
ATOM     21  C   UNL     1      -3.211  16.954  22.423  0.00  0.00    +0.000 A 
ATOM     22  C   UNL     1      -4.145  17.921  22.778  0.00  0.00    +0.000 A 
ATOM     23  C   UNL     1      -4.921  17.745  23.925  0.00  0.00    +0.000 A 
ATOM     24  C   UNL     1      -4.746  16.614  24.718  0.00  0.00    +0.000 A 
ATOM     25  C   UNL     1      -3.802  15.643  24.358  0.00  0.00    +0.000 A 
ENDBRANCH  19  20
ENDBRANCH   7  19
BRANCH   8  26
ATOM     26  C   UNL     1      -0.452  12.639  21.035  0.00  0.00    +0.000 C 
BRANCH  26  27
ATOM     27  C   UNL     1      -0.171  11.264  21.619  0.00  0.00    +0.000 A 
ATOM     28  C   UNL     1      -0.641  10.790  22.848  0.00  0.00    +0.000 A 
ATOM     29  C   UNL     1      -0.364   9.487  23.266  0.00  0.00    +0.000 A 
ATOM     30  C   UNL     1       0.383   8.622  22.462  0.00  0.00    +0.000 A 
ATOM     31  C   UNL     1       0.866   9.066  21.232  0.00  0.00    +0.000 A 
ATOM     32  C   UNL     1       1.606   8.146  20.305  0.00  0.00    +0.000 C 
ATOM     33  C   UNL     1       0.607  10.387  20.837  0.00  0.00    +0.000 A 
ENDBRANCH  26  27
ENDBRANCH   8  26
TORSDOF 5
ENDMDL
MODEL 8
REMARK VINA RESULT:      -5.9      2.516      7.844
REMARK  Name = 
REMARK  7 active torsions:
REMARK  status: ('A' for Active; 'I' for Inactive)
REMARK    1  A    between atoms: C_1  and  C_2
REMARK    2  A    between atoms: C_2  and  N_3
REMARK    3  A    between atoms: C_9  and  C_10
REMARK    4  A    between atoms: C_10  and  C_11
REMARK    5  A    between atoms: N_17  and  C_18
REMARK    6  A    between atoms: C_18  and  C_19
REMARK    7  A    between atoms: C_23  and  C_24
REMARK                            x       y       z     vdW  Elec       q    Type
REMARK                         _______ _______ _______ _____ _____    ______ ____
ROOT
ATOM      1  N   UNL     1      -4.596  13.926  22.158  0.00  0.00    +0.000 N 
ATOM      2  C   UNL     1      -3.207  13.913  22.056  0.00  0.00    +0.000 C 
ATOM      3  O   UNL     1      -2.474  14.485  22.859  0.00  0.00    +0.000 OA
ATOM      4  C   UNL     1      -2.736  13.230  20.894  0.00  0.00    +0.000 A 
ATOM      5  C   UNL     1      -3.542  12.544  20.023  0.00  0.00    +0.000 A 
ATOM      6  N   UNL     1      -2.791  11.870  19.101  0.00  0.00    +0.000 NA
ATOM      7  C   UNL     1      -1.520  12.148  19.408  0.00  0.00    +0.000 A 
ATOM      8  N   UNL     1      -1.491  13.188  20.327  0.00  0.00    +0.000 N 
ATOM      9  N   UNL     1      -4.868  12.454  20.245  0.00  0.00    +0.000 N 
ATOM     10  C   UNL     1      -5.367  13.068  21.383  0.00  0.00    +0.000 C 
ATOM     11  N   UNL     1      -6.666  12.959  21.572  0.00  0.00    +0.000 NA
ATOM     12  C   UNL     1      -7.132  12.417  20.255  0.00  0.00    +0.000 C 
ATOM     13  C   UNL     1      -7.385  10.906  20.192  0.00  0.00    +0.000 C 
ATOM     14  C   UNL     1      -6.767  10.439  18.859  0.00  0.00    +0.000 C 
ATOM     15  C   UNL     1      -6.188  11.675  18.188  0.00  0.00    +0.000 C 
ATOM     16  C   UNL     1      -5.945  12.655  19.292  0.00  0.00    +0.000 C 
ENDROOT
BRANCH   1  18
ATOM     17  C   UNL     1      -5.608  15.572  23.749  0.00  0.00    +0.000 C 
ATOM     18  C   UNL     1      -5.138  15.264  22.349  0.00  0.00    +0.000 C 
ENDBRANCH   1  18
BRANCH   7  19
ATOM     19  C   UNL     1      -0.253  11.526  18.869  0.00  0.00    +0.000 C 
BRANCH  19  20
ATOM     20  C   UNL     1       0.387  10.380  19.631  0.00  0.00    +0.000 A 
ATOM     21  C   UNL     1      -0.076  10.107  20.935  0.00  0.00    +0.000 A 
ATOM     22  C   UNL     1       0.332   8.972  21.626  0.00  0.00    +0.000 A 
ATOM     23  C   UNL     1       1.207   8.068  21.018  0.00  0.00    +0.000 A 
ATOM     24  C   UNL     1       1.679   8.315  19.732  0.00  0.00    +0.000 A 
ATOM     25  C   UNL     1       1.267   9.461  19.039  0.00  0.00    +0.000 A 
ENDBRANCH  19  20
ENDBRANCH   7  19
BRANCH   8  26
ATOM     26  C   UNL     1      -0.370  14.056  20.674  0.00  0.00    +0.000 C 
BRANCH  26  27
ATOM     27  C   UNL     1      -0.124  15.232  19.742  0.00  0.00    +0.000 A 
ATOM     28  C   UNL     1      -1.046  16.239  19.441  0.00  0.00    +0.000 A 
ATOM     29  C   UNL     1      -0.697  17.304  18.608  0.00  0.00    +0.000 A 
ATOM     30  C   UNL     1       0.586  17.394  18.063  0.00  0.00    +0.000 A 
ATOM     31  C   UNL     1       1.528  16.404  18.344  0.00  0.00    +0.000 A 
ATOM     32  C   UNL     1       2.938  16.503  17.840  0.00  0.00    +0.000 C 
ATOM     33  C   UNL     1       1.155  15.323  19.157  0.00  0.00    +0.000 A 
ENDBRANCH  26  27
ENDBRANCH   8  26
TORSDOF 5
ENDMDL
MODEL 9
REMARK VINA RESULT:      -5.8      3.016      6.744
REMARK  Name = 
REMARK  7 active torsions:
REMARK  status: ('A' for Active; 'I' for Inactive)
REMARK    1  A    between atoms: C_1  and  C_2
REMARK    2  A    between atoms: C_2  and  N_3
REMARK    3  A    between atoms: C_9  and  C_10
REMARK    4  A    between atoms: C_10  and  C_11
REMARK    5  A    between atoms: N_17  and  C_18
REMARK    6  A    between atoms: C_18  and  C_19
REMARK    7  A    between atoms: C_23  and  C_24
REMARK                            x       y       z     vdW  Elec       q    Type
REMARK                         _______ _______ _______ _____ _____    ______ ____
ROOT
ATOM      1  N   UNL     1      -0.621  15.026  20.830  0.00  0.00    +0.000 N 
ATOM      2  C   UNL     1      -1.100  13.879  20.202  0.00  0.00    +0.000 C 
ATOM      3  O   UNL     1      -2.297  13.652  20.048  0.00  0.00    +0.000 OA
ATOM      4  C   UNL     1      -0.062  12.974  19.821  0.00  0.00    +0.000 A 
ATOM      5  C   UNL     1       1.276  13.242  19.939  0.00  0.00    +0.000 A 
ATOM      6  N   UNL     1       2.018  12.255  19.352  0.00  0.00    +0.000 NA
ATOM      7  C   UNL     1       1.129  11.379  18.877  0.00  0.00    +0.000 A 
ATOM      8  N   UNL     1      -0.124  11.675  19.396  0.00  0.00    +0.000 N 
ATOM      9  N   UNL     1       1.697  14.432  20.412  0.00  0.00    +0.000 N 
ATOM     10  C   UNL     1       0.726  15.359  20.758  0.00  0.00    +0.000 C 
ATOM     11  N   UNL     1       1.170  16.511  21.215  0.00  0.00    +0.000 NA
ATOM     12  C   UNL     1       2.622  16.223  21.443  0.00  0.00    +0.000 C 
ATOM     13  C   UNL     1       3.590  16.700  20.353  0.00  0.00    +0.000 C 
ATOM     14  C   UNL     1       4.576  15.535  20.138  0.00  0.00    +0.000 C 
ATOM     15  C   UNL     1       4.168  14.431  21.101  0.00  0.00    +0.000 C 
ATOM     16  C   UNL     1       2.725  14.680  21.407  0.00  0.00    +0.000 C 
ENDROOT
BRANCH   1  18
ATOM     17  C   UNL     1      -0.890  14.340  23.222  0.00  0.00    +0.000 C 
ATOM     18  C   UNL     1      -1.269  15.284  22.108  0.00  0.00    +0.000 C 
ENDBRANCH   1  18
BRANCH   7  19
ATOM     19  C   UNL     1       1.353  10.199  17.959  0.00  0.00    +0.000 C 
BRANCH  19  20
ATOM     20  C   UNL     1       1.921   8.915  18.534  0.00  0.00    +0.000 A 
ATOM     21  C   UNL     1       1.523   8.533  19.831  0.00  0.00    +0.000 A 
ATOM     22  C   UNL     1       1.858   7.290  20.356  0.00  0.00    +0.000 A 
ATOM     23  C   UNL     1       2.591   6.387  19.582  0.00  0.00    +0.000 A 
ATOM     24  C   UNL     1       2.998   6.740  18.299  0.00  0.00    +0.000 A 
ATOM     25  C   UNL     1       2.660   7.995  17.774  0.00  0.00    +0.000 A 
ENDBRANCH  19  20
ENDBRANCH   7  19
BRANCH   8  26
ATOM     26  C   UNL     1      -1.302  10.815  19.457  0.00  0.00    +0.000 C 
BRANCH  26  27
ATOM     27  C   UNL     1      -2.134  10.736  18.186  0.00  0.00    +0.000 A 
ATOM     28  C   UNL     1      -1.835   9.957  17.064  0.00  0.00    +0.000 A 
ATOM     29  C   UNL     1      -2.697   9.920  15.967  0.00  0.00    +0.000 A 
ATOM     30  C   UNL     1      -3.887  10.653  15.968  0.00  0.00    +0.000 A 
ATOM     31  C   UNL     1      -4.213  11.440  17.073  0.00  0.00    +0.000 A 
ATOM     32  C   UNL     1      -5.515  12.182  17.146  0.00  0.00    +0.000 C 
ATOM     33  C   UNL     1      -3.322  11.493  18.156  0.00  0.00    +0.000 A 
ENDBRANCH  26  27
ENDBRANCH   8  26
TORSDOF 5
ENDMDL
