MODEL 1
REMARK VINA RESULT:      -7.2      0.000      0.000
REMARK  Name = 
REMARK  2 active torsions:
REMARK  status: ('A' for Active; 'I' for Inactive)
REMARK    1  A    between atoms: C_6  and  C_7
REMARK    2  A    between atoms: C_10  and  N_11
REMARK                            x       y       z     vdW  Elec       q    Type
REMARK                         _______ _______ _______ _____ _____    ______ ____
ROOT
ATOM      1  C   UNL     1       5.315   4.745  15.684  0.00  0.00    +0.000 A 
ATOM      2  C   UNL     1       4.827   3.621  16.375  0.00  0.00    +0.000 A 
ATOM      3  C   UNL     1       4.076   3.748  17.549  0.00  0.00    +0.000 A 
ATOM      4  C   UNL     1       3.788   5.017  18.061  0.00  0.00    +0.000 A 
ATOM      5  C   UNL     1       4.283   6.149  17.407  0.00  0.00    +0.000 A 
ATOM      6  C   UNL     1       5.046   6.008  16.243  0.00  0.00    +0.000 A 
ENDROOT
BRANCH   1  12
ATOM      7  N   UNL     1       8.966   6.037  12.967  0.00  0.00    +0.000 N 
ATOM      8  C   UNL     1       7.838   5.260  13.123  0.00  0.00    +0.000 A 
ATOM      9  N   UNL     1       7.536   4.421  12.131  0.00  0.00    +0.000 NA
ATOM     10  C   UNL     1       6.446   3.659  12.306  0.00  0.00    +0.000 A 
ATOM     11  C   UNL     1       5.667   3.704  13.433  0.00  0.00    +0.000 A 
ATOM     12  C   UNL     1       6.057   4.597  14.414  0.00  0.00    +0.000 A 
ATOM     13  N   UNL     1       7.160   5.366  14.270  0.00  0.00    +0.000 NA
ATOM     14  H   UNL     1       9.588   5.596  12.304  0.00  0.00    +0.000 HD
ATOM     15  H   UNL     1       9.344   6.285  13.869  0.00  0.00    +0.000 HD
ENDBRANCH   1  12
BRANCH   4  16
ATOM     16  N   UNL     1       2.984   5.175  19.217  0.00  0.00    +0.000 N 
ATOM     17  C   UNL     1       2.294   6.286  19.640  0.00  0.00    +0.000 A 
ATOM     18  N   UNL     1       1.724   6.060  20.803  0.00  0.00    +0.000 NA
ATOM     19  C   UNL     1       2.077   4.772  21.060  0.00  0.00    +0.000 A 
ATOM     20  N   UNL     1       2.818   4.179  20.124  0.00  0.00    +0.000 NA
ENDBRANCH   4  16
TORSDOF 2
ENDMDL
MODEL 2
REMARK VINA RESULT:      -7.1      0.608      1.435
REMARK  Name = 
REMARK  2 active torsions:
REMARK  status: ('A' for Active; 'I' for Inactive)
REMARK    1  A    between atoms: C_6  and  C_7
REMARK    2  A    between atoms: C_10  and  N_11
REMARK                            x       y       z     vdW  Elec       q    Type
REMARK                         _______ _______ _______ _____ _____    ______ ____
ROOT
ATOM      1  C   UNL     1       5.207   4.722  15.604  0.00  0.00    +0.000 A 
ATOM      2  C   UNL     1       4.958   5.979  16.182  0.00  0.00    +0.000 A 
ATOM      3  C   UNL     1       4.234   6.112  17.372  0.00  0.00    +0.000 A 
ATOM      4  C   UNL     1       3.741   4.974  18.021  0.00  0.00    +0.000 A 
ATOM      5  C   UNL     1       3.952   3.715  17.453  0.00  0.00    +0.000 A 
ATOM      6  C   UNL     1       4.665   3.598  16.254  0.00  0.00    +0.000 A 
ENDROOT
BRANCH   1  12
ATOM      7  N   UNL     1       9.012   6.054  13.128  0.00  0.00    +0.000 N 
ATOM      8  C   UNL     1       7.877   5.277  13.205  0.00  0.00    +0.000 A 
ATOM      9  N   UNL     1       7.633   4.455  12.182  0.00  0.00    +0.000 NA
ATOM     10  C   UNL     1       6.535   3.692  12.280  0.00  0.00    +0.000 A 
ATOM     11  C   UNL     1       5.690   3.719  13.360  0.00  0.00    +0.000 A 
ATOM     12  C   UNL     1       6.023   4.595  14.378  0.00  0.00    +0.000 A 
ATOM     13  N   UNL     1       7.133   5.365  14.312  0.00  0.00    +0.000 NA
ATOM     14  H   UNL     1       9.673   5.624  12.496  0.00  0.00    +0.000 HD
ATOM     15  H   UNL     1       9.337   6.286  14.055  0.00  0.00    +0.000 HD
ENDBRANCH   1  12
BRANCH   4  16
ATOM     16  N   UNL     1       3.052   5.076  19.255  0.00  0.00    +0.000 N 
ATOM     17  C   UNL     1       2.893   4.123  20.233  0.00  0.00    +0.000 A 
ATOM     18  N   UNL     1       2.124   4.576  21.198  0.00  0.00    +0.000 NA
ATOM     19  C   UNL     1       1.838   5.839  20.780  0.00  0.00    +0.000 A 
ATOM     20  N   UNL     1       2.392   6.203  19.623  0.00  0.00    +0.000 NA
ENDBRANCH   4  16
TORSDOF 2
ENDMDL
MODEL 3
REMARK VINA RESULT:      -7.0      1.075      7.387
REMARK  Name = 
REMARK  2 active torsions:
REMARK  status: ('A' for Active; 'I' for Inactive)
REMARK    1  A    between atoms: C_6  and  C_7
REMARK    2  A    between atoms: C_10  and  N_11
REMARK                            x       y       z     vdW  Elec       q    Type
REMARK                         _______ _______ _______ _____ _____    ______ ____
ROOT
ATOM      1  C   UNL     1       3.928   4.911  17.513  0.00  0.00    +0.000 A 
ATOM      2  C   UNL     1       4.386   6.088  16.896  0.00  0.00    +0.000 A 
ATOM      3  C   UNL     1       5.239   6.054  15.786  0.00  0.00    +0.000 A 
ATOM      4  C   UNL     1       5.652   4.825  15.260  0.00  0.00    +0.000 A 
ATOM      5  C   UNL     1       5.232   3.640  15.871  0.00  0.00    +0.000 A 
ATOM      6  C   UNL     1       4.392   3.689  16.989  0.00  0.00    +0.000 A 
ENDROOT
BRANCH   1  12
ATOM      7  N   UNL     1       0.442   2.853  19.961  0.00  0.00    +0.000 N 
ATOM      8  C   UNL     1       1.283   3.932  19.801  0.00  0.00    +0.000 A 
ATOM      9  N   UNL     1       1.193   4.911  20.704  0.00  0.00    +0.000 NA
ATOM     10  C   UNL     1       2.032   5.946  20.546  0.00  0.00    +0.000 A 
ATOM     11  C   UNL     1       2.952   6.024  19.533  0.00  0.00    +0.000 A 
ATOM     12  C   UNL     1       2.982   4.962  18.647  0.00  0.00    +0.000 A 
ATOM     13  N   UNL     1       2.158   3.900  18.791  0.00  0.00    +0.000 NA
ATOM     14  H   UNL     1       0.149   2.794  20.927  0.00  0.00    +0.000 HD
ATOM     15  H   UNL     1       0.851   2.029  19.545  0.00  0.00    +0.000 HD
ENDBRANCH   1  12
BRANCH   4  16
ATOM     16  N   UNL     1       6.471   4.762  14.105  0.00  0.00    +0.000 N 
ATOM     17  C   UNL     1       6.317   3.984  12.983  0.00  0.00    +0.000 A 
ATOM     18  N   UNL     1       7.327   4.156  12.159  0.00  0.00    +0.000 NA
ATOM     19  C   UNL     1       8.087   5.076  12.812  0.00  0.00    +0.000 A 
ATOM     20  N   UNL     1       7.605   5.496  13.982  0.00  0.00    +0.000 NA
ENDBRANCH   4  16
TORSDOF 2
ENDMDL
MODEL 4
REMARK VINA RESULT:      -7.0      4.754      6.037
REMARK  Name = 
REMARK  2 active torsions:
REMARK  status: ('A' for Active; 'I' for Inactive)
REMARK    1  A    between atoms: C_6  and  C_7
REMARK    2  A    between atoms: C_10  and  N_11
REMARK                            x       y       z     vdW  Elec       q    Type
REMARK                         _______ _______ _______ _____ _____    ______ ____
ROOT
ATOM      1  C   UNL     1       2.403   5.743  19.102  0.00  0.00    +0.000 A 
ATOM      2  C   UNL     1       1.921   6.136  20.363  0.00  0.00    +0.000 A 
ATOM      3  C   UNL     1       1.550   7.459  20.630  0.00  0.00    +0.000 A 
ATOM      4  C   UNL     1       1.650   8.429  19.627  0.00  0.00    +0.000 A 
ATOM      5  C   UNL     1       2.151   8.070  18.372  0.00  0.00    +0.000 A 
ATOM      6  C   UNL     1       2.532   6.746  18.123  0.00  0.00    +0.000 A 
ENDROOT
BRANCH   1  12
ATOM      7  N   UNL     1       5.032   1.937  20.090  0.00  0.00    +0.000 N 
ATOM      8  C   UNL     1       4.040   2.510  19.324  0.00  0.00    +0.000 A 
ATOM      9  N   UNL     1       3.446   1.730  18.418  0.00  0.00    +0.000 NA
ATOM     10  C   UNL     1       2.470   2.296  17.694  0.00  0.00    +0.000 A 
ATOM     11  C   UNL     1       2.070   3.598  17.852  0.00  0.00    +0.000 A 
ATOM     12  C   UNL     1       2.735   4.331  18.818  0.00  0.00    +0.000 A 
ATOM     13  N   UNL     1       3.713   3.781  19.574  0.00  0.00    +0.000 NA
ATOM     14  H   UNL     1       4.907   0.934  20.108  0.00  0.00    +0.000 HD
ATOM     15  H   UNL     1       5.105   2.414  20.976  0.00  0.00    +0.000 HD
ENDBRANCH   1  12
BRANCH   4  16
ATOM     16  N   UNL     1       1.231   9.763  19.854  0.00  0.00    +0.000 N 
ATOM     17  C   UNL     1       0.761  10.332  21.014  0.00  0.00    +0.000 A 
ATOM     18  N   UNL     1       0.404  11.580  20.805  0.00  0.00    +0.000 NA
ATOM     19  C   UNL     1       0.691  11.752  19.486  0.00  0.00    +0.000 A 
ATOM     20  N   UNL     1       1.215  10.694  18.867  0.00  0.00    +0.000 NA
ENDBRANCH   4  16
TORSDOF 2
ENDMDL
MODEL 5
REMARK VINA RESULT:      -6.9      0.955      7.260
REMARK  Name = 
REMARK  2 active torsions:
REMARK  status: ('A' for Active; 'I' for Inactive)
REMARK    1  A    between atoms: C_6  and  C_7
REMARK    2  A    between atoms: C_10  and  N_11
REMARK                            x       y       z     vdW  Elec       q    Type
REMARK                         _______ _______ _______ _____ _____    ______ ____
ROOT
ATOM      1  C   UNL     1       3.932   4.765  17.558  0.00  0.00    +0.000 A 
ATOM      2  C   UNL     1       4.391   5.959  16.974  0.00  0.00    +0.000 A 
ATOM      3  C   UNL     1       5.241   5.956  15.863  0.00  0.00    +0.000 A 
ATOM      4  C   UNL     1       5.651   4.743  15.300  0.00  0.00    +0.000 A 
ATOM      5  C   UNL     1       5.231   3.541  15.877  0.00  0.00    +0.000 A 
ATOM      6  C   UNL     1       4.393   3.559  16.998  0.00  0.00    +0.000 A 
ENDROOT
BRANCH   1  12
ATOM      7  N   UNL     1       1.780   7.227  20.977  0.00  0.00    +0.000 N 
ATOM      8  C   UNL     1       1.973   6.016  20.348  0.00  0.00    +0.000 A 
ATOM      9  N   UNL     1       1.266   4.978  20.800  0.00  0.00    +0.000 NA
ATOM     10  C   UNL     1       1.450   3.811  20.165  0.00  0.00    +0.000 A 
ATOM     11  C   UNL     1       2.301   3.656  19.102  0.00  0.00    +0.000 A 
ATOM     12  C   UNL     1       2.988   4.785  18.695  0.00  0.00    +0.000 A 
ATOM     13  N   UNL     1       2.810   5.978  19.307  0.00  0.00    +0.000 NA
ATOM     14  H   UNL     1       0.878   7.231  21.432  0.00  0.00    +0.000 HD
ATOM     15  H   UNL     1       1.986   7.984  20.342  0.00  0.00    +0.000 HD
ENDBRANCH   1  12
BRANCH   4  16
ATOM     16  N   UNL     1       6.468   4.712  14.142  0.00  0.00    +0.000 N 
ATOM     17  C   UNL     1       6.341   3.928  13.021  0.00  0.00    +0.000 A 
ATOM     18  N   UNL     1       7.341   4.140  12.194  0.00  0.00    +0.000 NA
ATOM     19  C   UNL     1       8.065   5.090  12.843  0.00  0.00    +0.000 A 
ATOM     20  N   UNL     1       7.572   5.491  14.015  0.00  0.00    +0.000 NA
ENDBRANCH   4  16
TORSDOF 2
ENDMDL
MODEL 6
REMARK VINA RESULT:      -6.9      4.749      6.068
REMARK  Name = 
REMARK  2 active torsions:
REMARK  status: ('A' for Active; 'I' for Inactive)
REMARK    1  A    between atoms: C_6  and  C_7
REMARK    2  A    between atoms: C_10  and  N_11
REMARK                            x       y       z     vdW  Elec       q    Type
REMARK                         _______ _______ _______ _____ _____    ______ ____
ROOT
ATOM      1  C   UNL     1       2.284   5.616  19.248  0.00  0.00    +0.000 A 
ATOM      2  C   UNL     1       2.447   6.674  18.336  0.00  0.00    +0.000 A 
ATOM      3  C   UNL     1       2.097   7.988  18.664  0.00  0.00    +0.000 A 
ATOM      4  C   UNL     1       1.575   8.278  19.929  0.00  0.00    +0.000 A 
ATOM      5  C   UNL     1       1.378   7.241  20.844  0.00  0.00    +0.000 A 
ATOM      6  C   UNL     1       1.718   5.928  20.498  0.00  0.00    +0.000 A 
ENDROOT
BRANCH   1  12
ATOM      7  N   UNL     1       5.078   1.912  20.173  0.00  0.00    +0.000 N 
ATOM      8  C   UNL     1       4.094   2.471  19.386  0.00  0.00    +0.000 A 
ATOM      9  N   UNL     1       3.593   1.712  18.410  0.00  0.00    +0.000 NA
ATOM     10  C   UNL     1       2.624   2.262  17.665  0.00  0.00    +0.000 A 
ATOM     11  C   UNL     1       2.141   3.529  17.870  0.00  0.00    +0.000 A 
ATOM     12  C   UNL     1       2.712   4.242  18.908  0.00  0.00    +0.000 A 
ATOM     13  N   UNL     1       3.681   3.706  19.685  0.00  0.00    +0.000 NA
ATOM     14  H   UNL     1       5.011   0.904  20.131  0.00  0.00    +0.000 HD
ATOM     15  H   UNL     1       5.078   2.342  21.086  0.00  0.00    +0.000 HD
ENDBRANCH   1  12
BRANCH   4  16
ATOM     16  N   UNL     1       1.263   9.609  20.305  0.00  0.00    +0.000 N 
ATOM     17  C   UNL     1       0.930  10.096  21.546  0.00  0.00    +0.000 A 
ATOM     18  N   UNL     1       0.638  11.376  21.476  0.00  0.00    +0.000 NA
ATOM     19  C   UNL     1       0.822  11.649  20.156  0.00  0.00    +0.000 A 
ATOM     20  N   UNL     1       1.223  10.624  19.405  0.00  0.00    +0.000 NA
ENDBRANCH   4  16
TORSDOF 2
ENDMDL
MODEL 7
REMARK VINA RESULT:      -6.9      1.254      1.741
REMARK  Name = 
REMARK  2 active torsions:
REMARK  status: ('A' for Active; 'I' for Inactive)
REMARK    1  A    between atoms: C_6  and  C_7
REMARK    2  A    between atoms: C_10  and  N_11
REMARK                            x       y       z     vdW  Elec       q    Type
REMARK                         _______ _______ _______ _____ _____    ______ ____
ROOT
ATOM      1  C   UNL     1       5.450   4.205  15.994  0.00  0.00    +0.000 A 
ATOM      2  C   UNL     1       6.159   4.408  17.191  0.00  0.00    +0.000 A 
ATOM      3  C   UNL     1       5.550   4.259  18.442  0.00  0.00    +0.000 A 
ATOM      4  C   UNL     1       4.202   3.895  18.524  0.00  0.00    +0.000 A 
ATOM      5  C   UNL     1       3.467   3.714  17.349  0.00  0.00    +0.000 A 
ATOM      6  C   UNL     1       4.085   3.881  16.104  0.00  0.00    +0.000 A 
ENDROOT
BRANCH   1  12
ATOM      7  N   UNL     1       8.946   6.030  13.382  0.00  0.00    +0.000 N 
ATOM      8  C   UNL     1       7.829   5.226  13.448  0.00  0.00    +0.000 A 
ATOM      9  N   UNL     1       7.474   4.587  12.331  0.00  0.00    +0.000 NA
ATOM     10  C   UNL     1       6.397   3.793  12.416  0.00  0.00    +0.000 A 
ATOM     11  C   UNL     1       5.680   3.615  13.571  0.00  0.00    +0.000 A 
ATOM     12  C   UNL     1       6.122   4.309  14.682  0.00  0.00    +0.000 A 
ATOM     13  N   UNL     1       7.215   5.105  14.628  0.00  0.00    +0.000 NA
ATOM     14  H   UNL     1       9.532   5.730  12.614  0.00  0.00    +0.000 HD
ATOM     15  H   UNL     1       9.373   6.107  14.293  0.00  0.00    +0.000 HD
ENDBRANCH   1  12
BRANCH   4  16
ATOM     16  N   UNL     1       3.575   3.686  19.778  0.00  0.00    +0.000 N 
ATOM     17  C   UNL     1       3.683   2.609  20.624  0.00  0.00    +0.000 A 
ATOM     18  N   UNL     1       2.886   2.754  21.660  0.00  0.00    +0.000 NA
ATOM     19  C   UNL     1       2.307   3.961  21.421  0.00  0.00    +0.000 A 
ATOM     20  N   UNL     1       2.704   4.580  20.309  0.00  0.00    +0.000 NA
ENDBRANCH   4  16
TORSDOF 2
ENDMDL
MODEL 8
REMARK VINA RESULT:      -6.9      2.573      3.919
REMARK  Name = 
REMARK  2 active torsions:
REMARK  status: ('A' for Active; 'I' for Inactive)
REMARK    1  A    between atoms: C_6  and  C_7
REMARK    2  A    between atoms: C_10  and  N_11
REMARK                            x       y       z     vdW  Elec       q    Type
REMARK                         _______ _______ _______ _____ _____    ______ ____
ROOT
ATOM      1  C   UNL     1       4.120   6.533  17.738  0.00  0.00    +0.000 A 
ATOM      2  C   UNL     1       3.591   7.760  17.301  0.00  0.00    +0.000 A 
ATOM      3  C   UNL     1       2.599   8.433  18.024  0.00  0.00    +0.000 A 
ATOM      4  C   UNL     1       2.113   7.889  19.217  0.00  0.00    +0.000 A 
ATOM      5  C   UNL     1       2.604   6.657  19.660  0.00  0.00    +0.000 A 
ATOM      6  C   UNL     1       3.584   5.987  18.919  0.00  0.00    +0.000 A 
ENDROOT
BRANCH   1  12
ATOM      7  N   UNL     1       8.230   4.192  17.830  0.00  0.00    +0.000 N 
ATOM      8  C   UNL     1       7.208   4.738  17.084  0.00  0.00    +0.000 A 
ATOM      9  N   UNL     1       7.275   4.585  15.760  0.00  0.00    +0.000 NA
ATOM     10  C   UNL     1       6.264   5.105  15.048  0.00  0.00    +0.000 A 
ATOM     11  C   UNL     1       5.200   5.757  15.615  0.00  0.00    +0.000 A 
ATOM     12  C   UNL     1       5.208   5.864  16.994  0.00  0.00    +0.000 A 
ATOM     13  N   UNL     1       6.207   5.335  17.736  0.00  0.00    +0.000 NA
ATOM     14  H   UNL     1       8.673   3.451  17.304  0.00  0.00    +0.000 HD
ATOM     15  H   UNL     1       7.901   3.972  18.759  0.00  0.00    +0.000 HD
ENDBRANCH   1  12
BRANCH   4  16
ATOM     16  N   UNL     1       1.148   8.575  19.996  0.00  0.00    +0.000 N 
ATOM     17  C   UNL     1       0.455   9.722  19.692  0.00  0.00    +0.000 A 
ATOM     18  N   UNL     1      -0.298  10.088  20.706  0.00  0.00    +0.000 NA
ATOM     19  C   UNL     1      -0.051   9.116  21.624  0.00  0.00    +0.000 A 
ATOM     20  N   UNL     1       0.798   8.163  21.240  0.00  0.00    +0.000 NA
ENDBRANCH   4  16
TORSDOF 2
ENDMDL
MODEL 9
REMARK VINA RESULT:      -6.8      3.878      5.884
REMARK  Name = 
REMARK  2 active torsions:
REMARK  status: ('A' for Active; 'I' for Inactive)
REMARK    1  A    between atoms: C_6  and  C_7
REMARK    2  A    between atoms: C_10  and  N_11
REMARK                            x       y       z     vdW  Elec       q    Type
REMARK                         _______ _______ _______ _____ _____    ______ ____
ROOT
ATOM      1  C   UNL     1       2.411   6.868  18.876  0.00  0.00    +0.000 A 
ATOM      2  C   UNL     1       2.027   7.042  20.217  0.00  0.00    +0.000 A 
ATOM      3  C   UNL     1       1.444   8.233  20.667  0.00  0.00    +0.000 A 
ATOM      4  C   UNL     1       1.225   9.286  19.773  0.00  0.00    +0.000 A 
ATOM      5  C   UNL     1       1.622   9.148  18.440  0.00  0.00    +0.000 A 
ATOM      6  C   UNL     1       2.218   7.958  18.007  0.00  0.00    +0.000 A 
ENDROOT
BRANCH   1  12
ATOM      7  N   UNL     1       6.142   3.983  18.510  0.00  0.00    +0.000 N 
ATOM      8  C   UNL     1       4.812   4.219  18.240  0.00  0.00    +0.000 A 
ATOM      9  N   UNL     1       4.141   3.255  17.606  0.00  0.00    +0.000 NA
ATOM     10  C   UNL     1       2.842   3.491  17.367  0.00  0.00    +0.000 A 
ATOM     11  C   UNL     1       2.202   4.643  17.746  0.00  0.00    +0.000 A 
ATOM     12  C   UNL     1       2.972   5.585  18.404  0.00  0.00    +0.000 A 
ATOM     13  N   UNL     1       4.280   5.366  18.671  0.00  0.00    +0.000 NA
ATOM     14  H   UNL     1       6.312   2.987  18.520  0.00  0.00    +0.000 HD
ATOM     15  H   UNL     1       6.431   4.514  19.318  0.00  0.00    +0.000 HD
ENDBRANCH   1  12
BRANCH   4  16
ATOM     16  N   UNL     1       0.587  10.481  20.191  0.00  0.00    +0.000 N 
ATOM     17  C   UNL     1      -0.272  11.288  19.486  0.00  0.00    +0.000 A 
ATOM     18  N   UNL     1      -0.594  12.349  20.194  0.00  0.00    +0.000 NA
ATOM     19  C   UNL     1       0.084  12.146  21.355  0.00  0.00    +0.000 A 
ATOM     20  N   UNL     1       0.796  11.020  21.418  0.00  0.00    +0.000 NA
ENDBRANCH   4  16
TORSDOF 2
ENDMDL
