MODEL 1
REMARK VINA RESULT:      -8.8      0.000      0.000
REMARK  Name = 
REMARK  2 active torsions:
REMARK  status: ('A' for Active; 'I' for Inactive)
REMARK    1  A    between atoms: C_16  and  N_17
REMARK    2  A    between atoms: C_19  and  C_20
REMARK                            x       y       z     vdW  Elec       q    Type
REMARK                         _______ _______ _______ _____ _____    ______ ____
ROOT
ATOM      1  O   UNL     1       5.556   3.644  16.404  0.00  0.00    +0.000 OA
ATOM      2  C   UNL     1       4.646   4.212  17.003  0.00  0.00    +0.000 C 
ATOM      3  C   UNL     1       3.707   3.413  17.888  0.00  0.00    +0.000 C 
ATOM      4  O   UNL     1       3.680   2.194  17.834  0.00  0.00    +0.000 OA
ATOM      5  C   UNL     1       2.852   4.152  18.832  0.00  0.00    +0.000 A 
ATOM      6  C   UNL     1       2.095   3.447  19.773  0.00  0.00    +0.000 A 
ATOM      7  C   UNL     1       1.311   4.143  20.689  0.00  0.00    +0.000 A 
ATOM      8  C   UNL     1       1.324   5.536  20.700  0.00  0.00    +0.000 A 
ATOM      9  C   UNL     1       2.111   6.250  19.783  0.00  0.00    +0.000 A 
ATOM     10  C   UNL     1       2.830   5.550  18.791  0.00  0.00    +0.000 A 
ATOM     11  C   UNL     1       3.526   6.295  17.719  0.00  0.00    +0.000 C 
ATOM     12  C   UNL     1       4.398   5.675  16.905  0.00  0.00    +0.000 C 
ATOM     13 CL   UNL     1       5.301   6.535  15.706  0.00  0.00    +0.000 Cl
ATOM     14  O   UNL     1       3.283   7.662  17.589  0.00  0.00    +0.000 OA
ATOM     15  C   UNL     1       2.163   8.196  18.332  0.00  0.00    +0.000 C 
ATOM     16  C   UNL     1       2.284   7.763  19.788  0.00  0.00    +0.000 C 
ENDROOT
BRANCH  16  17
ATOM     17  N   UNL     1       1.459   8.458  20.755  0.00  0.00    +0.000 N 
ATOM     18  C   UNL     1       0.395   9.262  20.459  0.00  0.00    +0.000 A 
ATOM     19  C   UNL     1       0.089   9.872  21.654  0.00  0.00    +0.000 A 
ATOM     20  N   UNL     1       0.914   9.368  22.631  0.00  0.00    +0.000 NA
ATOM     21  N   UNL     1       1.747   8.496  22.068  0.00  0.00    +0.000 NA
BRANCH  19  22
ATOM     22  C   UNL     1      -0.863  10.954  21.819  0.00  0.00    +0.000 A 
ATOM     23  C   UNL     1      -1.251  11.733  20.736  0.00  0.00    +0.000 A 
ATOM     24  C   UNL     1      -2.263  12.673  20.919  0.00  0.00    +0.000 A 
ATOM     25  C   UNL     1      -2.832  12.828  22.178  0.00  0.00    +0.000 A 
ATOM     26  C   UNL     1      -2.368  12.032  23.209  0.00  0.00    +0.000 A 
ATOM     27  N   UNL     1      -1.407  11.094  23.058  0.00  0.00    +0.000 NA
ENDBRANCH  19  22
ENDBRANCH  16  17
TORSDOF 2
ENDMDL
MODEL 2
REMARK VINA RESULT:      -7.8      4.335      8.851
REMARK  Name = 
REMARK  2 active torsions:
REMARK  status: ('A' for Active; 'I' for Inactive)
REMARK    1  A    between atoms: C_16  and  N_17
REMARK    2  A    between atoms: C_19  and  C_20
REMARK                            x       y       z     vdW  Elec       q    Type
REMARK                         _______ _______ _______ _____ _____    ______ ____
ROOT
ATOM      1  O   UNL     1      -3.455  14.334  21.550  0.00  0.00    +0.000 OA
ATOM      2  C   UNL     1      -2.938  13.321  21.087  0.00  0.00    +0.000 C 
ATOM      3  C   UNL     1      -3.557  12.636  19.882  0.00  0.00    +0.000 C 
ATOM      4  O   UNL     1      -4.683  12.923  19.508  0.00  0.00    +0.000 OA
ATOM      5  C   UNL     1      -2.747  11.638  19.162  0.00  0.00    +0.000 A 
ATOM      6  C   UNL     1      -3.219  11.107  17.958  0.00  0.00    +0.000 A 
ATOM      7  C   UNL     1      -2.443  10.188  17.258  0.00  0.00    +0.000 A 
ATOM      8  C   UNL     1      -1.178   9.842  17.730  0.00  0.00    +0.000 A 
ATOM      9  C   UNL     1      -0.682  10.402  18.918  0.00  0.00    +0.000 A 
ATOM     10  C   UNL     1      -1.506  11.257  19.681  0.00  0.00    +0.000 A 
ATOM     11  C   UNL     1      -1.060  11.716  21.014  0.00  0.00    +0.000 C 
ATOM     12  C   UNL     1      -1.711  12.702  21.655  0.00  0.00    +0.000 C 
ATOM     13 CL   UNL     1      -1.159  13.330  23.170  0.00  0.00    +0.000 Cl
ATOM     14  O   UNL     1       0.071  11.127  21.581  0.00  0.00    +0.000 OA
ATOM     15  C   UNL     1       0.561   9.922  20.949  0.00  0.00    +0.000 C 
ATOM     16  C   UNL     1       0.725  10.179  19.456  0.00  0.00    +0.000 C 
ENDROOT
BRANCH  16  17
ATOM     17  N   UNL     1       1.510   9.222  18.703  0.00  0.00    +0.000 N 
ATOM     18  C   UNL     1       1.833   7.960  19.116  0.00  0.00    +0.000 A 
ATOM     19  C   UNL     1       2.764   7.532  18.198  0.00  0.00    +0.000 A 
ATOM     20  N   UNL     1       2.916   8.502  17.236  0.00  0.00    +0.000 NA
ATOM     21  N   UNL     1       2.136   9.533  17.554  0.00  0.00    +0.000 NA
BRANCH  19  22
ATOM     22  C   UNL     1       3.543   6.312  18.306  0.00  0.00    +0.000 A 
ATOM     23  C   UNL     1       4.844   6.253  17.825  0.00  0.00    +0.000 A 
ATOM     24  C   UNL     1       5.594   5.104  18.068  0.00  0.00    +0.000 A 
ATOM     25  C   UNL     1       5.015   4.043  18.753  0.00  0.00    +0.000 A 
ATOM     26  C   UNL     1       3.704   4.173  19.174  0.00  0.00    +0.000 A 
ATOM     27  N   UNL     1       2.959   5.282  18.977  0.00  0.00    +0.000 NA
ENDBRANCH  19  22
ENDBRANCH  16  17
TORSDOF 2
ENDMDL
MODEL 3
REMARK VINA RESULT:      -7.7      2.401      2.715
REMARK  Name = 
REMARK  2 active torsions:
REMARK  status: ('A' for Active; 'I' for Inactive)
REMARK    1  A    between atoms: C_16  and  N_17
REMARK    2  A    between atoms: C_19  and  C_20
REMARK                            x       y       z     vdW  Elec       q    Type
REMARK                         _______ _______ _______ _____ _____    ______ ____
ROOT
ATOM      1  O   UNL     1       7.092   4.241  18.577  0.00  0.00    +0.000 OA
ATOM      2  C   UNL     1       5.963   4.727  18.582  0.00  0.00    +0.000 C 
ATOM      3  C   UNL     1       4.864   4.086  19.408  0.00  0.00    +0.000 C 
ATOM      4  O   UNL     1       5.004   2.968  19.877  0.00  0.00    +0.000 OA
ATOM      5  C   UNL     1       3.637   4.864  19.650  0.00  0.00    +0.000 A 
ATOM      6  C   UNL     1       2.674   4.374  20.537  0.00  0.00    +0.000 A 
ATOM      7  C   UNL     1       1.528   5.121  20.794  0.00  0.00    +0.000 A 
ATOM      8  C   UNL     1       1.371   6.377  20.210  0.00  0.00    +0.000 A 
ATOM      9  C   UNL     1       2.353   6.892  19.348  0.00  0.00    +0.000 A 
ATOM     10  C   UNL     1       3.467   6.095  19.009  0.00  0.00    +0.000 A 
ATOM     11  C   UNL     1       4.418   6.557  17.975  0.00  0.00    +0.000 C 
ATOM     12  C   UNL     1       5.597   5.937  17.798  0.00  0.00    +0.000 C 
ATOM     13 CL   UNL     1       6.773   6.511  16.666  0.00  0.00    +0.000 Cl
ATOM     14  O   UNL     1       4.081   7.672  17.207  0.00  0.00    +0.000 OA
ATOM     15  C   UNL     1       2.710   8.125  17.287  0.00  0.00    +0.000 C 
ATOM     16  C   UNL     1       2.330   8.293  18.753  0.00  0.00    +0.000 C 
ENDROOT
BRANCH  16  17
ATOM     17  N   UNL     1       1.128   9.048  19.042  0.00  0.00    +0.000 N 
ATOM     18  C   UNL     1       0.034   9.143  18.229  0.00  0.00    +0.000 A 
ATOM     19  C   UNL     1      -0.729  10.134  18.802  0.00  0.00    +0.000 A 
ATOM     20  N   UNL     1      -0.120  10.545  19.964  0.00  0.00    +0.000 NA
ATOM     21  N   UNL     1       1.017   9.867  20.103  0.00  0.00    +0.000 NA
BRANCH  19  22
ATOM     22  C   UNL     1      -1.913  10.725  18.207  0.00  0.00    +0.000 A 
ATOM     23  C   UNL     1      -2.222  10.507  16.871  0.00  0.00    +0.000 A 
ATOM     24  C   UNL     1      -3.435  10.988  16.380  0.00  0.00    +0.000 A 
ATOM     25  C   UNL     1      -4.283  11.693  17.226  0.00  0.00    +0.000 A 
ATOM     26  C   UNL     1      -3.886  11.890  18.536  0.00  0.00    +0.000 A 
ATOM     27  N   UNL     1      -2.729  11.416  19.049  0.00  0.00    +0.000 NA
ENDBRANCH  19  22
ENDBRANCH  16  17
TORSDOF 2
ENDMDL
MODEL 4
REMARK VINA RESULT:      -7.5      4.031      8.172
REMARK  Name = 
REMARK  2 active torsions:
REMARK  status: ('A' for Active; 'I' for Inactive)
REMARK    1  A    between atoms: C_16  and  N_17
REMARK    2  A    between atoms: C_19  and  C_20
REMARK                            x       y       z     vdW  Elec       q    Type
REMARK                         _______ _______ _______ _____ _____    ______ ____
ROOT
ATOM      1  O   UNL     1      -1.924  13.523  21.178  0.00  0.00    +0.000 OA
ATOM      2  C   UNL     1      -1.060  12.676  20.962  0.00  0.00    +0.000 C 
ATOM      3  C   UNL     1      -0.688  11.679  22.044  0.00  0.00    +0.000 C 
ATOM      4  O   UNL     1      -1.049  11.844  23.199  0.00  0.00    +0.000 OA
ATOM      5  C   UNL     1       0.095  10.495  21.653  0.00  0.00    +0.000 A 
ATOM      6  C   UNL     1       0.318   9.477  22.585  0.00  0.00    +0.000 A 
ATOM      7  C   UNL     1       1.029   8.341  22.211  0.00  0.00    +0.000 A 
ATOM      8  C   UNL     1       1.469   8.197  20.897  0.00  0.00    +0.000 A 
ATOM      9  C   UNL     1       1.215   9.198  19.945  0.00  0.00    +0.000 A 
ATOM     10  C   UNL     1       0.582  10.393  20.346  0.00  0.00    +0.000 A 
ATOM     11  C   UNL     1       0.461  11.520  19.395  0.00  0.00    +0.000 C 
ATOM     12  C   UNL     1      -0.331  12.570  19.670  0.00  0.00    +0.000 C 
ATOM     13 CL   UNL     1      -0.571  13.857  18.539  0.00  0.00    +0.000 Cl
ATOM     14  O   UNL     1       1.162  11.456  18.190  0.00  0.00    +0.000 OA
ATOM     15  C   UNL     1       2.170  10.425  18.079  0.00  0.00    +0.000 C 
ATOM     16  C   UNL     1       1.552   9.086  18.465  0.00  0.00    +0.000 C 
ENDROOT
BRANCH  16  17
ATOM     17  N   UNL     1       2.287   7.891  18.104  0.00  0.00    +0.000 N 
ATOM     18  C   UNL     1       1.858   6.608  18.292  0.00  0.00    +0.000 A 
ATOM     19  C   UNL     1       2.966   5.838  18.024  0.00  0.00    +0.000 A 
ATOM     20  N   UNL     1       3.989   6.662  17.618  0.00  0.00    +0.000 NA
ATOM     21  N   UNL     1       3.558   7.920  17.665  0.00  0.00    +0.000 NA
BRANCH  19  22
ATOM     22  C   UNL     1       3.066   4.409  18.256  0.00  0.00    +0.000 A 
ATOM     23  C   UNL     1       2.372   3.509  17.458  0.00  0.00    +0.000 A 
ATOM     24  C   UNL     1       2.601   2.145  17.636  0.00  0.00    +0.000 A 
ATOM     25  C   UNL     1       3.488   1.724  18.620  0.00  0.00    +0.000 A 
ATOM     26  C   UNL     1       4.116   2.686  19.390  0.00  0.00    +0.000 A 
ATOM     27  N   UNL     1       3.936   4.015  19.226  0.00  0.00    +0.000 NA
ENDBRANCH  19  22
ENDBRANCH  16  17
TORSDOF 2
ENDMDL
MODEL 5
REMARK VINA RESULT:      -7.4      2.216      3.223
REMARK  Name = 
REMARK  2 active torsions:
REMARK  status: ('A' for Active; 'I' for Inactive)
REMARK    1  A    between atoms: C_16  and  N_17
REMARK    2  A    between atoms: C_19  and  C_20
REMARK                            x       y       z     vdW  Elec       q    Type
REMARK                         _______ _______ _______ _____ _____    ______ ____
ROOT
ATOM      1  O   UNL     1       3.353   1.525  17.946  0.00  0.00    +0.000 OA
ATOM      2  C   UNL     1       3.368   2.721  18.228  0.00  0.00    +0.000 C 
ATOM      3  C   UNL     1       4.246   3.675  17.440  0.00  0.00    +0.000 C 
ATOM      4  O   UNL     1       5.115   3.255  16.693  0.00  0.00    +0.000 OA
ATOM      5  C   UNL     1       3.998   5.120  17.582  0.00  0.00    +0.000 A 
ATOM      6  C   UNL     1       4.675   6.020  16.753  0.00  0.00    +0.000 A 
ATOM      7  C   UNL     1       4.419   7.384  16.860  0.00  0.00    +0.000 A 
ATOM      8  C   UNL     1       3.453   7.843  17.753  0.00  0.00    +0.000 A 
ATOM      9  C   UNL     1       2.742   6.941  18.561  0.00  0.00    +0.000 A 
ATOM     10  C   UNL     1       3.068   5.569  18.525  0.00  0.00    +0.000 A 
ATOM     11  C   UNL     1       2.447   4.636  19.490  0.00  0.00    +0.000 C 
ATOM     12  C   UNL     1       2.561   3.306  19.332  0.00  0.00    +0.000 C 
ATOM     13 CL   UNL     1       1.765   2.187  20.385  0.00  0.00    +0.000 Cl
ATOM     14  O   UNL     1       1.711   5.163  20.551  0.00  0.00    +0.000 OA
ATOM     15  C   UNL     1       1.841   6.584  20.788  0.00  0.00    +0.000 C 
ATOM     16  C   UNL     1       1.592   7.328  19.481  0.00  0.00    +0.000 C 
ENDROOT
BRANCH  16  17
ATOM     17  N   UNL     1       1.347   8.753  19.569  0.00  0.00    +0.000 N 
ATOM     18  C   UNL     1       1.043   9.438  20.711  0.00  0.00    +0.000 A 
ATOM     19  C   UNL     1       0.671  10.686  20.268  0.00  0.00    +0.000 A 
ATOM     20  N   UNL     1       0.831  10.737  18.903  0.00  0.00    +0.000 NA
ATOM     21  N   UNL     1       1.252   9.545  18.486  0.00  0.00    +0.000 NA
BRANCH  19  22
ATOM     22  C   UNL     1       0.089  11.727  21.095  0.00  0.00    +0.000 A 
ATOM     23  C   UNL     1      -0.783  11.410  22.129  0.00  0.00    +0.000 A 
ATOM     24  C   UNL     1      -1.212  12.430  22.976  0.00  0.00    +0.000 A 
ATOM     25  C   UNL     1      -0.784  13.733  22.748  0.00  0.00    +0.000 A 
ATOM     26  C   UNL     1       0.063  13.966  21.679  0.00  0.00    +0.000 A 
ATOM     27  N   UNL     1       0.517  12.996  20.855  0.00  0.00    +0.000 NA
ENDBRANCH  19  22
ENDBRANCH  16  17
TORSDOF 2
ENDMDL
MODEL 6
REMARK VINA RESULT:      -7.3      1.607      1.880
REMARK  Name = 
REMARK  2 active torsions:
REMARK  status: ('A' for Active; 'I' for Inactive)
REMARK    1  A    between atoms: C_16  and  N_17
REMARK    2  A    between atoms: C_19  and  C_20
REMARK                            x       y       z     vdW  Elec       q    Type
REMARK                         _______ _______ _______ _____ _____    ______ ____
ROOT
ATOM      1  O   UNL     1       7.052   4.083  18.385  0.00  0.00    +0.000 OA
ATOM      2  C   UNL     1       5.956   4.638  18.414  0.00  0.00    +0.000 C 
ATOM      3  C   UNL     1       4.868   4.120  19.337  0.00  0.00    +0.000 C 
ATOM      4  O   UNL     1       4.968   3.027  19.872  0.00  0.00    +0.000 OA
ATOM      5  C   UNL     1       3.704   4.986  19.587  0.00  0.00    +0.000 A 
ATOM      6  C   UNL     1       2.763   4.615  20.553  0.00  0.00    +0.000 A 
ATOM      7  C   UNL     1       1.679   5.447  20.816  0.00  0.00    +0.000 A 
ATOM      8  C   UNL     1       1.564   6.669  20.158  0.00  0.00    +0.000 A 
ATOM      9  C   UNL     1       2.525   7.066  19.215  0.00  0.00    +0.000 A 
ATOM     10  C   UNL     1       3.571   6.182  18.874  0.00  0.00    +0.000 A 
ATOM     11  C   UNL     1       4.490   6.517  17.765  0.00  0.00    +0.000 C 
ATOM     12  C   UNL     1       5.620   5.815  17.571  0.00  0.00    +0.000 C 
ATOM     13 CL   UNL     1       6.763   6.242  16.345  0.00  0.00    +0.000 Cl
ATOM     14  O   UNL     1       4.177   7.599  16.941  0.00  0.00    +0.000 OA
ATOM     15  C   UNL     1       2.841   8.141  17.060  0.00  0.00    +0.000 C 
ATOM     16  C   UNL     1       2.552   8.425  18.529  0.00  0.00    +0.000 C 
ENDROOT
BRANCH  16  17
ATOM     17  N   UNL     1       1.414   9.270  18.827  0.00  0.00    +0.000 N 
ATOM     18  C   UNL     1       1.210   9.946  19.997  0.00  0.00    +0.000 A 
ATOM     19  C   UNL     1      -0.084  10.402  19.904  0.00  0.00    +0.000 A 
ATOM     20  N   UNL     1      -0.586  10.059  18.671  0.00  0.00    +0.000 NA
ATOM     21  N   UNL     1       0.346   9.369  18.017  0.00  0.00    +0.000 NA
BRANCH  19  22
ATOM     22  C   UNL     1      -0.827  11.031  20.981  0.00  0.00    +0.000 A 
ATOM     23  C   UNL     1      -1.739  12.045  20.719  0.00  0.00    +0.000 A 
ATOM     24  C   UNL     1      -2.521  12.526  21.767  0.00  0.00    +0.000 A 
ATOM     25  C   UNL     1      -2.348  12.004  23.043  0.00  0.00    +0.000 A 
ATOM     26  C   UNL     1      -1.398  11.014  23.223  0.00  0.00    +0.000 A 
ATOM     27  N   UNL     1      -0.642  10.509  22.224  0.00  0.00    +0.000 NA
ENDBRANCH  19  22
ENDBRANCH  16  17
TORSDOF 2
ENDMDL
MODEL 7
REMARK VINA RESULT:      -7.3      3.839      8.389
REMARK  Name = 
REMARK  2 active torsions:
REMARK  status: ('A' for Active; 'I' for Inactive)
REMARK    1  A    between atoms: C_16  and  N_17
REMARK    2  A    between atoms: C_19  and  C_20
REMARK                            x       y       z     vdW  Elec       q    Type
REMARK                         _______ _______ _______ _____ _____    ______ ____
ROOT
ATOM      1  O   UNL     1      -3.183  12.512  20.128  0.00  0.00    +0.000 OA
ATOM      2  C   UNL     1      -2.127  11.885  20.150  0.00  0.00    +0.000 C 
ATOM      3  C   UNL     1      -1.464  11.560  21.476  0.00  0.00    +0.000 C 
ATOM      4  O   UNL     1      -1.822  12.110  22.506  0.00  0.00    +0.000 OA
ATOM      5  C   UNL     1      -0.399  10.544  21.486  0.00  0.00    +0.000 A 
ATOM      6  C   UNL     1       0.121  10.103  22.707  0.00  0.00    +0.000 A 
ATOM      7  C   UNL     1       1.105   9.119  22.723  0.00  0.00    +0.000 A 
ATOM      8  C   UNL     1       1.529   8.539  21.529  0.00  0.00    +0.000 A 
ATOM      9  C   UNL     1       0.983   8.950  20.303  0.00  0.00    +0.000 A 
ATOM     10  C   UNL     1       0.058  10.015  20.275  0.00  0.00    +0.000 A 
ATOM     11  C   UNL     1      -0.394  10.567  18.980  0.00  0.00    +0.000 C 
ATOM     12  C   UNL     1      -1.436  11.415  18.920  0.00  0.00    +0.000 C 
ATOM     13 CL   UNL     1      -2.052  12.002  17.414  0.00  0.00    +0.000 Cl
ATOM     14  O   UNL     1       0.261  10.165  17.816  0.00  0.00    +0.000 OA
ATOM     15  C   UNL     1       1.509   9.454  17.986  0.00  0.00    +0.000 C 
ATOM     16  C   UNL     1       1.293   8.302  18.960  0.00  0.00    +0.000 C 
ENDROOT
BRANCH  16  17
ATOM     17  N   UNL     1       2.317   7.278  19.009  0.00  0.00    +0.000 N 
ATOM     18  C   UNL     1       3.405   7.203  18.188  0.00  0.00    +0.000 A 
ATOM     19  C   UNL     1       3.942   5.964  18.450  0.00  0.00    +0.000 A 
ATOM     20  N   UNL     1       3.218   5.372  19.457  0.00  0.00    +0.000 NA
ATOM     21  N   UNL     1       2.226   6.192  19.797  0.00  0.00    +0.000 NA
BRANCH  19  22
ATOM     22  C   UNL     1       5.016   5.343  17.696  0.00  0.00    +0.000 A 
ATOM     23  C   UNL     1       4.750   4.346  16.767  0.00  0.00    +0.000 A 
ATOM     24  C   UNL     1       5.797   3.873  15.978  0.00  0.00    +0.000 A 
ATOM     25  C   UNL     1       7.076   4.386  16.160  0.00  0.00    +0.000 A 
ATOM     26  C   UNL     1       7.259   5.358  17.127  0.00  0.00    +0.000 A 
ATOM     27  N   UNL     1       6.262   5.855  17.891  0.00  0.00    +0.000 NA
ENDBRANCH  19  22
ENDBRANCH  16  17
TORSDOF 2
ENDMDL
MODEL 8
REMARK VINA RESULT:      -7.2      1.130      1.135
REMARK  Name = 
REMARK  2 active torsions:
REMARK  status: ('A' for Active; 'I' for Inactive)
REMARK    1  A    between atoms: C_16  and  N_17
REMARK    2  A    between atoms: C_19  and  C_20
REMARK                            x       y       z     vdW  Elec       q    Type
REMARK                         _______ _______ _______ _____ _____    ______ ____
ROOT
ATOM      1  O   UNL     1       6.845   4.085  17.938  0.00  0.00    +0.000 OA
ATOM      2  C   UNL     1       5.736   4.536  18.214  0.00  0.00    +0.000 C 
ATOM      3  C   UNL     1       4.775   3.723  19.061  0.00  0.00    +0.000 C 
ATOM      4  O   UNL     1       4.978   2.538  19.276  0.00  0.00    +0.000 OA
ATOM      5  C   UNL     1       3.609   4.412  19.639  0.00  0.00    +0.000 A 
ATOM      6  C   UNL     1       2.793   3.738  20.553  0.00  0.00    +0.000 A 
ATOM      7  C   UNL     1       1.709   4.396  21.127  0.00  0.00    +0.000 A 
ATOM      8  C   UNL     1       1.473   5.737  20.831  0.00  0.00    +0.000 A 
ATOM      9  C   UNL     1       2.311   6.431  19.943  0.00  0.00    +0.000 A 
ATOM     10  C   UNL     1       3.350   5.740  19.285  0.00  0.00    +0.000 A 
ATOM     11  C   UNL     1       4.130   6.415  18.224  0.00  0.00    +0.000 C 
ATOM     12  C   UNL     1       5.261   5.866  17.748  0.00  0.00    +0.000 C 
ATOM     13 CL   UNL     1       6.248   6.675  16.580  0.00  0.00    +0.000 Cl
ATOM     14  O   UNL     1       3.686   7.649  17.750  0.00  0.00    +0.000 OA
ATOM     15  C   UNL     1       2.349   8.047  18.131  0.00  0.00    +0.000 C 
ATOM     16  C   UNL     1       2.207   7.920  19.643  0.00  0.00    +0.000 C 
ENDROOT
BRANCH  16  17
ATOM     17  N   UNL     1       1.072   8.578  20.258  0.00  0.00    +0.000 N 
ATOM     18  C   UNL     1       0.604   9.820  19.936  0.00  0.00    +0.000 A 
ATOM     19  C   UNL     1      -0.309  10.105  20.925  0.00  0.00    +0.000 A 
ATOM     20  N   UNL     1      -0.417   9.014  21.755  0.00  0.00    +0.000 NA
ATOM     21  N   UNL     1       0.433   8.081  21.331  0.00  0.00    +0.000 NA
BRANCH  19  22
ATOM     22  C   UNL     1      -0.953  11.391  21.122  0.00  0.00    +0.000 A 
ATOM     23  C   UNL     1      -1.676  11.989  20.098  0.00  0.00    +0.000 A 
ATOM     24  C   UNL     1      -2.382  13.158  20.376  0.00  0.00    +0.000 A 
ATOM     25  C   UNL     1      -2.321  13.707  21.651  0.00  0.00    +0.000 A 
ATOM     26  C   UNL     1      -1.555  13.062  22.605  0.00  0.00    +0.000 A 
ATOM     27  N   UNL     1      -0.879  11.915  22.376  0.00  0.00    +0.000 NA
ENDBRANCH  19  22
ENDBRANCH  16  17
TORSDOF 2
ENDMDL
MODEL 9
REMARK VINA RESULT:      -7.2      2.426      3.304
REMARK  Name = 
REMARK  2 active torsions:
REMARK  status: ('A' for Active; 'I' for Inactive)
REMARK    1  A    between atoms: C_16  and  N_17
REMARK    2  A    between atoms: C_19  and  C_20
REMARK                            x       y       z     vdW  Elec       q    Type
REMARK                         _______ _______ _______ _____ _____    ______ ____
ROOT
ATOM      1  O   UNL     1       3.016   1.697  18.609  0.00  0.00    +0.000 OA
ATOM      2  C   UNL     1       3.058   2.913  18.778  0.00  0.00    +0.000 C 
ATOM      3  C   UNL     1       3.931   3.774  17.884  0.00  0.00    +0.000 C 
ATOM      4  O   UNL     1       4.774   3.270  17.159  0.00  0.00    +0.000 OA
ATOM      5  C   UNL     1       3.711   5.230  17.897  0.00  0.00    +0.000 A 
ATOM      6  C   UNL     1       4.381   6.037  16.973  0.00  0.00    +0.000 A 
ATOM      7  C   UNL     1       4.150   7.409  16.960  0.00  0.00    +0.000 A 
ATOM      8  C   UNL     1       3.215   7.967  17.829  0.00  0.00    +0.000 A 
ATOM      9  C   UNL     1       2.510   7.157  18.734  0.00  0.00    +0.000 A 
ATOM     10  C   UNL     1       2.813   5.781  18.817  0.00  0.00    +0.000 A 
ATOM     11  C   UNL     1       2.201   4.953  19.879  0.00  0.00    +0.000 C 
ATOM     12  C   UNL     1       2.289   3.612  19.842  0.00  0.00    +0.000 C 
ATOM     13 CL   UNL     1       1.502   2.611  21.013  0.00  0.00    +0.000 Cl
ATOM     14  O   UNL     1       1.501   5.589  20.904  0.00  0.00    +0.000 OA
ATOM     15  C   UNL     1       1.661   7.023  21.005  0.00  0.00    +0.000 C 
ATOM     16  C   UNL     1       1.391   7.648  19.642  0.00  0.00    +0.000 C 
ENDROOT
BRANCH  16  17
ATOM     17  N   UNL     1       1.171   9.079  19.602  0.00  0.00    +0.000 N 
ATOM     18  C   UNL     1       1.276   9.929  20.667  0.00  0.00    +0.000 A 
ATOM     19  C   UNL     1       0.755  11.115  20.206  0.00  0.00    +0.000 A 
ATOM     20  N   UNL     1       0.428  10.969  18.879  0.00  0.00    +0.000 NA
ATOM     21  N   UNL     1       0.694   9.716  18.518  0.00  0.00    +0.000 NA
BRANCH  19  22
ATOM     22  C   UNL     1       0.484  12.283  21.025  0.00  0.00    +0.000 A 
ATOM     23  C   UNL     1       1.168  13.473  20.816  0.00  0.00    +0.000 A 
ATOM     24  C   UNL     1       0.782  14.600  21.539  0.00  0.00    +0.000 A 
ATOM     25  C   UNL     1      -0.248  14.497  22.466  0.00  0.00    +0.000 A 
ATOM     26  C   UNL     1      -0.858  13.267  22.633  0.00  0.00    +0.000 A 
ATOM     27  N   UNL     1      -0.525  12.162  21.930  0.00  0.00    +0.000 NA
ENDBRANCH  19  22
ENDBRANCH  16  17
TORSDOF 2
ENDMDL
