MODEL 1
REMARK VINA RESULT:      -6.8      0.000      0.000
REMARK  Name = 
REMARK  10 active torsions:
REMARK  status: ('A' for Active; 'I' for Inactive)
REMARK    1  A    between atoms: C_1  and  O_2
REMARK    2  A    between atoms: O_2  and  C_3
REMARK    3  A    between atoms: C_6  and  C_7
REMARK    4  A    between atoms: C_7  and  C_8
REMARK    5  A    between atoms: C_8  and  N_9
REMARK    6  A    between atoms: C_10  and  C_12
REMARK    7  A    between atoms: C_19  and  O_20
REMARK    8  A    between atoms: O_20  and  C_21
REMARK    9  A    between atoms: C_23  and  O_24
REMARK   10  A    between atoms: O_24  and  C_25
REMARK                            x       y       z     vdW  Elec       q    Type
REMARK                         _______ _______ _______ _____ _____    ______ ____
ROOT
ATOM      1  N   UNL     1       2.442   8.119  17.647  0.00  0.00    +0.000 N 
ATOM      2  C   UNL     1       2.696   7.140  18.587  0.00  0.00    +0.000 C 
ATOM      3  O   UNL     1       2.550   7.310  19.790  0.00  0.00    +0.000 OA
ATOM      4  H   UNL     1       2.744   7.979  16.690  0.00  0.00    +0.000 HD
ENDROOT
BRANCH   2   5
ATOM      5  C   UNL     1       3.196   5.846  18.054  0.00  0.00    +0.000 A 
ATOM      6  C   UNL     1       4.449   5.856  17.391  0.00  0.00    +0.000 A 
ATOM      7 CL   UNL     1       5.443   7.272  17.227  0.00  0.00    +0.000 Cl
ATOM      8  C   UNL     1       4.987   4.691  16.836  0.00  0.00    +0.000 A 
ATOM      9  C   UNL     1       4.310   3.491  16.966  0.00  0.00    +0.000 A 
ATOM     10  C   UNL     1       3.093   3.456  17.645  0.00  0.00    +0.000 A 
ATOM     11 CL   UNL     1       2.333   1.900  17.784  0.00  0.00    +0.000 Cl
ATOM     12  C   UNL     1       2.500   4.624  18.195  0.00  0.00    +0.000 A 
BRANCH  12  13
ATOM     13  O   UNL     1       1.285   4.350  18.758  0.00  0.00    +0.000 OA
ATOM     14  C   UNL     1       1.082   4.104  20.135  0.00  0.00    +0.000 C 
ENDBRANCH  12  13
ENDBRANCH   2   5
BRANCH   1  15
ATOM     15  C   UNL     1       2.018   9.457  18.017  0.00  0.00    +0.000 C 
BRANCH  15  16
ATOM     16  C   UNL     1       0.497   9.586  17.937  0.00  0.00    +0.000 C 
BRANCH  16  20
ATOM     17  C   UNL     1      -1.199  11.672  21.311  0.00  0.00    +0.000 A 
ATOM     18  C   UNL     1      -1.642  11.942  20.006  0.00  0.00    +0.000 A 
ATOM     19  C   UNL     1      -1.077  11.294  18.908  0.00  0.00    +0.000 A 
ATOM     20  C   UNL     1      -0.030  10.392  19.092  0.00  0.00    +0.000 A 
ATOM     21  C   UNL     1       0.476  10.197  20.382  0.00  0.00    +0.000 A 
ATOM     22  C   UNL     1      -0.088  10.833  21.499  0.00  0.00    +0.000 A 
BRANCH  17  24
ATOM     23  C   UNL     1      -1.270  13.466  22.851  0.00  0.00    +0.000 C 
ATOM     24  O   UNL     1      -1.825  12.229  22.394  0.00  0.00    +0.000 OA
ENDBRANCH  17  24
BRANCH  22  25
ATOM     25  O   UNL     1       0.543  10.479  22.664  0.00  0.00    +0.000 OA
ATOM     26  C   UNL     1      -0.005   9.449  23.460  0.00  0.00    +0.000 C 
ENDBRANCH  22  25
ENDBRANCH  16  20
ENDBRANCH  15  16
ENDBRANCH   1  15
TORSDOF 7
ENDMDL
MODEL 2
REMARK VINA RESULT:      -6.7      1.431      2.253
REMARK  Name = 
REMARK  10 active torsions:
REMARK  status: ('A' for Active; 'I' for Inactive)
REMARK    1  A    between atoms: C_1  and  O_2
REMARK    2  A    between atoms: O_2  and  C_3
REMARK    3  A    between atoms: C_6  and  C_7
REMARK    4  A    between atoms: C_7  and  C_8
REMARK    5  A    between atoms: C_8  and  N_9
REMARK    6  A    between atoms: C_10  and  C_12
REMARK    7  A    between atoms: C_19  and  O_20
REMARK    8  A    between atoms: O_20  and  C_21
REMARK    9  A    between atoms: C_23  and  O_24
REMARK   10  A    between atoms: O_24  and  C_25
REMARK                            x       y       z     vdW  Elec       q    Type
REMARK                         _______ _______ _______ _____ _____    ______ ____
ROOT
ATOM      1  N   UNL     1       2.350   7.259  19.789  0.00  0.00    +0.000 N 
ATOM      2  C   UNL     1       2.601   7.045  18.449  0.00  0.00    +0.000 C 
ATOM      3  O   UNL     1       2.398   7.888  17.584  0.00  0.00    +0.000 OA
ATOM      4  H   UNL     1       2.374   6.475  20.430  0.00  0.00    +0.000 HD
ENDROOT
BRANCH   2   5
ATOM      5  C   UNL     1       3.117   5.698  18.094  0.00  0.00    +0.000 A 
ATOM      6  C   UNL     1       4.366   5.634  17.425  0.00  0.00    +0.000 A 
ATOM      7 CL   UNL     1       5.337   7.029  17.061  0.00  0.00    +0.000 Cl
ATOM      8  C   UNL     1       4.917   4.413  17.029  0.00  0.00    +0.000 A 
ATOM      9  C   UNL     1       4.259   3.232  17.327  0.00  0.00    +0.000 A 
ATOM     10  C   UNL     1       3.048   3.273  18.015  0.00  0.00    +0.000 A 
ATOM     11 CL   UNL     1       2.312   1.740  18.371  0.00  0.00    +0.000 Cl
ATOM     12  C   UNL     1       2.440   4.497  18.406  0.00  0.00    +0.000 A 
BRANCH  12  13
ATOM     13  O   UNL     1       1.233   4.285  19.011  0.00  0.00    +0.000 OA
ATOM     14  C   UNL     1       1.053   4.164  20.408  0.00  0.00    +0.000 C 
ENDBRANCH  12  13
ENDBRANCH   2   5
BRANCH   1  15
ATOM     15  C   UNL     1       1.778   8.498  20.282  0.00  0.00    +0.000 C 
BRANCH  15  16
ATOM     16  C   UNL     1       0.805   8.229  21.429  0.00  0.00    +0.000 C 
BRANCH  16  20
ATOM     17  C   UNL     1      -1.464  11.821  22.180  0.00  0.00    +0.000 A 
ATOM     18  C   UNL     1      -1.285  10.864  23.192  0.00  0.00    +0.000 A 
ATOM     19  C   UNL     1      -0.578   9.686  22.948  0.00  0.00    +0.000 A 
ATOM     20  C   UNL     1      -0.073   9.426  21.674  0.00  0.00    +0.000 A 
ATOM     21  C   UNL     1      -0.337  10.335  20.643  0.00  0.00    +0.000 A 
ATOM     22  C   UNL     1      -1.036  11.529  20.875  0.00  0.00    +0.000 A 
BRANCH  17  24
ATOM     23  C   UNL     1      -3.481  13.057  22.241  0.00  0.00    +0.000 C 
ATOM     24  O   UNL     1      -2.065  13.022  22.449  0.00  0.00    +0.000 OA
ENDBRANCH  17  24
BRANCH  22  25
ATOM     25  O   UNL     1      -1.157  12.282  19.735  0.00  0.00    +0.000 OA
ATOM     26  C   UNL     1      -2.034  11.854  18.714  0.00  0.00    +0.000 C 
ENDBRANCH  22  25
ENDBRANCH  16  20
ENDBRANCH  15  16
ENDBRANCH   1  15
TORSDOF 7
ENDMDL
MODEL 3
REMARK VINA RESULT:      -6.6      3.303      8.865
REMARK  Name = 
REMARK  10 active torsions:
REMARK  status: ('A' for Active; 'I' for Inactive)
REMARK    1  A    between atoms: C_1  and  O_2
REMARK    2  A    between atoms: O_2  and  C_3
REMARK    3  A    between atoms: C_6  and  C_7
REMARK    4  A    between atoms: C_7  and  C_8
REMARK    5  A    between atoms: C_8  and  N_9
REMARK    6  A    between atoms: C_10  and  C_12
REMARK    7  A    between atoms: C_19  and  O_20
REMARK    8  A    between atoms: O_20  and  C_21
REMARK    9  A    between atoms: C_23  and  O_24
REMARK   10  A    between atoms: O_24  and  C_25
REMARK                            x       y       z     vdW  Elec       q    Type
REMARK                         _______ _______ _______ _____ _____    ______ ____
ROOT
ATOM      1  N   UNL     1       1.172   9.447  18.524  0.00  0.00    +0.000 N 
ATOM      2  C   UNL     1       1.264  10.821  18.622  0.00  0.00    +0.000 C 
ATOM      3  O   UNL     1       2.176  11.471  18.127  0.00  0.00    +0.000 OA
ATOM      4  H   UNL     1       0.497   8.952  19.094  0.00  0.00    +0.000 HD
ENDROOT
BRANCH   2   5
ATOM      5  C   UNL     1       0.189  11.487  19.402  0.00  0.00    +0.000 A 
ATOM      6  C   UNL     1      -1.140  11.346  18.930  0.00  0.00    +0.000 A 
ATOM      7 CL   UNL     1      -1.576  10.395  17.541  0.00  0.00    +0.000 Cl
ATOM      8  C   UNL     1      -2.213  11.958  19.583  0.00  0.00    +0.000 A 
ATOM      9  C   UNL     1      -1.989  12.687  20.739  0.00  0.00    +0.000 A 
ATOM     10  C   UNL     1      -0.693  12.807  21.238  0.00  0.00    +0.000 A 
ATOM     11 CL   UNL     1      -0.515  13.713  22.709  0.00  0.00    +0.000 Cl
ATOM     12  C   UNL     1       0.426  12.225  20.583  0.00  0.00    +0.000 A 
BRANCH  12  13
ATOM     13  O   UNL     1       1.594  12.529  21.225  0.00  0.00    +0.000 OA
ATOM     14  C   UNL     1       2.473  13.564  20.833  0.00  0.00    +0.000 C 
ENDBRANCH  12  13
ENDBRANCH   2   5
BRANCH   1  15
ATOM     15  C   UNL     1       2.183   8.648  17.855  0.00  0.00    +0.000 C 
BRANCH  15  16
ATOM     16  C   UNL     1       2.529   7.408  18.679  0.00  0.00    +0.000 C 
BRANCH  16  20
ATOM     17  C   UNL     1       4.895   4.501  16.544  0.00  0.00    +0.000 A 
ATOM     18  C   UNL     1       5.196   5.870  16.459  0.00  0.00    +0.000 A 
ATOM     19  C   UNL     1       4.417   6.819  17.122  0.00  0.00    +0.000 A 
ATOM     20  C   UNL     1       3.298   6.416  17.850  0.00  0.00    +0.000 A 
ATOM     21  C   UNL     1       2.943   5.063  17.852  0.00  0.00    +0.000 A 
ATOM     22  C   UNL     1       3.722   4.095  17.200  0.00  0.00    +0.000 A 
BRANCH  17  24
ATOM     23  C   UNL     1       6.238   3.904  14.690  0.00  0.00    +0.000 C 
ATOM     24  O   UNL     1       5.721   3.565  15.981  0.00  0.00    +0.000 OA
ENDBRANCH  17  24
BRANCH  22  25
ATOM     25  O   UNL     1       3.208   2.833  17.354  0.00  0.00    +0.000 OA
ATOM     26  C   UNL     1       3.525   2.096  18.516  0.00  0.00    +0.000 C 
ENDBRANCH  22  25
ENDBRANCH  16  20
ENDBRANCH  15  16
ENDBRANCH   1  15
TORSDOF 7
ENDMDL
MODEL 4
REMARK VINA RESULT:      -6.5      3.317      8.882
REMARK  Name = 
REMARK  10 active torsions:
REMARK  status: ('A' for Active; 'I' for Inactive)
REMARK    1  A    between atoms: C_1  and  O_2
REMARK    2  A    between atoms: O_2  and  C_3
REMARK    3  A    between atoms: C_6  and  C_7
REMARK    4  A    between atoms: C_7  and  C_8
REMARK    5  A    between atoms: C_8  and  N_9
REMARK    6  A    between atoms: C_10  and  C_12
REMARK    7  A    between atoms: C_19  and  O_20
REMARK    8  A    between atoms: O_20  and  C_21
REMARK    9  A    between atoms: C_23  and  O_24
REMARK   10  A    between atoms: O_24  and  C_25
REMARK                            x       y       z     vdW  Elec       q    Type
REMARK                         _______ _______ _______ _____ _____    ______ ____
ROOT
ATOM      1  N   UNL     1       1.619   9.173  19.458  0.00  0.00    +0.000 N 
ATOM      2  C   UNL     1       0.447   9.878  19.273  0.00  0.00    +0.000 C 
ATOM      3  O   UNL     1      -0.215   9.823  18.245  0.00  0.00    +0.000 OA
ATOM      4  H   UNL     1       2.209   9.390  20.254  0.00  0.00    +0.000 HD
ENDROOT
BRANCH   2   5
ATOM      5  C   UNL     1       0.032  10.752  20.401  0.00  0.00    +0.000 A 
ATOM      6  C   UNL     1      -0.444  10.116  21.575  0.00  0.00    +0.000 A 
ATOM      7 CL   UNL     1      -0.506   8.392  21.782  0.00  0.00    +0.000 Cl
ATOM      8  C   UNL     1      -0.880  10.857  22.677  0.00  0.00    +0.000 A 
ATOM      9  C   UNL     1      -0.814  12.240  22.647  0.00  0.00    +0.000 A 
ATOM     10  C   UNL     1      -0.316  12.881  21.513  0.00  0.00    +0.000 A 
ATOM     11 CL   UNL     1      -0.242  14.615  21.580  0.00  0.00    +0.000 Cl
ATOM     12  C   UNL     1       0.107  12.163  20.362  0.00  0.00    +0.000 A 
BRANCH  12  13
ATOM     13  O   UNL     1       0.497  13.008  19.361  0.00  0.00    +0.000 OA
ATOM     14  C   UNL     1      -0.323  13.389  18.275  0.00  0.00    +0.000 C 
ENDBRANCH  12  13
ENDBRANCH   2   5
BRANCH   1  15
ATOM     15  C   UNL     1       2.191   8.334  18.422  0.00  0.00    +0.000 C 
BRANCH  15  16
ATOM     16  C   UNL     1       2.420   6.913  18.938  0.00  0.00    +0.000 C 
BRANCH  16  20
ATOM     17  C   UNL     1       5.132   4.659  16.453  0.00  0.00    +0.000 A 
ATOM     18  C   UNL     1       5.128   6.063  16.417  0.00  0.00    +0.000 A 
ATOM     19  C   UNL     1       4.233   6.798  17.195  0.00  0.00    +0.000 A 
ATOM     20  C   UNL     1       3.299   6.140  17.993  0.00  0.00    +0.000 A 
ATOM     21  C   UNL     1       3.239   4.742  17.953  0.00  0.00    +0.000 A 
ATOM     22  C   UNL     1       4.139   3.988  17.185  0.00  0.00    +0.000 A 
BRANCH  17  24
ATOM     23  C   UNL     1       6.232   4.290  14.391  0.00  0.00    +0.000 C 
ATOM     24  O   UNL     1       6.079   3.942  15.771  0.00  0.00    +0.000 OA
ENDBRANCH  17  24
BRANCH  22  25
ATOM     25  O   UNL     1       3.920   2.640  17.314  0.00  0.00    +0.000 OA
ATOM     26  C   UNL     1       3.576   2.115  18.579  0.00  0.00    +0.000 C 
ENDBRANCH  22  25
ENDBRANCH  16  20
ENDBRANCH  15  16
ENDBRANCH   1  15
TORSDOF 7
ENDMDL
MODEL 5
REMARK VINA RESULT:      -6.5      3.094      7.585
REMARK  Name = 
REMARK  10 active torsions:
REMARK  status: ('A' for Active; 'I' for Inactive)
REMARK    1  A    between atoms: C_1  and  O_2
REMARK    2  A    between atoms: O_2  and  C_3
REMARK    3  A    between atoms: C_6  and  C_7
REMARK    4  A    between atoms: C_7  and  C_8
REMARK    5  A    between atoms: C_8  and  N_9
REMARK    6  A    between atoms: C_10  and  C_12
REMARK    7  A    between atoms: C_19  and  O_20
REMARK    8  A    between atoms: O_20  and  C_21
REMARK    9  A    between atoms: C_23  and  O_24
REMARK   10  A    between atoms: O_24  and  C_25
REMARK                            x       y       z     vdW  Elec       q    Type
REMARK                         _______ _______ _______ _____ _____    ______ ____
ROOT
ATOM      1  N   UNL     1       1.911   9.519  18.455  0.00  0.00    +0.000 N 
ATOM      2  C   UNL     1       0.698  10.177  18.508  0.00  0.00    +0.000 C 
ATOM      3  O   UNL     1      -0.222   9.955  17.732  0.00  0.00    +0.000 OA
ATOM      4  H   UNL     1       2.687   9.864  19.007  0.00  0.00    +0.000 HD
ENDROOT
BRANCH   2   5
ATOM      5  C   UNL     1       0.571  11.216  19.563  0.00  0.00    +0.000 A 
ATOM      6  C   UNL     1       1.229  12.452  19.342  0.00  0.00    +0.000 A 
ATOM      7 CL   UNL     1       2.112  12.830  17.893  0.00  0.00    +0.000 Cl
ATOM      8  C   UNL     1       1.186  13.478  20.290  0.00  0.00    +0.000 A 
ATOM      9  C   UNL     1       0.456  13.310  21.454  0.00  0.00    +0.000 A 
ATOM     10  C   UNL     1      -0.227  12.114  21.672  0.00  0.00    +0.000 A 
ATOM     11 CL   UNL     1      -1.141  12.008  23.146  0.00  0.00    +0.000 Cl
ATOM     12  C   UNL     1      -0.181  11.037  20.747  0.00  0.00    +0.000 A 
BRANCH  12  13
ATOM     13  O   UNL     1      -0.876   9.953  21.206  0.00  0.00    +0.000 OA
ATOM     14  C   UNL     1      -0.277   8.783  21.725  0.00  0.00    +0.000 C 
ENDBRANCH  12  13
ENDBRANCH   2   5
BRANCH   1  15
ATOM     15  C   UNL     1       2.212   8.530  17.437  0.00  0.00    +0.000 C 
BRANCH  15  16
ATOM     16  C   UNL     1       3.324   7.591  17.903  0.00  0.00    +0.000 C 
BRANCH  16  20
ATOM     17  C   UNL     1       1.420   4.374  20.056  0.00  0.00    +0.000 A 
ATOM     18  C   UNL     1       1.819   5.544  20.723  0.00  0.00    +0.000 A 
ATOM     19  C   UNL     1       2.462   6.576  20.040  0.00  0.00    +0.000 A 
ATOM     20  C   UNL     1       2.755   6.438  18.683  0.00  0.00    +0.000 A 
ATOM     21  C   UNL     1       2.446   5.233  18.043  0.00  0.00    +0.000 A 
ATOM     22  C   UNL     1       1.788   4.190  18.714  0.00  0.00    +0.000 A 
BRANCH  17  24
ATOM     23  C   UNL     1       1.427   2.636  21.661  0.00  0.00    +0.000 C 
ATOM     24  O   UNL     1       0.696   3.409  20.704  0.00  0.00    +0.000 OA
ENDBRANCH  17  24
BRANCH  22  25
ATOM     25  O   UNL     1       1.559   3.116  17.892  0.00  0.00    +0.000 OA
ATOM     26  C   UNL     1       2.647   2.311  17.487  0.00  0.00    +0.000 C 
ENDBRANCH  22  25
ENDBRANCH  16  20
ENDBRANCH  15  16
ENDBRANCH   1  15
TORSDOF 7
ENDMDL
MODEL 6
REMARK VINA RESULT:      -6.5      1.998      3.266
REMARK  Name = 
REMARK  10 active torsions:
REMARK  status: ('A' for Active; 'I' for Inactive)
REMARK    1  A    between atoms: C_1  and  O_2
REMARK    2  A    between atoms: O_2  and  C_3
REMARK    3  A    between atoms: C_6  and  C_7
REMARK    4  A    between atoms: C_7  and  C_8
REMARK    5  A    between atoms: C_8  and  N_9
REMARK    6  A    between atoms: C_10  and  C_12
REMARK    7  A    between atoms: C_19  and  O_20
REMARK    8  A    between atoms: O_20  and  C_21
REMARK    9  A    between atoms: C_23  and  O_24
REMARK   10  A    between atoms: O_24  and  C_25
REMARK                            x       y       z     vdW  Elec       q    Type
REMARK                         _______ _______ _______ _____ _____    ______ ____
ROOT
ATOM      1  N   UNL     1       2.416   7.091  19.929  0.00  0.00    +0.000 N 
ATOM      2  C   UNL     1       2.507   6.815  18.580  0.00  0.00    +0.000 C 
ATOM      3  O   UNL     1       2.158   7.600  17.708  0.00  0.00    +0.000 OA
ATOM      4  H   UNL     1       2.556   6.345  20.600  0.00  0.00    +0.000 HD
ENDROOT
BRANCH   2   5
ATOM      5  C   UNL     1       3.038   5.472  18.229  0.00  0.00    +0.000 A 
ATOM      6  C   UNL     1       2.435   4.351  18.852  0.00  0.00    +0.000 A 
ATOM      7 CL   UNL     1       1.085   4.462  19.941  0.00  0.00    +0.000 Cl
ATOM      8  C   UNL     1       2.884   3.051  18.602  0.00  0.00    +0.000 A 
ATOM      9  C   UNL     1       3.912   2.840  17.698  0.00  0.00    +0.000 A 
ATOM     10  C   UNL     1       4.494   3.929  17.050  0.00  0.00    +0.000 A 
ATOM     11 CL   UNL     1       5.754   3.563  15.912  0.00  0.00    +0.000 Cl
ATOM     12  C   UNL     1       4.085   5.266  17.302  0.00  0.00    +0.000 A 
BRANCH  12  13
ATOM     13  O   UNL     1       4.839   6.161  16.595  0.00  0.00    +0.000 OA
ATOM     14  C   UNL     1       5.909   6.907  17.140  0.00  0.00    +0.000 C 
ENDBRANCH  12  13
ENDBRANCH   2   5
BRANCH   1  15
ATOM     15  C   UNL     1       1.852   8.331  20.430  0.00  0.00    +0.000 C 
BRANCH  15  16
ATOM     16  C   UNL     1       0.789   8.055  21.492  0.00  0.00    +0.000 C 
BRANCH  16  20
ATOM     17  C   UNL     1      -1.409  11.704  22.179  0.00  0.00    +0.000 A 
ATOM     18  C   UNL     1      -1.211  10.781  23.219  0.00  0.00    +0.000 A 
ATOM     19  C   UNL     1      -0.528   9.585  22.997  0.00  0.00    +0.000 A 
ATOM     20  C   UNL     1      -0.065   9.273  21.719  0.00  0.00    +0.000 A 
ATOM     21  C   UNL     1      -0.349  10.147  20.665  0.00  0.00    +0.000 A 
ATOM     22  C   UNL     1      -1.025  11.359  20.873  0.00  0.00    +0.000 A 
BRANCH  17  24
ATOM     23  C   UNL     1      -3.329  12.875  22.914  0.00  0.00    +0.000 C 
ATOM     24  O   UNL     1      -1.985  12.922  22.422  0.00  0.00    +0.000 OA
ENDBRANCH  17  24
BRANCH  22  25
ATOM     25  O   UNL     1      -1.171  12.072  19.711  0.00  0.00    +0.000 OA
ATOM     26  C   UNL     1      -2.369  11.951  18.972  0.00  0.00    +0.000 C 
ENDBRANCH  22  25
ENDBRANCH  16  20
ENDBRANCH  15  16
ENDBRANCH   1  15
TORSDOF 7
ENDMDL
MODEL 7
REMARK VINA RESULT:      -6.5      0.746      1.851
REMARK  Name = 
REMARK  10 active torsions:
REMARK  status: ('A' for Active; 'I' for Inactive)
REMARK    1  A    between atoms: C_1  and  O_2
REMARK    2  A    between atoms: O_2  and  C_3
REMARK    3  A    between atoms: C_6  and  C_7
REMARK    4  A    between atoms: C_7  and  C_8
REMARK    5  A    between atoms: C_8  and  N_9
REMARK    6  A    between atoms: C_10  and  C_12
REMARK    7  A    between atoms: C_19  and  O_20
REMARK    8  A    between atoms: O_20  and  C_21
REMARK    9  A    between atoms: C_23  and  O_24
REMARK   10  A    between atoms: O_24  and  C_25
REMARK                            x       y       z     vdW  Elec       q    Type
REMARK                         _______ _______ _______ _____ _____    ______ ____
ROOT
ATOM      1  N   UNL     1       2.300   8.125  17.734  0.00  0.00    +0.000 N 
ATOM      2  C   UNL     1       2.636   7.146  18.646  0.00  0.00    +0.000 C 
ATOM      3  O   UNL     1       2.558   7.300  19.859  0.00  0.00    +0.000 OA
ATOM      4  H   UNL     1       2.547   8.003  16.759  0.00  0.00    +0.000 HD
ENDROOT
BRANCH   2   5
ATOM      5  C   UNL     1       3.138   5.871  18.072  0.00  0.00    +0.000 A 
ATOM      6  C   UNL     1       4.374   5.911  17.379  0.00  0.00    +0.000 A 
ATOM      7 CL   UNL     1       5.348   7.343  17.225  0.00  0.00    +0.000 Cl
ATOM      8  C   UNL     1       4.912   4.767  16.784  0.00  0.00    +0.000 A 
ATOM      9  C   UNL     1       4.252   3.555  16.901  0.00  0.00    +0.000 A 
ATOM     10  C   UNL     1       3.053   3.490  17.609  0.00  0.00    +0.000 A 
ATOM     11 CL   UNL     1       2.315   1.921  17.729  0.00  0.00    +0.000 Cl
ATOM     12  C   UNL     1       2.460   4.637  18.200  0.00  0.00    +0.000 A 
BRANCH  12  13
ATOM     13  O   UNL     1       1.262   4.335  18.786  0.00  0.00    +0.000 OA
ATOM     14  C   UNL     1       1.085   4.119  20.172  0.00  0.00    +0.000 C 
ENDBRANCH  12  13
ENDBRANCH   2   5
BRANCH   1  15
ATOM     15  C   UNL     1       1.862   9.447  18.143  0.00  0.00    +0.000 C 
BRANCH  15  16
ATOM     16  C   UNL     1       0.344   9.580  18.017  0.00  0.00    +0.000 C 
BRANCH  16  20
ATOM     17  C   UNL     1      -1.134  11.587  21.539  0.00  0.00    +0.000 A 
ATOM     18  C   UNL     1      -0.213  10.532  21.650  0.00  0.00    +0.000 A 
ATOM     19  C   UNL     1       0.247   9.859  20.518  0.00  0.00    +0.000 A 
ATOM     20  C   UNL     1      -0.239  10.202  19.257  0.00  0.00    +0.000 A 
ATOM     21  C   UNL     1      -1.229  11.186  19.157  0.00  0.00    +0.000 A 
ATOM     22  C   UNL     1      -1.693  11.881  20.285  0.00  0.00    +0.000 A 
BRANCH  17  24
ATOM     23  C   UNL     1      -0.786  13.540  22.828  0.00  0.00    +0.000 C 
ATOM     24  O   UNL     1      -1.501  12.316  22.638  0.00  0.00    +0.000 OA
ENDBRANCH  17  24
BRANCH  22  25
ATOM     25  O   UNL     1      -2.639  12.818  19.957  0.00  0.00    +0.000 OA
ATOM     26  C   UNL     1      -3.973  12.406  19.739  0.00  0.00    +0.000 C 
ENDBRANCH  22  25
ENDBRANCH  16  20
ENDBRANCH  15  16
ENDBRANCH   1  15
TORSDOF 7
ENDMDL
MODEL 8
REMARK VINA RESULT:      -6.5      2.056      2.302
REMARK  Name = 
REMARK  10 active torsions:
REMARK  status: ('A' for Active; 'I' for Inactive)
REMARK    1  A    between atoms: C_1  and  O_2
REMARK    2  A    between atoms: O_2  and  C_3
REMARK    3  A    between atoms: C_6  and  C_7
REMARK    4  A    between atoms: C_7  and  C_8
REMARK    5  A    between atoms: C_8  and  N_9
REMARK    6  A    between atoms: C_10  and  C_12
REMARK    7  A    between atoms: C_19  and  O_20
REMARK    8  A    between atoms: O_20  and  C_21
REMARK    9  A    between atoms: C_23  and  O_24
REMARK   10  A    between atoms: O_24  and  C_25
REMARK                            x       y       z     vdW  Elec       q    Type
REMARK                         _______ _______ _______ _____ _____    ______ ____
ROOT
ATOM      1  N   UNL     1       2.642   7.122  18.129  0.00  0.00    +0.000 N 
ATOM      2  C   UNL     1       3.755   6.313  18.017  0.00  0.00    +0.000 C 
ATOM      3  O   UNL     1       4.828   6.703  17.574  0.00  0.00    +0.000 OA
ATOM      4  H   UNL     1       1.743   6.704  18.338  0.00  0.00    +0.000 HD
ENDROOT
BRANCH   2   5
ATOM      5  C   UNL     1       3.575   4.901  18.444  0.00  0.00    +0.000 A 
ATOM      6  C   UNL     1       3.943   3.890  17.521  0.00  0.00    +0.000 A 
ATOM      7 CL   UNL     1       4.642   4.214  15.963  0.00  0.00    +0.000 Cl
ATOM      8  C   UNL     1       3.785   2.536  17.826  0.00  0.00    +0.000 A 
ATOM      9  C   UNL     1       3.298   2.161  19.067  0.00  0.00    +0.000 A 
ATOM     10  C   UNL     1       2.963   3.141  20.000  0.00  0.00    +0.000 A 
ATOM     11 CL   UNL     1       2.390   2.575  21.539  0.00  0.00    +0.000 Cl
ATOM     12  C   UNL     1       3.080   4.529  19.715  0.00  0.00    +0.000 A 
BRANCH  12  13
ATOM     13  O   UNL     1       2.638   5.292  20.759  0.00  0.00    +0.000 OA
ATOM     14  C   UNL     1       1.343   5.853  20.844  0.00  0.00    +0.000 C 
ENDBRANCH  12  13
ENDBRANCH   2   5
BRANCH   1  15
ATOM     15  C   UNL     1       2.641   8.504  17.687  0.00  0.00    +0.000 C 
BRANCH  15  16
ATOM     16  C   UNL     1       1.261   9.134  17.872  0.00  0.00    +0.000 C 
BRANCH  16  20
ATOM     17  C   UNL     1       1.117  12.341  20.754  0.00  0.00    +0.000 A 
ATOM     18  C   UNL     1       1.685  12.544  19.485  0.00  0.00    +0.000 A 
ATOM     19  C   UNL     1       1.762  11.503  18.559  0.00  0.00    +0.000 A 
ATOM     20  C   UNL     1       1.309  10.230  18.901  0.00  0.00    +0.000 A 
ATOM     21  C   UNL     1       0.835  10.006  20.198  0.00  0.00    +0.000 A 
ATOM     22  C   UNL     1       0.740  11.045  21.137  0.00  0.00    +0.000 A 
BRANCH  17  24
ATOM     23  C   UNL     1       1.669  14.578  21.292  0.00  0.00    +0.000 C 
ATOM     24  O   UNL     1       0.946  13.387  21.620  0.00  0.00    +0.000 OA
ENDBRANCH  17  24
BRANCH  22  25
ATOM     25  O   UNL     1       0.223  10.611  22.332  0.00  0.00    +0.000 OA
ATOM     26  C   UNL     1       0.101   9.223  22.568  0.00  0.00    +0.000 C 
ENDBRANCH  22  25
ENDBRANCH  16  20
ENDBRANCH  15  16
ENDBRANCH   1  15
TORSDOF 7
ENDMDL
MODEL 9
REMARK VINA RESULT:      -6.5      3.362      8.464
REMARK  Name = 
REMARK  10 active torsions:
REMARK  status: ('A' for Active; 'I' for Inactive)
REMARK    1  A    between atoms: C_1  and  O_2
REMARK    2  A    between atoms: O_2  and  C_3
REMARK    3  A    between atoms: C_6  and  C_7
REMARK    4  A    between atoms: C_7  and  C_8
REMARK    5  A    between atoms: C_8  and  N_9
REMARK    6  A    between atoms: C_10  and  C_12
REMARK    7  A    between atoms: C_19  and  O_20
REMARK    8  A    between atoms: O_20  and  C_21
REMARK    9  A    between atoms: C_23  and  O_24
REMARK   10  A    between atoms: O_24  and  C_25
REMARK                            x       y       z     vdW  Elec       q    Type
REMARK                         _______ _______ _______ _____ _____    ______ ____
ROOT
ATOM      1  N   UNL     1       1.655   9.357  19.069  0.00  0.00    +0.000 N 
ATOM      2  C   UNL     1       0.403   9.936  19.057  0.00  0.00    +0.000 C 
ATOM      3  O   UNL     1      -0.356   9.878  18.098  0.00  0.00    +0.000 OA
ATOM      4  H   UNL     1       2.300   9.584  19.817  0.00  0.00    +0.000 HD
ENDROOT
BRANCH   2   5
ATOM      5  C   UNL     1       0.021  10.678  20.287  0.00  0.00    +0.000 A 
ATOM      6  C   UNL     1      -0.393   9.914  21.406  0.00  0.00    +0.000 A 
ATOM      7 CL   UNL     1      -0.416   8.176  21.433  0.00  0.00    +0.000 Cl
ATOM      8  C   UNL     1      -0.795  10.526  22.597  0.00  0.00    +0.000 A 
ATOM      9  C   UNL     1      -0.753  11.905  22.709  0.00  0.00    +0.000 A 
ATOM     10  C   UNL     1      -0.315  12.672  21.630  0.00  0.00    +0.000 A 
ATOM     11 CL   UNL     1      -0.268  14.391  21.876  0.00  0.00    +0.000 Cl
ATOM     12  C   UNL     1       0.070  12.087  20.394  0.00  0.00    +0.000 A 
BRANCH  12  13
ATOM     13  O   UNL     1       0.403  13.040  19.472  0.00  0.00    +0.000 OA
ATOM     14  C   UNL     1      -0.419  13.420  18.387  0.00  0.00    +0.000 C 
ENDBRANCH  12  13
ENDBRANCH   2   5
BRANCH   1  15
ATOM     15  C   UNL     1       2.198   8.660  17.918  0.00  0.00    +0.000 C 
BRANCH  15  16
ATOM     16  C   UNL     1       1.981   7.152  18.043  0.00  0.00    +0.000 C 
BRANCH  16  20
ATOM     17  C   UNL     1       5.813   5.196  18.356  0.00  0.00    +0.000 A 
ATOM     18  C   UNL     1       5.666   6.363  17.589  0.00  0.00    +0.000 A 
ATOM     19  C   UNL     1       4.424   6.984  17.458  0.00  0.00    +0.000 A 
ATOM     20  C   UNL     1       3.297   6.425  18.060  0.00  0.00    +0.000 A 
ATOM     21  C   UNL     1       3.427   5.210  18.742  0.00  0.00    +0.000 A 
ATOM     22  C   UNL     1       4.672   4.579  18.892  0.00  0.00    +0.000 A 
BRANCH  17  24
ATOM     23  C   UNL     1       8.045   5.557  19.050  0.00  0.00    +0.000 C 
ATOM     24  O   UNL     1       7.050   4.648  18.570  0.00  0.00    +0.000 OA
ENDBRANCH  17  24
BRANCH  22  25
ATOM     25  O   UNL     1       4.574   3.418  19.616  0.00  0.00    +0.000 OA
ATOM     26  C   UNL     1       3.549   2.496  19.308  0.00  0.00    +0.000 C 
ENDBRANCH  22  25
ENDBRANCH  16  20
ENDBRANCH  15  16
ENDBRANCH   1  15
TORSDOF 7
ENDMDL
