MODEL 1
REMARK VINA RESULT:      -7.5      0.000      0.000
REMARK  Name = 
REMARK  9 active torsions:
REMARK  status: ('A' for Active; 'I' for Inactive)
REMARK    1  A    between atoms: C_1  and  N_2
REMARK    2  A    between atoms: N_5  and  C_6
REMARK    3  A    between atoms: C_6  and  C_7
REMARK    4  A    between atoms: C_7  and  C_8
REMARK    5  A    between atoms: C_8  and  S_9
REMARK    6  A    between atoms: S_9  and  C_10
REMARK    7  A    between atoms: C_13  and  C_14
REMARK    8  A    between atoms: C_16  and  N_17
REMARK    9  A    between atoms: C_21  and  N_22
REMARK                            x       y       z     vdW  Elec       q    Type
REMARK                         _______ _______ _______ _____ _____    ______ ____
ROOT
ATOM      1  C   UNL     1       1.232   9.594  19.339  0.00  0.00    +0.000 A 
ATOM      2  N   UNL     1       1.339  10.019  18.097  0.00  0.00    +0.000 NA
ATOM      3  N   UNL     1       2.007   9.039  17.400  0.00  0.00    +0.000 NA
ATOM      4  C   UNL     1       2.259   8.077  18.258  0.00  0.00    +0.000 A 
ATOM      5  O   UNL     1       1.809   8.361  19.519  0.00  0.00    +0.000 OA
ENDROOT
BRANCH   4   6
ATOM      6  C   UNL     1       2.854   6.768  18.019  0.00  0.00    +0.000 A 
ATOM      7  C   UNL     1       4.138   6.711  17.451  0.00  0.00    +0.000 A 
ATOM      8  C   UNL     1       4.712   5.481  17.103  0.00  0.00    +0.000 A 
ATOM      9  C   UNL     1       4.029   4.283  17.331  0.00  0.00    +0.000 A 
ATOM     10  C   UNL     1       2.758   4.337  17.923  0.00  0.00    +0.000 A 
ATOM     11  C   UNL     1       2.174   5.567  18.274  0.00  0.00    +0.000 A 
BRANCH   8  12
ATOM     12  N   UNL     1       6.033   5.459  16.456  0.00  0.00    +0.000 N 
ATOM     13  O   UNL     1       6.889   4.699  16.925  0.00  0.00    +0.000 OA
ATOM     14  O   UNL     1       6.207   6.209  15.490  0.00  0.00    +0.000 OA
ENDBRANCH   8  12
BRANCH  10  15
ATOM     15  N   UNL     1       2.013   3.088  18.143  0.00  0.00    +0.000 N 
ATOM     16  O   UNL     1       2.163   2.177  17.320  0.00  0.00    +0.000 OA
ATOM     17  O   UNL     1       1.276   3.030  19.137  0.00  0.00    +0.000 OA
ENDBRANCH  10  15
ENDBRANCH   4   6
BRANCH   1  18
ATOM     18  S   UNL     1       0.449  10.461  20.621  0.00  0.00    +0.000 S 
BRANCH  18  19
ATOM     19  C   UNL     1       0.442  12.150  19.928  0.00  0.00    +0.000 C 
BRANCH  19  20
ATOM     20  C   UNL     1      -1.004  12.609  19.750  0.00  0.00    +0.000 C 
BRANCH  20  21
ATOM     21  C   UNL     1      -1.619  12.156  18.416  0.00  0.00    +0.000 C 
BRANCH  21  26
ATOM     22  C   UNL     1      -3.352  10.119  14.376  0.00  0.00    +0.000 C 
ATOM     23  N   UNL     1      -3.446  10.145  15.830  0.00  0.00    +0.000 NA
ATOM     24  C   UNL     1      -3.878  11.467  16.315  0.00  0.00    +0.000 C 
ATOM     25  C   UNL     1      -3.940  11.520  17.860  0.00  0.00    +0.000 C 
ATOM     26  N   UNL     1      -2.683  11.149  18.547  0.00  0.00    +0.000 NA
ATOM     27  C   UNL     1      -2.246   9.837  18.007  0.00  0.00    +0.000 C 
ATOM     28  C   UNL     1      -2.170   9.763  16.461  0.00  0.00    +0.000 C 
ENDBRANCH  21  26
ENDBRANCH  20  21
ENDBRANCH  19  20
ENDBRANCH  18  19
ENDBRANCH   1  18
TORSDOF 8
ENDMDL
MODEL 2
REMARK VINA RESULT:      -7.4      3.410      8.653
REMARK  Name = 
REMARK  9 active torsions:
REMARK  status: ('A' for Active; 'I' for Inactive)
REMARK    1  A    between atoms: C_1  and  N_2
REMARK    2  A    between atoms: N_5  and  C_6
REMARK    3  A    between atoms: C_6  and  C_7
REMARK    4  A    between atoms: C_7  and  C_8
REMARK    5  A    between atoms: C_8  and  S_9
REMARK    6  A    between atoms: S_9  and  C_10
REMARK    7  A    between atoms: C_13  and  C_14
REMARK    8  A    between atoms: C_16  and  N_17
REMARK    9  A    between atoms: C_21  and  N_22
REMARK                            x       y       z     vdW  Elec       q    Type
REMARK                         _______ _______ _______ _____ _____    ______ ____
ROOT
ATOM      1  C   UNL     1       3.396   6.889  18.223  0.00  0.00    +0.000 A 
ATOM      2  N   UNL     1       3.087   6.124  19.249  0.00  0.00    +0.000 NA
ATOM      3  N   UNL     1       2.215   6.845  20.032  0.00  0.00    +0.000 NA
ATOM      4  C   UNL     1       2.042   8.001  19.430  0.00  0.00    +0.000 A 
ATOM      5  O   UNL     1       2.772   8.112  18.278  0.00  0.00    +0.000 OA
ENDROOT
BRANCH   4   6
ATOM      6  C   UNL     1       1.142   9.091  19.781  0.00  0.00    +0.000 A 
ATOM      7  C   UNL     1       0.879   9.330  21.142  0.00  0.00    +0.000 A 
ATOM      8  C   UNL     1      -0.059  10.295  21.530  0.00  0.00    +0.000 A 
ATOM      9  C   UNL     1      -0.741  11.054  20.574  0.00  0.00    +0.000 A 
ATOM     10  C   UNL     1      -0.461  10.835  19.217  0.00  0.00    +0.000 A 
ATOM     11  C   UNL     1       0.478   9.868  18.819  0.00  0.00    +0.000 A 
BRANCH   8  12
ATOM     12  N   UNL     1      -0.354  10.480  22.959  0.00  0.00    +0.000 N 
ATOM     13  O   UNL     1      -1.139  11.384  23.271  0.00  0.00    +0.000 OA
ATOM     14  O   UNL     1       0.210   9.727  23.759  0.00  0.00    +0.000 OA
ENDBRANCH   8  12
BRANCH  10  15
ATOM     15  N   UNL     1      -1.191  11.604  18.198  0.00  0.00    +0.000 N 
ATOM     16  O   UNL     1      -1.867  10.973  17.377  0.00  0.00    +0.000 OA
ATOM     17  O   UNL     1      -1.077  12.838  18.222  0.00  0.00    +0.000 OA
ENDBRANCH  10  15
ENDBRANCH   4   6
BRANCH   1  18
ATOM     18  S   UNL     1       4.456   6.433  16.928  0.00  0.00    +0.000 S 
BRANCH  18  19
ATOM     19  C   UNL     1       5.013   4.796  17.512  0.00  0.00    +0.000 C 
BRANCH  19  20
ATOM     20  C   UNL     1       4.306   3.711  16.701  0.00  0.00    +0.000 C 
BRANCH  20  21
ATOM     21  C   UNL     1       2.842   3.504  17.121  0.00  0.00    +0.000 C 
BRANCH  21  26
ATOM     22  C   UNL     1       2.161   3.361  21.916  0.00  0.00    +0.000 C 
ATOM     23  N   UNL     1       2.198   2.566  20.695  0.00  0.00    +0.000 NA
ATOM     24  C   UNL     1       3.532   2.604  20.071  0.00  0.00    +0.000 C 
ATOM     25  C   UNL     1       3.572   1.799  18.752  0.00  0.00    +0.000 C 
ATOM     26  N   UNL     1       2.565   2.202  17.745  0.00  0.00    +0.000 NA
ATOM     27  C   UNL     1       1.238   2.199  18.411  0.00  0.00    +0.000 C 
ATOM     28  C   UNL     1       1.173   3.006  19.733  0.00  0.00    +0.000 C 
ENDBRANCH  21  26
ENDBRANCH  20  21
ENDBRANCH  19  20
ENDBRANCH  18  19
ENDBRANCH   1  18
TORSDOF 8
ENDMDL
MODEL 3
REMARK VINA RESULT:      -7.1      2.633      3.867
REMARK  Name = 
REMARK  9 active torsions:
REMARK  status: ('A' for Active; 'I' for Inactive)
REMARK    1  A    between atoms: C_1  and  N_2
REMARK    2  A    between atoms: N_5  and  C_6
REMARK    3  A    between atoms: C_6  and  C_7
REMARK    4  A    between atoms: C_7  and  C_8
REMARK    5  A    between atoms: C_8  and  S_9
REMARK    6  A    between atoms: S_9  and  C_10
REMARK    7  A    between atoms: C_13  and  C_14
REMARK    8  A    between atoms: C_16  and  N_17
REMARK    9  A    between atoms: C_21  and  N_22
REMARK                            x       y       z     vdW  Elec       q    Type
REMARK                         _______ _______ _______ _____ _____    ______ ____
ROOT
ATOM      1  C   UNL     1       1.486   8.909  19.248  0.00  0.00    +0.000 A 
ATOM      2  N   UNL     1       1.689   9.454  18.067  0.00  0.00    +0.000 NA
ATOM      3  N   UNL     1       2.471   8.574  17.355  0.00  0.00    +0.000 NA
ATOM      4  C   UNL     1       2.689   7.546  18.144  0.00  0.00    +0.000 A 
ATOM      5  O   UNL     1       2.107   7.690  19.373  0.00  0.00    +0.000 OA
ENDROOT
BRANCH   4   6
ATOM      6  C   UNL     1       3.371   6.293  17.849  0.00  0.00    +0.000 A 
ATOM      7  C   UNL     1       4.646   6.348  17.259  0.00  0.00    +0.000 A 
ATOM      8  C   UNL     1       5.299   5.175  16.858  0.00  0.00    +0.000 A 
ATOM      9  C   UNL     1       4.707   3.924  17.053  0.00  0.00    +0.000 A 
ATOM     10  C   UNL     1       3.446   3.866  17.666  0.00  0.00    +0.000 A 
ATOM     11  C   UNL     1       2.783   5.038  18.070  0.00  0.00    +0.000 A 
BRANCH   8  12
ATOM     12  N   UNL     1       6.607   5.271  16.191  0.00  0.00    +0.000 N 
ATOM     13  O   UNL     1       6.657   5.872  15.110  0.00  0.00    +0.000 OA
ATOM     14  O   UNL     1       7.571   4.737  16.747  0.00  0.00    +0.000 OA
ENDBRANCH   8  12
BRANCH  10  15
ATOM     15  N   UNL     1       2.796   2.560  17.852  0.00  0.00    +0.000 N 
ATOM     16  O   UNL     1       3.524   1.570  17.995  0.00  0.00    +0.000 OA
ATOM     17  O   UNL     1       1.557   2.533  17.848  0.00  0.00    +0.000 OA
ENDBRANCH  10  15
ENDBRANCH   4   6
BRANCH   1  18
ATOM     18  S   UNL     1       0.540   9.617  20.519  0.00  0.00    +0.000 S 
BRANCH  18  19
ATOM     19  C   UNL     1       1.068  11.360  20.398  0.00  0.00    +0.000 C 
BRANCH  19  20
ATOM     20  C   UNL     1      -0.109  12.205  19.916  0.00  0.00    +0.000 C 
BRANCH  20  21
ATOM     21  C   UNL     1      -1.282  12.226  20.910  0.00  0.00    +0.000 C 
BRANCH  21  26
ATOM     22  C   UNL     1      -4.417  14.311  23.960  0.00  0.00    +0.000 C 
ATOM     23  N   UNL     1      -3.102  13.692  23.843  0.00  0.00    +0.000 NA
ATOM     24  C   UNL     1      -2.228  14.458  22.938  0.00  0.00    +0.000 C 
ATOM     25  C   UNL     1      -0.845  13.788  22.773  0.00  0.00    +0.000 C 
ATOM     26  N   UNL     1      -0.884  12.380  22.318  0.00  0.00    +0.000 NA
ATOM     27  C   UNL     1      -1.806  11.642  23.218  0.00  0.00    +0.000 C 
ATOM     28  C   UNL     1      -3.202  12.293  23.392  0.00  0.00    +0.000 C 
ENDBRANCH  21  26
ENDBRANCH  20  21
ENDBRANCH  19  20
ENDBRANCH  18  19
ENDBRANCH   1  18
TORSDOF 8
ENDMDL
MODEL 4
REMARK VINA RESULT:      -7.1      2.735      5.170
REMARK  Name = 
REMARK  9 active torsions:
REMARK  status: ('A' for Active; 'I' for Inactive)
REMARK    1  A    between atoms: C_1  and  N_2
REMARK    2  A    between atoms: N_5  and  C_6
REMARK    3  A    between atoms: C_6  and  C_7
REMARK    4  A    between atoms: C_7  and  C_8
REMARK    5  A    between atoms: C_8  and  S_9
REMARK    6  A    between atoms: S_9  and  C_10
REMARK    7  A    between atoms: C_13  and  C_14
REMARK    8  A    between atoms: C_16  and  N_17
REMARK    9  A    between atoms: C_21  and  N_22
REMARK                            x       y       z     vdW  Elec       q    Type
REMARK                         _______ _______ _______ _____ _____    ______ ____
ROOT
ATOM      1  C   UNL     1       1.446   9.106  19.139  0.00  0.00    +0.000 A 
ATOM      2  N   UNL     1       1.664   9.643  17.956  0.00  0.00    +0.000 NA
ATOM      3  N   UNL     1       2.487   8.777  17.274  0.00  0.00    +0.000 NA
ATOM      4  C   UNL     1       2.714   7.765  18.080  0.00  0.00    +0.000 A 
ATOM      5  O   UNL     1       2.097   7.906  19.294  0.00  0.00    +0.000 OA
ENDROOT
BRANCH   4   6
ATOM      6  C   UNL     1       3.437   6.528  17.817  0.00  0.00    +0.000 A 
ATOM      7  C   UNL     1       2.729   5.314  17.871  0.00  0.00    +0.000 A 
ATOM      8  C   UNL     1       3.397   4.091  17.732  0.00  0.00    +0.000 A 
ATOM      9  C   UNL     1       4.777   4.049  17.516  0.00  0.00    +0.000 A 
ATOM     10  C   UNL     1       5.481   5.261  17.435  0.00  0.00    +0.000 A 
ATOM     11  C   UNL     1       4.820   6.493  17.576  0.00  0.00    +0.000 A 
BRANCH   8  12
ATOM     12  N   UNL     1       2.636   2.837  17.852  0.00  0.00    +0.000 N 
ATOM     13  O   UNL     1       1.402   2.916  17.885  0.00  0.00    +0.000 OA
ATOM     14  O   UNL     1       3.279   1.785  17.922  0.00  0.00    +0.000 OA
ENDBRANCH   8  12
BRANCH  10  15
ATOM     15  N   UNL     1       6.938   5.235  17.238  0.00  0.00    +0.000 N 
ATOM     16  O   UNL     1       7.601   4.470  17.949  0.00  0.00    +0.000 OA
ATOM     17  O   UNL     1       7.412   5.987  16.375  0.00  0.00    +0.000 OA
ENDBRANCH  10  15
ENDBRANCH   4   6
BRANCH   1  18
ATOM     18  S   UNL     1       0.450   9.802  20.377  0.00  0.00    +0.000 S 
BRANCH  18  19
ATOM     19  C   UNL     1       0.278  11.507  19.749  0.00  0.00    +0.000 C 
BRANCH  19  20
ATOM     20  C   UNL     1       1.422  12.358  20.298  0.00  0.00    +0.000 C 
BRANCH  20  21
ATOM     21  C   UNL     1       2.189  13.113  19.201  0.00  0.00    +0.000 C 
BRANCH  21  26
ATOM     22  C   UNL     1       2.269  17.417  16.976  0.00  0.00    +0.000 C 
ATOM     23  N   UNL     1       2.835  16.629  18.064  0.00  0.00    +0.000 NA
ATOM     24  C   UNL     1       3.546  15.444  17.552  0.00  0.00    +0.000 C 
ATOM     25  C   UNL     1       4.115  14.576  18.699  0.00  0.00    +0.000 C 
ATOM     26  N   UNL     1       3.118  14.137  19.702  0.00  0.00    +0.000 NA
ATOM     27  C   UNL     1       2.386  15.342  20.166  0.00  0.00    +0.000 C 
ATOM     28  C   UNL     1       1.801  16.224  19.032  0.00  0.00    +0.000 C 
ENDBRANCH  21  26
ENDBRANCH  20  21
ENDBRANCH  19  20
ENDBRANCH  18  19
ENDBRANCH   1  18
TORSDOF 8
ENDMDL
MODEL 5
REMARK VINA RESULT:      -7.1      2.736      3.659
REMARK  Name = 
REMARK  9 active torsions:
REMARK  status: ('A' for Active; 'I' for Inactive)
REMARK    1  A    between atoms: C_1  and  N_2
REMARK    2  A    between atoms: N_5  and  C_6
REMARK    3  A    between atoms: C_6  and  C_7
REMARK    4  A    between atoms: C_7  and  C_8
REMARK    5  A    between atoms: C_8  and  S_9
REMARK    6  A    between atoms: S_9  and  C_10
REMARK    7  A    between atoms: C_13  and  C_14
REMARK    8  A    between atoms: C_16  and  N_17
REMARK    9  A    between atoms: C_21  and  N_22
REMARK                            x       y       z     vdW  Elec       q    Type
REMARK                         _______ _______ _______ _____ _____    ______ ____
ROOT
ATOM      1  C   UNL     1       1.351   9.088  18.960  0.00  0.00    +0.000 A 
ATOM      2  N   UNL     1       1.787   9.654  17.854  0.00  0.00    +0.000 NA
ATOM      3  N   UNL     1       2.692   8.783  17.293  0.00  0.00    +0.000 NA
ATOM      4  C   UNL     1       2.745   7.738  18.089  0.00  0.00    +0.000 A 
ATOM      5  O   UNL     1       1.931   7.863  19.181  0.00  0.00    +0.000 OA
ENDROOT
BRANCH   4   6
ATOM      6  C   UNL     1       3.468   6.486  17.910  0.00  0.00    +0.000 A 
ATOM      7  C   UNL     1       4.834   6.543  17.580  0.00  0.00    +0.000 A 
ATOM      8  C   UNL     1       5.549   5.373  17.293  0.00  0.00    +0.000 A 
ATOM      9  C   UNL     1       4.927   4.123  17.347  0.00  0.00    +0.000 A 
ATOM     10  C   UNL     1       3.571   4.062  17.702  0.00  0.00    +0.000 A 
ATOM     11  C   UNL     1       2.845   5.231  17.990  0.00  0.00    +0.000 A 
BRANCH   8  12
ATOM     12  N   UNL     1       6.962   5.472  16.893  0.00  0.00    +0.000 N 
ATOM     13  O   UNL     1       7.324   6.506  16.318  0.00  0.00    +0.000 OA
ATOM     14  O   UNL     1       7.695   4.513  17.150  0.00  0.00    +0.000 OA
ENDBRANCH   8  12
BRANCH  10  15
ATOM     15  N   UNL     1       2.893   2.757  17.735  0.00  0.00    +0.000 N 
ATOM     16  O   UNL     1       1.661   2.747  17.631  0.00  0.00    +0.000 OA
ATOM     17  O   UNL     1       3.600   1.749  17.872  0.00  0.00    +0.000 OA
ENDBRANCH  10  15
ENDBRANCH   4   6
BRANCH   1  18
ATOM     18  S   UNL     1       0.174   9.778  20.032  0.00  0.00    +0.000 S 
BRANCH  18  19
ATOM     19  C   UNL     1       1.015   9.559  21.637  0.00  0.00    +0.000 C 
BRANCH  19  20
ATOM     20  C   UNL     1       0.024   9.852  22.763  0.00  0.00    +0.000 C 
BRANCH  20  21
ATOM     21  C   UNL     1      -0.967  10.975  22.415  0.00  0.00    +0.000 C 
BRANCH  21  26
ATOM     22  C   UNL     1      -3.557  14.768  20.873  0.00  0.00    +0.000 C 
ATOM     23  N   UNL     1      -2.394  14.358  21.650  0.00  0.00    +0.000 NA
ATOM     24  C   UNL     1      -1.407  13.661  20.808  0.00  0.00    +0.000 C 
ATOM     25  C   UNL     1      -0.187  13.183  21.630  0.00  0.00    +0.000 C 
ATOM     26  N   UNL     1      -0.514  12.323  22.789  0.00  0.00    +0.000 NA
ATOM     27  C   UNL     1      -1.543  13.028  23.595  0.00  0.00    +0.000 C 
ATOM     28  C   UNL     1      -2.779  13.510  22.792  0.00  0.00    +0.000 C 
ENDBRANCH  21  26
ENDBRANCH  20  21
ENDBRANCH  19  20
ENDBRANCH  18  19
ENDBRANCH   1  18
TORSDOF 8
ENDMDL
MODEL 6
REMARK VINA RESULT:      -7.0      2.551      4.420
REMARK  Name = 
REMARK  9 active torsions:
REMARK  status: ('A' for Active; 'I' for Inactive)
REMARK    1  A    between atoms: C_1  and  N_2
REMARK    2  A    between atoms: N_5  and  C_6
REMARK    3  A    between atoms: C_6  and  C_7
REMARK    4  A    between atoms: C_7  and  C_8
REMARK    5  A    between atoms: C_8  and  S_9
REMARK    6  A    between atoms: S_9  and  C_10
REMARK    7  A    between atoms: C_13  and  C_14
REMARK    8  A    between atoms: C_16  and  N_17
REMARK    9  A    between atoms: C_21  and  N_22
REMARK                            x       y       z     vdW  Elec       q    Type
REMARK                         _______ _______ _______ _____ _____    ______ ____
ROOT
ATOM      1  C   UNL     1       1.538   8.453  20.093  0.00  0.00    +0.000 A 
ATOM      2  N   UNL     1       1.444   9.146  18.977  0.00  0.00    +0.000 NA
ATOM      3  N   UNL     1       2.172   8.468  18.027  0.00  0.00    +0.000 NA
ATOM      4  C   UNL     1       2.658   7.401  18.621  0.00  0.00    +0.000 A 
ATOM      5  O   UNL     1       2.311   7.327  19.942  0.00  0.00    +0.000 OA
ENDROOT
BRANCH   4   6
ATOM      6  C   UNL     1       3.413   6.296  18.045  0.00  0.00    +0.000 A 
ATOM      7  C   UNL     1       2.839   5.013  18.064  0.00  0.00    +0.000 A 
ATOM      8  C   UNL     1       3.565   3.899  17.621  0.00  0.00    +0.000 A 
ATOM      9  C   UNL     1       4.867   4.042  17.133  0.00  0.00    +0.000 A 
ATOM     10  C   UNL     1       5.430   5.326  17.089  0.00  0.00    +0.000 A 
ATOM     11  C   UNL     1       4.711   6.448  17.533  0.00  0.00    +0.000 A 
BRANCH   8  12
ATOM     12  N   UNL     1       2.957   2.562  17.708  0.00  0.00    +0.000 N 
ATOM     13  O   UNL     1       3.716   1.597  17.869  0.00  0.00    +0.000 OA
ATOM     14  O   UNL     1       1.729   2.486  17.606  0.00  0.00    +0.000 OA
ENDBRANCH   8  12
BRANCH  10  15
ATOM     15  N   UNL     1       6.810   5.490  16.606  0.00  0.00    +0.000 N 
ATOM     16  O   UNL     1       7.536   4.489  16.589  0.00  0.00    +0.000 OA
ATOM     17  O   UNL     1       7.160   6.624  16.251  0.00  0.00    +0.000 OA
ENDBRANCH  10  15
ENDBRANCH   4   6
BRANCH   1  18
ATOM     18  S   UNL     1       0.779   8.877  21.594  0.00  0.00    +0.000 S 
BRANCH  18  19
ATOM     19  C   UNL     1      -0.458  10.087  21.012  0.00  0.00    +0.000 C 
BRANCH  19  20
ATOM     20  C   UNL     1      -0.223  11.420  21.720  0.00  0.00    +0.000 C 
BRANCH  20  21
ATOM     21  C   UNL     1      -0.471  12.635  20.812  0.00  0.00    +0.000 C 
BRANCH  21  26
ATOM     22  C   UNL     1       1.786  16.604  19.189  0.00  0.00    +0.000 C 
ATOM     23  N   UNL     1       1.470  15.211  18.897  0.00  0.00    +0.000 NA
ATOM     24  C   UNL     1       0.015  15.006  18.779  0.00  0.00    +0.000 C 
ATOM     25  C   UNL     1      -0.335  13.524  18.512  0.00  0.00    +0.000 C 
ATOM     26  N   UNL     1       0.201  12.567  19.506  0.00  0.00    +0.000 NA
ATOM     27  C   UNL     1       1.656  12.826  19.639  0.00  0.00    +0.000 C 
ATOM     28  C   UNL     1       2.031  14.305  19.914  0.00  0.00    +0.000 C 
ENDBRANCH  21  26
ENDBRANCH  20  21
ENDBRANCH  19  20
ENDBRANCH  18  19
ENDBRANCH   1  18
TORSDOF 8
ENDMDL
MODEL 7
REMARK VINA RESULT:      -7.0      2.764      4.720
REMARK  Name = 
REMARK  9 active torsions:
REMARK  status: ('A' for Active; 'I' for Inactive)
REMARK    1  A    between atoms: C_1  and  N_2
REMARK    2  A    between atoms: N_5  and  C_6
REMARK    3  A    between atoms: C_6  and  C_7
REMARK    4  A    between atoms: C_7  and  C_8
REMARK    5  A    between atoms: C_8  and  S_9
REMARK    6  A    between atoms: S_9  and  C_10
REMARK    7  A    between atoms: C_13  and  C_14
REMARK    8  A    between atoms: C_16  and  N_17
REMARK    9  A    between atoms: C_21  and  N_22
REMARK                            x       y       z     vdW  Elec       q    Type
REMARK                         _______ _______ _______ _____ _____    ______ ____
ROOT
ATOM      1  C   UNL     1       1.464   9.076  19.119  0.00  0.00    +0.000 A 
ATOM      2  N   UNL     1       1.682   9.619  17.940  0.00  0.00    +0.000 NA
ATOM      3  N   UNL     1       2.524   8.767  17.262  0.00  0.00    +0.000 NA
ATOM      4  C   UNL     1       2.760   7.756  18.069  0.00  0.00    +0.000 A 
ATOM      5  O   UNL     1       2.131   7.886  19.277  0.00  0.00    +0.000 OA
ENDROOT
BRANCH   4   6
ATOM      6  C   UNL     1       3.504   6.531  17.809  0.00  0.00    +0.000 A 
ATOM      7  C   UNL     1       4.829   6.638  17.352  0.00  0.00    +0.000 A 
ATOM      8  C   UNL     1       5.552   5.495  16.986  0.00  0.00    +0.000 A 
ATOM      9  C   UNL     1       4.980   4.223  17.086  0.00  0.00    +0.000 A 
ATOM     10  C   UNL     1       3.668   4.114  17.569  0.00  0.00    +0.000 A 
ATOM     11  C   UNL     1       2.934   5.255  17.936  0.00  0.00    +0.000 A 
BRANCH   8  12
ATOM     12  N   UNL     1       6.916   5.645  16.455  0.00  0.00    +0.000 N 
ATOM     13  O   UNL     1       7.419   4.670  15.883  0.00  0.00    +0.000 OA
ATOM     14  O   UNL     1       7.477   6.732  16.623  0.00  0.00    +0.000 OA
ENDBRANCH   8  12
BRANCH  10  15
ATOM     15  N   UNL     1       3.040   2.786  17.653  0.00  0.00    +0.000 N 
ATOM     16  O   UNL     1       3.769   1.821  17.914  0.00  0.00    +0.000 OA
ATOM     17  O   UNL     1       1.820   2.717  17.452  0.00  0.00    +0.000 OA
ENDBRANCH  10  15
ENDBRANCH   4   6
BRANCH   1  18
ATOM     18  S   UNL     1       0.447   9.754  20.351  0.00  0.00    +0.000 S 
BRANCH  18  19
ATOM     19  C   UNL     1       0.147  11.416  19.660  0.00  0.00    +0.000 C 
BRANCH  19  20
ATOM     20  C   UNL     1       1.113  12.407  20.307  0.00  0.00    +0.000 C 
BRANCH  20  21
ATOM     21  C   UNL     1       2.115  13.010  19.309  0.00  0.00    +0.000 C 
BRANCH  21  26
ATOM     22  C   UNL     1       6.510  15.048  19.399  0.00  0.00    +0.000 C 
ATOM     23  N   UNL     1       5.076  15.311  19.376  0.00  0.00    +0.000 NA
ATOM     24  C   UNL     1       4.414  14.771  20.576  0.00  0.00    +0.000 C 
ATOM     25  C   UNL     1       2.886  15.006  20.543  0.00  0.00    +0.000 C 
ATOM     26  N   UNL     1       2.199  14.478  19.342  0.00  0.00    +0.000 NA
ATOM     27  C   UNL     1       2.914  14.999  18.150  0.00  0.00    +0.000 C 
ATOM     28  C   UNL     1       4.447  14.768  18.159  0.00  0.00    +0.000 C 
ENDBRANCH  21  26
ENDBRANCH  20  21
ENDBRANCH  19  20
ENDBRANCH  18  19
ENDBRANCH   1  18
TORSDOF 8
ENDMDL
MODEL 8
REMARK VINA RESULT:      -7.0      2.738      4.833
REMARK  Name = 
REMARK  9 active torsions:
REMARK  status: ('A' for Active; 'I' for Inactive)
REMARK    1  A    between atoms: C_1  and  N_2
REMARK    2  A    between atoms: N_5  and  C_6
REMARK    3  A    between atoms: C_6  and  C_7
REMARK    4  A    between atoms: C_7  and  C_8
REMARK    5  A    between atoms: C_8  and  S_9
REMARK    6  A    between atoms: S_9  and  C_10
REMARK    7  A    between atoms: C_13  and  C_14
REMARK    8  A    between atoms: C_16  and  N_17
REMARK    9  A    between atoms: C_21  and  N_22
REMARK                            x       y       z     vdW  Elec       q    Type
REMARK                         _______ _______ _______ _____ _____    ______ ____
ROOT
ATOM      1  C   UNL     1       1.485   8.834  19.302  0.00  0.00    +0.000 A 
ATOM      2  N   UNL     1       1.661   9.485  18.171  0.00  0.00    +0.000 NA
ATOM      3  N   UNL     1       2.531   8.736  17.414  0.00  0.00    +0.000 NA
ATOM      4  C   UNL     1       2.824   7.672  18.128  0.00  0.00    +0.000 A 
ATOM      5  O   UNL     1       2.208   7.667  19.350  0.00  0.00    +0.000 OA
ENDROOT
BRANCH   4   6
ATOM      6  C   UNL     1       3.620   6.509  17.755  0.00  0.00    +0.000 A 
ATOM      7  C   UNL     1       3.044   5.234  17.888  0.00  0.00    +0.000 A 
ATOM      8  C   UNL     1       3.801   4.080  17.645  0.00  0.00    +0.000 A 
ATOM      9  C   UNL     1       5.138   4.171  17.247  0.00  0.00    +0.000 A 
ATOM     10  C   UNL     1       5.706   5.444  17.089  0.00  0.00    +0.000 A 
ATOM     11  C   UNL     1       4.955   6.607  17.332  0.00  0.00    +0.000 A 
BRANCH   8  12
ATOM     12  N   UNL     1       3.185   2.759  17.849  0.00  0.00    +0.000 N 
ATOM     13  O   UNL     1       2.132   2.518  17.246  0.00  0.00    +0.000 OA
ATOM     14  O   UNL     1       3.754   1.978  18.618  0.00  0.00    +0.000 OA
ENDBRANCH   8  12
BRANCH  10  15
ATOM     15  N   UNL     1       7.120   5.558  16.699  0.00  0.00    +0.000 N 
ATOM     16  O   UNL     1       7.807   4.530  16.725  0.00  0.00    +0.000 OA
ATOM     17  O   UNL     1       7.535   6.679  16.376  0.00  0.00    +0.000 OA
ENDBRANCH  10  15
ENDBRANCH   4   6
BRANCH   1  18
ATOM     18  S   UNL     1       0.456   9.354  20.599  0.00  0.00    +0.000 S 
BRANCH  18  19
ATOM     19  C   UNL     1       0.967  11.100  20.751  0.00  0.00    +0.000 C 
BRANCH  19  20
ATOM     20  C   UNL     1      -0.126  11.992  20.165  0.00  0.00    +0.000 C 
BRANCH  20  21
ATOM     21  C   UNL     1       0.234  13.486  20.200  0.00  0.00    +0.000 C 
BRANCH  21  26
ATOM     22  C   UNL     1       4.602  15.445  19.447  0.00  0.00    +0.000 C 
ATOM     23  N   UNL     1       3.308  15.153  18.842  0.00  0.00    +0.000 NA
ATOM     24  C   UNL     1       2.219  15.856  19.542  0.00  0.00    +0.000 C 
ATOM     25  C   UNL     1       0.836  15.521  18.936  0.00  0.00    +0.000 C 
ATOM     26  N   UNL     1       0.512  14.078  18.883  0.00  0.00    +0.000 NA
ATOM     27  C   UNL     1       1.645  13.388  18.215  0.00  0.00    +0.000 C 
ATOM     28  C   UNL     1       3.041  13.704  18.811  0.00  0.00    +0.000 C 
ENDBRANCH  21  26
ENDBRANCH  20  21
ENDBRANCH  19  20
ENDBRANCH  18  19
ENDBRANCH   1  18
TORSDOF 8
ENDMDL
MODEL 9
REMARK VINA RESULT:      -6.9      2.670      3.838
REMARK  Name = 
REMARK  9 active torsions:
REMARK  status: ('A' for Active; 'I' for Inactive)
REMARK    1  A    between atoms: C_1  and  N_2
REMARK    2  A    between atoms: N_5  and  C_6
REMARK    3  A    between atoms: C_6  and  C_7
REMARK    4  A    between atoms: C_7  and  C_8
REMARK    5  A    between atoms: C_8  and  S_9
REMARK    6  A    between atoms: S_9  and  C_10
REMARK    7  A    between atoms: C_13  and  C_14
REMARK    8  A    between atoms: C_16  and  N_17
REMARK    9  A    between atoms: C_21  and  N_22
REMARK                            x       y       z     vdW  Elec       q    Type
REMARK                         _______ _______ _______ _____ _____    ______ ____
ROOT
ATOM      1  C   UNL     1       1.592   9.064  18.880  0.00  0.00    +0.000 A 
ATOM      2  N   UNL     1       1.891   9.543  17.690  0.00  0.00    +0.000 NA
ATOM      3  N   UNL     1       2.751   8.642  17.106  0.00  0.00    +0.000 NA
ATOM      4  C   UNL     1       2.916   7.668  17.973  0.00  0.00    +0.000 A 
ATOM      5  O   UNL     1       2.223   7.871  19.135  0.00  0.00    +0.000 OA
ENDROOT
BRANCH   4   6
ATOM      6  C   UNL     1       3.647   6.417  17.818  0.00  0.00    +0.000 A 
ATOM      7  C   UNL     1       5.007   6.476  17.466  0.00  0.00    +0.000 A 
ATOM      8  C   UNL     1       5.727   5.304  17.201  0.00  0.00    +0.000 A 
ATOM      9  C   UNL     1       5.116   4.051  17.298  0.00  0.00    +0.000 A 
ATOM     10  C   UNL     1       3.766   3.990  17.675  0.00  0.00    +0.000 A 
ATOM     11  C   UNL     1       3.035   5.160  17.942  0.00  0.00    +0.000 A 
BRANCH   8  12
ATOM     12  N   UNL     1       7.133   5.402  16.778  0.00  0.00    +0.000 N 
ATOM     13  O   UNL     1       7.529   6.495  16.354  0.00  0.00    +0.000 OA
ATOM     14  O   UNL     1       7.827   4.385  16.865  0.00  0.00    +0.000 OA
ENDBRANCH   8  12
BRANCH  10  15
ATOM     15  N   UNL     1       3.099   2.681  17.754  0.00  0.00    +0.000 N 
ATOM     16  O   UNL     1       3.767   1.718  18.150  0.00  0.00    +0.000 OA
ATOM     17  O   UNL     1       1.909   2.624  17.413  0.00  0.00    +0.000 OA
ENDBRANCH  10  15
ENDBRANCH   4   6
BRANCH   1  18
ATOM     18  S   UNL     1       0.522   9.823  20.016  0.00  0.00    +0.000 S 
BRANCH  18  19
ATOM     19  C   UNL     1       0.675  11.568  19.506  0.00  0.00    +0.000 C 
BRANCH  19  20
ATOM     20  C   UNL     1       1.064  12.410  20.720  0.00  0.00    +0.000 C 
BRANCH  20  21
ATOM     21  C   UNL     1      -0.079  12.565  21.735  0.00  0.00    +0.000 C 
BRANCH  21  26
ATOM     22  C   UNL     1      -4.057  12.945  24.477  0.00  0.00    +0.000 C 
ATOM     23  N   UNL     1      -3.342  13.497  23.333  0.00  0.00    +0.000 NA
ATOM     24  C   UNL     1      -3.196  12.498  22.260  0.00  0.00    +0.000 C 
ATOM     25  C   UNL     1      -2.402  13.059  21.057  0.00  0.00    +0.000 C 
ATOM     26  N   UNL     1      -1.065  13.600  21.390  0.00  0.00    +0.000 NA
ATOM     27  C   UNL     1      -1.236  14.568  22.502  0.00  0.00    +0.000 C 
ATOM     28  C   UNL     1      -2.023  14.025  23.722  0.00  0.00    +0.000 C 
ENDBRANCH  21  26
ENDBRANCH  20  21
ENDBRANCH  19  20
ENDBRANCH  18  19
ENDBRANCH   1  18
TORSDOF 8
ENDMDL
