MODEL 1
REMARK VINA RESULT:      -8.7      0.000      0.000
REMARK  Name = 
REMARK  6 active torsions:
REMARK  status: ('A' for Active; 'I' for Inactive)
REMARK    1  A    between atoms: C_1  and  C_2
REMARK    2  A    between atoms: C_2  and  N_3
REMARK    3  A    between atoms: C_6  and  C_7
REMARK    4  A    between atoms: N_10  and  C_11
REMARK    5  A    between atoms: C_14  and  N_15
REMARK    6  A    between atoms: C_16  and  C_18
REMARK                            x       y       z     vdW  Elec       q    Type
REMARK                         _______ _______ _______ _____ _____    ______ ____
ROOT
ATOM      1  C   UNL     1       2.486   8.047  18.447  0.00  0.00    +0.000 A 
ATOM      2  C   UNL     1       1.912   9.161  17.830  0.00  0.00    +0.000 A 
ATOM      3  C   UNL     1       0.984   9.965  18.499  0.00  0.00    +0.000 A 
ATOM      4  C   UNL     1       0.605   9.678  19.810  0.00  0.00    +0.000 A 
ATOM      5  C   UNL     1       1.189   8.583  20.450  0.00  0.00    +0.000 A 
ATOM      6  C   UNL     1       2.118   7.783  19.779  0.00  0.00    +0.000 A 
ENDROOT
BRANCH   1  14
ATOM      7  N   UNL     1       2.694   2.970  19.401  0.00  0.00    +0.000 N 
ATOM      8  C   UNL     1       3.359   3.834  18.510  0.00  0.00    +0.000 A 
ATOM      9  C   UNL     1       4.149   3.303  17.517  0.00  0.00    +0.000 A 
ATOM     10  C   UNL     1       4.759   4.201  16.667  0.00  0.00    +0.000 A 
ATOM     11  C   UNL     1       5.701   3.736  15.599  0.00  0.00    +0.000 C 
ATOM     12  N   UNL     1       4.546   5.531  16.747  0.00  0.00    +0.000 NA
ATOM     13  C   UNL     1       3.712   5.958  17.703  0.00  0.00    +0.000 A 
ATOM     14  N   UNL     1       3.457   7.322  17.754  0.00  0.00    +0.000 N 
ATOM     15  N   UNL     1       3.139   5.146  18.596  0.00  0.00    +0.000 NA
ATOM     16  H   UNL     1       1.896   2.588  18.899  0.00  0.00    +0.000 HD
ATOM     17  H   UNL     1       4.039   7.820  17.099  0.00  0.00    +0.000 HD
BRANCH   7  19
ATOM     18  C   UNL     1       1.652   2.624  21.579  0.00  0.00    +0.000 C 
ATOM     19  C   UNL     1       2.286   3.636  20.640  0.00  0.00    +0.000 C 
ENDBRANCH   7  19
ENDBRANCH   1  14
BRANCH   4  20
ATOM     20  N   UNL     1      -0.362  10.415  20.523  0.00  0.00    +0.000 N 
ATOM     21  C   UNL     1      -0.133  11.531  21.313  0.00  0.00    +0.000 C 
ATOM     22  O   UNL     1       0.962  11.988  21.615  0.00  0.00    +0.000 OA
ATOM     23  H   UNL     1      -1.316  10.082  20.442  0.00  0.00    +0.000 HD
BRANCH  21  24
ATOM     24  C   UNL     1      -1.345  12.210  21.829  0.00  0.00    +0.000 A 
ATOM     25  C   UNL     1      -2.000  11.691  22.949  0.00  0.00    +0.000 A 
ATOM     26  F   UNL     1      -1.562  10.570  23.544  0.00  0.00    +0.000 F 
ATOM     27  C   UNL     1      -3.132  12.305  23.480  0.00  0.00    +0.000 A 
ATOM     28  C   UNL     1      -3.626  13.465  22.893  0.00  0.00    +0.000 A 
ATOM     29  C   UNL     1      -2.983  14.003  21.778  0.00  0.00    +0.000 A 
ATOM     30  C   UNL     1      -1.845  13.382  21.242  0.00  0.00    +0.000 A 
ATOM     31 CL   UNL     1      -1.180  14.108  19.819  0.00  0.00    +0.000 Cl
ENDBRANCH  21  24
ENDBRANCH   4  20
TORSDOF 4
ENDMDL
MODEL 2
REMARK VINA RESULT:      -8.5      1.624      1.785
REMARK  Name = 
REMARK  6 active torsions:
REMARK  status: ('A' for Active; 'I' for Inactive)
REMARK    1  A    between atoms: C_1  and  C_2
REMARK    2  A    between atoms: C_2  and  N_3
REMARK    3  A    between atoms: C_6  and  C_7
REMARK    4  A    between atoms: N_10  and  C_11
REMARK    5  A    between atoms: C_14  and  N_15
REMARK    6  A    between atoms: C_16  and  C_18
REMARK                            x       y       z     vdW  Elec       q    Type
REMARK                         _______ _______ _______ _____ _____    ______ ____
ROOT
ATOM      1  C   UNL     1       2.179   8.148  18.678  0.00  0.00    +0.000 A 
ATOM      2  C   UNL     1       1.484   9.034  17.852  0.00  0.00    +0.000 A 
ATOM      3  C   UNL     1       0.475   9.858  18.357  0.00  0.00    +0.000 A 
ATOM      4  C   UNL     1       0.132   9.823  19.708  0.00  0.00    +0.000 A 
ATOM      5  C   UNL     1       0.835   8.962  20.552  0.00  0.00    +0.000 A 
ATOM      6  C   UNL     1       1.846   8.141  20.045  0.00  0.00    +0.000 A 
ENDROOT
BRANCH   1  14
ATOM      7  N   UNL     1       1.560   3.015  18.635  0.00  0.00    +0.000 N 
ATOM      8  C   UNL     1       2.540   3.894  18.135  0.00  0.00    +0.000 A 
ATOM      9  C   UNL     1       3.517   3.411  17.297  0.00  0.00    +0.000 A 
ATOM     10  C   UNL     1       4.437   4.326  16.828  0.00  0.00    +0.000 A 
ATOM     11  C   UNL     1       5.587   3.894  15.971  0.00  0.00    +0.000 C 
ATOM     12  N   UNL     1       4.354   5.642  17.111  0.00  0.00    +0.000 NA
ATOM     13  C   UNL     1       3.334   6.038  17.882  0.00  0.00    +0.000 A 
ATOM     14  N   UNL     1       3.223   7.399  18.133  0.00  0.00    +0.000 N 
ATOM     15  N   UNL     1       2.447   5.195  18.418  0.00  0.00    +0.000 NA
ATOM     16  H   UNL     1       0.901   2.849  17.878  0.00  0.00    +0.000 HD
ATOM     17  H   UNL     1       4.017   7.897  17.762  0.00  0.00    +0.000 HD
BRANCH   7  19
ATOM     18  C   UNL     1       1.399   2.793  21.059  0.00  0.00    +0.000 C 
ATOM     19  C   UNL     1       0.892   3.531  19.831  0.00  0.00    +0.000 C 
ENDBRANCH   7  19
ENDBRANCH   1  14
BRANCH   4  20
ATOM     20  N   UNL     1      -0.908  10.589  20.271  0.00  0.00    +0.000 N 
ATOM     21  C   UNL     1      -1.037  11.968  20.226  0.00  0.00    +0.000 C 
ATOM     22  O   UNL     1      -0.206  12.756  19.791  0.00  0.00    +0.000 OA
ATOM     23  H   UNL     1      -1.627  10.064  20.757  0.00  0.00    +0.000 HD
BRANCH  21  24
ATOM     24  C   UNL     1      -2.306  12.512  20.765  0.00  0.00    +0.000 A 
ATOM     25  C   UNL     1      -3.449  12.515  19.961  0.00  0.00    +0.000 A 
ATOM     26  F   UNL     1      -3.404  12.058  18.700  0.00  0.00    +0.000 F 
ATOM     27  C   UNL     1      -4.668  12.999  20.430  0.00  0.00    +0.000 A 
ATOM     28  C   UNL     1      -4.762  13.487  21.729  0.00  0.00    +0.000 A 
ATOM     29  C   UNL     1      -3.634  13.488  22.550  0.00  0.00    +0.000 A 
ATOM     30  C   UNL     1      -2.406  13.002  22.076  0.00  0.00    +0.000 A 
ATOM     31 CL   UNL     1      -1.068  13.119  23.167  0.00  0.00    +0.000 Cl
ENDBRANCH  21  24
ENDBRANCH   4  20
TORSDOF 4
ENDMDL
MODEL 3
REMARK VINA RESULT:      -8.4      1.154      1.174
REMARK  Name = 
REMARK  6 active torsions:
REMARK  status: ('A' for Active; 'I' for Inactive)
REMARK    1  A    between atoms: C_1  and  C_2
REMARK    2  A    between atoms: C_2  and  N_3
REMARK    3  A    between atoms: C_6  and  C_7
REMARK    4  A    between atoms: N_10  and  C_11
REMARK    5  A    between atoms: C_14  and  N_15
REMARK    6  A    between atoms: C_16  and  C_18
REMARK                            x       y       z     vdW  Elec       q    Type
REMARK                         _______ _______ _______ _____ _____    ______ ____
ROOT
ATOM      1  C   UNL     1       2.227   8.063  18.784  0.00  0.00    +0.000 A 
ATOM      2  C   UNL     1       1.570   9.031  18.022  0.00  0.00    +0.000 A 
ATOM      3  C   UNL     1       0.591   9.856  18.583  0.00  0.00    +0.000 A 
ATOM      4  C   UNL     1       0.243   9.739  19.928  0.00  0.00    +0.000 A 
ATOM      5  C   UNL     1       0.909   8.794  20.710  0.00  0.00    +0.000 A 
ATOM      6  C   UNL     1       1.889   7.971  20.147  0.00  0.00    +0.000 A 
ENDROOT
BRANCH   1  14
ATOM      7  N   UNL     1       1.537   2.941  18.633  0.00  0.00    +0.000 N 
ATOM      8  C   UNL     1       2.512   3.820  18.125  0.00  0.00    +0.000 A 
ATOM      9  C   UNL     1       3.456   3.345  17.245  0.00  0.00    +0.000 A 
ATOM     10  C   UNL     1       4.374   4.259  16.770  0.00  0.00    +0.000 A 
ATOM     11  C   UNL     1       5.490   3.834  15.867  0.00  0.00    +0.000 C 
ATOM     12  N   UNL     1       4.318   5.569  17.088  0.00  0.00    +0.000 NA
ATOM     13  C   UNL     1       3.328   5.958  17.900  0.00  0.00    +0.000 A 
ATOM     14  N   UNL     1       3.243   7.314  18.188  0.00  0.00    +0.000 N 
ATOM     15  N   UNL     1       2.446   5.113  18.443  0.00  0.00    +0.000 NA
ATOM     16  H   UNL     1       0.853   2.802  17.894  0.00  0.00    +0.000 HD
ATOM     17  H   UNL     1       4.032   7.811  17.805  0.00  0.00    +0.000 HD
BRANCH   7  19
ATOM     18  C   UNL     1       1.529   2.738  21.064  0.00  0.00    +0.000 C 
ATOM     19  C   UNL     1       0.913   3.435  19.863  0.00  0.00    +0.000 C 
ENDBRANCH   7  19
ENDBRANCH   1  14
BRANCH   4  20
ATOM     20  N   UNL     1      -0.769  10.503  20.543  0.00  0.00    +0.000 N 
ATOM     21  C   UNL     1      -0.780  11.878  20.710  0.00  0.00    +0.000 C 
ATOM     22  O   UNL     1       0.141  12.644  20.454  0.00  0.00    +0.000 OA
ATOM     23  H   UNL     1      -1.562   9.978  20.897  0.00  0.00    +0.000 HD
BRANCH  21  24
ATOM     24  C   UNL     1      -2.036  12.448  21.252  0.00  0.00    +0.000 A 
ATOM     25  C   UNL     1      -2.072  12.901  22.574  0.00  0.00    +0.000 A 
ATOM     26  F   UNL     1      -0.991  12.800  23.364  0.00  0.00    +0.000 F 
ATOM     27  C   UNL     1      -3.224  13.460  23.122  0.00  0.00    +0.000 A 
ATOM     28  C   UNL     1      -4.369  13.580  22.342  0.00  0.00    +0.000 A 
ATOM     29  C   UNL     1      -4.353  13.139  21.019  0.00  0.00    +0.000 A 
ATOM     30  C   UNL     1      -3.194  12.574  20.468  0.00  0.00    +0.000 A 
ATOM     31 CL   UNL     1      -3.322  12.005  18.839  0.00  0.00    +0.000 Cl
ENDBRANCH  21  24
ENDBRANCH   4  20
TORSDOF 4
ENDMDL
MODEL 4
REMARK VINA RESULT:      -8.2      1.531      1.798
REMARK  Name = 
REMARK  6 active torsions:
REMARK  status: ('A' for Active; 'I' for Inactive)
REMARK    1  A    between atoms: C_1  and  C_2
REMARK    2  A    between atoms: C_2  and  N_3
REMARK    3  A    between atoms: C_6  and  C_7
REMARK    4  A    between atoms: N_10  and  C_11
REMARK    5  A    between atoms: C_14  and  N_15
REMARK    6  A    between atoms: C_16  and  C_18
REMARK                            x       y       z     vdW  Elec       q    Type
REMARK                         _______ _______ _______ _____ _____    ______ ____
ROOT
ATOM      1  C   UNL     1       2.405   8.079  18.556  0.00  0.00    +0.000 A 
ATOM      2  C   UNL     1       1.910   9.142  17.798  0.00  0.00    +0.000 A 
ATOM      3  C   UNL     1       0.980  10.041  18.327  0.00  0.00    +0.000 A 
ATOM      4  C   UNL     1       0.518   9.904  19.635  0.00  0.00    +0.000 A 
ATOM      5  C   UNL     1       1.023   8.862  20.415  0.00  0.00    +0.000 A 
ATOM      6  C   UNL     1       1.955   7.966  19.884  0.00  0.00    +0.000 A 
ENDROOT
BRANCH   1  14
ATOM      7  N   UNL     1       1.495   2.991  18.708  0.00  0.00    +0.000 N 
ATOM      8  C   UNL     1       2.502   3.797  18.144  0.00  0.00    +0.000 A 
ATOM      9  C   UNL     1       3.418   3.231  17.287  0.00  0.00    +0.000 A 
ATOM     10  C   UNL     1       4.369   4.076  16.754  0.00  0.00    +0.000 A 
ATOM     11  C   UNL     1       5.459   3.552  15.871  0.00  0.00    +0.000 C 
ATOM     12  N   UNL     1       4.372   5.403  16.995  0.00  0.00    +0.000 NA
ATOM     13  C   UNL     1       3.407   5.881  17.789  0.00  0.00    +0.000 A 
ATOM     14  N   UNL     1       3.382   7.253  17.998  0.00  0.00    +0.000 N 
ATOM     15  N   UNL     1       2.494   5.108  18.385  0.00  0.00    +0.000 NA
ATOM     16  H   UNL     1       0.799   2.840  17.982  0.00  0.00    +0.000 HD
ATOM     17  H   UNL     1       4.189   7.693  17.582  0.00  0.00    +0.000 HD
BRANCH   7  19
ATOM     18  C   UNL     1       1.424   2.864  21.143  0.00  0.00    +0.000 C 
ATOM     19  C   UNL     1       0.903   3.583  19.910  0.00  0.00    +0.000 C 
ENDBRANCH   7  19
ENDBRANCH   1  14
BRANCH   4  20
ATOM     20  N   UNL     1      -0.455  10.744  20.213  0.00  0.00    +0.000 N 
ATOM     21  C   UNL     1      -0.225  11.917  20.913  0.00  0.00    +0.000 C 
ATOM     22  O   UNL     1       0.869  12.356  21.245  0.00  0.00    +0.000 OA
ATOM     23  H   UNL     1      -1.418  10.444  20.098  0.00  0.00    +0.000 HD
BRANCH  21  24
ATOM     24  C   UNL     1      -1.434  12.691  21.283  0.00  0.00    +0.000 A 
ATOM     25  C   UNL     1      -1.806  13.796  20.513  0.00  0.00    +0.000 A 
ATOM     26  F   UNL     1      -1.067  14.181  19.461  0.00  0.00    +0.000 F 
ATOM     27  C   UNL     1      -2.944  14.542  20.812  0.00  0.00    +0.000 A 
ATOM     28  C   UNL     1      -3.737  14.184  21.897  0.00  0.00    +0.000 A 
ATOM     29  C   UNL     1      -3.386  13.081  22.674  0.00  0.00    +0.000 A 
ATOM     30  C   UNL     1      -2.239  12.331  22.374  0.00  0.00    +0.000 A 
ATOM     31 CL   UNL     1      -1.876  11.028  23.454  0.00  0.00    +0.000 Cl
ENDBRANCH  21  24
ENDBRANCH   4  20
TORSDOF 4
ENDMDL
MODEL 5
REMARK VINA RESULT:      -7.9      6.497      8.807
REMARK  Name = 
REMARK  6 active torsions:
REMARK  status: ('A' for Active; 'I' for Inactive)
REMARK    1  A    between atoms: C_1  and  C_2
REMARK    2  A    between atoms: C_2  and  N_3
REMARK    3  A    between atoms: C_6  and  C_7
REMARK    4  A    between atoms: N_10  and  C_11
REMARK    5  A    between atoms: C_14  and  N_15
REMARK    6  A    between atoms: C_16  and  C_18
REMARK                            x       y       z     vdW  Elec       q    Type
REMARK                         _______ _______ _______ _____ _____    ______ ____
ROOT
ATOM      1  C   UNL     1       6.893   6.241  18.108  0.00  0.00    +0.000 A 
ATOM      2  C   UNL     1       7.956   6.518  18.970  0.00  0.00    +0.000 A 
ATOM      3  C   UNL     1       8.628   7.743  18.925  0.00  0.00    +0.000 A 
ATOM      4  C   UNL     1       8.253   8.731  18.015  0.00  0.00    +0.000 A 
ATOM      5  C   UNL     1       7.175   8.479  17.164  0.00  0.00    +0.000 A 
ATOM      6  C   UNL     1       6.503   7.254  17.214  0.00  0.00    +0.000 A 
ENDROOT
BRANCH   1  14
ATOM      7  N   UNL     1       1.731   6.480  18.257  0.00  0.00    +0.000 N 
ATOM      8  C   UNL     1       2.669   5.430  18.242  0.00  0.00    +0.000 A 
ATOM      9  C   UNL     1       2.233   4.137  18.069  0.00  0.00    +0.000 A 
ATOM     10  C   UNL     1       3.203   3.157  18.046  0.00  0.00    +0.000 A 
ATOM     11  C   UNL     1       2.835   1.709  17.940  0.00  0.00    +0.000 C 
ATOM     12  N   UNL     1       4.520   3.442  18.118  0.00  0.00    +0.000 NA
ATOM     13  C   UNL     1       4.860   4.732  18.220  0.00  0.00    +0.000 A 
ATOM     14  N   UNL     1       6.216   5.028  18.245  0.00  0.00    +0.000 N 
ATOM     15  N   UNL     1       3.968   5.723  18.310  0.00  0.00    +0.000 NA
ATOM     16  H   UNL     1       1.460   6.646  17.291  0.00  0.00    +0.000 HD
ATOM     17  H   UNL     1       6.766   4.183  18.284  0.00  0.00    +0.000 HD
BRANCH   7  19
ATOM     18  C   UNL     1       2.054   8.879  17.958  0.00  0.00    +0.000 C 
ATOM     19  C   UNL     1       2.248   7.695  18.890  0.00  0.00    +0.000 C 
ENDBRANCH   7  19
ENDBRANCH   1  14
BRANCH   4  20
ATOM     20  N   UNL     1       8.919   9.965  17.882  0.00  0.00    +0.000 N 
ATOM     21  C   UNL     1       9.321  10.803  18.910  0.00  0.00    +0.000 C 
ATOM     22  O   UNL     1       9.058  10.663  20.098  0.00  0.00    +0.000 OA
ATOM     23  H   UNL     1       9.115  10.258  16.930  0.00  0.00    +0.000 HD
BRANCH  21  24
ATOM     24  C   UNL     1      10.140  11.969  18.504  0.00  0.00    +0.000 A 
ATOM     25  C   UNL     1      11.521  11.946  18.713  0.00  0.00    +0.000 A 
ATOM     26  F   UNL     1      12.110  10.893  19.302  0.00  0.00    +0.000 F 
ATOM     27  C   UNL     1      12.333  13.012  18.332  0.00  0.00    +0.000 A 
ATOM     28  C   UNL     1      11.767  14.127  17.722  0.00  0.00    +0.000 A 
ATOM     29  C   UNL     1      10.391  14.167  17.499  0.00  0.00    +0.000 A 
ATOM     30  C   UNL     1       9.573  13.095  17.886  0.00  0.00    +0.000 A 
ATOM     31 CL   UNL     1       7.875  13.295  17.616  0.00  0.00    +0.000 Cl
ENDBRANCH  21  24
ENDBRANCH   4  20
TORSDOF 4
ENDMDL
MODEL 6
REMARK VINA RESULT:      -7.9      3.831      9.744
REMARK  Name = 
REMARK  6 active torsions:
REMARK  status: ('A' for Active; 'I' for Inactive)
REMARK    1  A    between atoms: C_1  and  C_2
REMARK    2  A    between atoms: C_2  and  N_3
REMARK    3  A    between atoms: C_6  and  C_7
REMARK    4  A    between atoms: N_10  and  C_11
REMARK    5  A    between atoms: C_14  and  N_15
REMARK    6  A    between atoms: C_16  and  C_18
REMARK                            x       y       z     vdW  Elec       q    Type
REMARK                         _______ _______ _______ _____ _____    ______ ____
ROOT
ATOM      1  C   UNL     1       0.674  10.123  19.475  0.00  0.00    +0.000 A 
ATOM      2  C   UNL     1       1.037   8.951  20.142  0.00  0.00    +0.000 A 
ATOM      3  C   UNL     1       1.951   8.051  19.585  0.00  0.00    +0.000 A 
ATOM      4  C   UNL     1       2.533   8.301  18.343  0.00  0.00    +0.000 A 
ATOM      5  C   UNL     1       2.200   9.482  17.676  0.00  0.00    +0.000 A 
ATOM      6  C   UNL     1       1.288  10.380  18.236  0.00  0.00    +0.000 A 
ENDROOT
BRANCH   1  14
ATOM      7  N   UNL     1      -3.731  11.225  17.001  0.00  0.00    +0.000 N 
ATOM      8  C   UNL     1      -3.196  11.561  18.259  0.00  0.00    +0.000 A 
ATOM      9  C   UNL     1      -3.994  12.189  19.187  0.00  0.00    +0.000 A 
ATOM     10  C   UNL     1      -3.416  12.476  20.406  0.00  0.00    +0.000 A 
ATOM     11  C   UNL     1      -4.171  13.225  21.461  0.00  0.00    +0.000 C 
ATOM     12  N   UNL     1      -2.157  12.104  20.713  0.00  0.00    +0.000 NA
ATOM     13  C   UNL     1      -1.471  11.440  19.775  0.00  0.00    +0.000 A 
ATOM     14  N   UNL     1      -0.192  11.016  20.110  0.00  0.00    +0.000 N 
ATOM     15  N   UNL     1      -1.951  11.186  18.554  0.00  0.00    +0.000 NA
ATOM     16  H   UNL     1      -4.309  10.399  17.139  0.00  0.00    +0.000 HD
ATOM     17  H   UNL     1       0.079  11.372  21.014  0.00  0.00    +0.000 HD
BRANCH   7  19
ATOM     18  C   UNL     1      -3.266  10.154  14.859  0.00  0.00    +0.000 C 
ATOM     19  C   UNL     1      -2.698  11.000  15.987  0.00  0.00    +0.000 C 
ENDBRANCH   7  19
ENDBRANCH   1  14
BRANCH   4  20
ATOM     20  N   UNL     1       3.421   7.414  17.703  0.00  0.00    +0.000 N 
ATOM     21  C   UNL     1       3.987   6.273  18.249  0.00  0.00    +0.000 C 
ATOM     22  O   UNL     1       3.899   5.914  19.417  0.00  0.00    +0.000 OA
ATOM     23  H   UNL     1       3.663   7.649  16.746  0.00  0.00    +0.000 HD
BRANCH  21  24
ATOM     24  C   UNL     1       4.767   5.432  17.311  0.00  0.00    +0.000 A 
ATOM     25  C   UNL     1       4.221   4.233  16.846  0.00  0.00    +0.000 A 
ATOM     26  F   UNL     1       3.012   3.822  17.260  0.00  0.00    +0.000 F 
ATOM     27  C   UNL     1       4.909   3.418  15.950  0.00  0.00    +0.000 A 
ATOM     28  C   UNL     1       6.167   3.802  15.497  0.00  0.00    +0.000 A 
ATOM     29  C   UNL     1       6.728   4.997  15.945  0.00  0.00    +0.000 A 
ATOM     30  C   UNL     1       6.035   5.816  16.850  0.00  0.00    +0.000 A 
ATOM     31 CL   UNL     1       6.865   7.238  17.381  0.00  0.00    +0.000 Cl
ENDBRANCH  21  24
ENDBRANCH   4  20
TORSDOF 4
ENDMDL
MODEL 7
REMARK VINA RESULT:      -7.8      3.939      9.780
REMARK  Name = 
REMARK  6 active torsions:
REMARK  status: ('A' for Active; 'I' for Inactive)
REMARK    1  A    between atoms: C_1  and  C_2
REMARK    2  A    between atoms: C_2  and  N_3
REMARK    3  A    between atoms: C_6  and  C_7
REMARK    4  A    between atoms: N_10  and  C_11
REMARK    5  A    between atoms: C_14  and  N_15
REMARK    6  A    between atoms: C_16  and  C_18
REMARK                            x       y       z     vdW  Elec       q    Type
REMARK                         _______ _______ _______ _____ _____    ______ ____
ROOT
ATOM      1  C   UNL     1       0.300  10.245  19.596  0.00  0.00    +0.000 A 
ATOM      2  C   UNL     1       0.789   9.173  20.346  0.00  0.00    +0.000 A 
ATOM      3  C   UNL     1       1.740   8.293  19.822  0.00  0.00    +0.000 A 
ATOM      4  C   UNL     1       2.233   8.462  18.529  0.00  0.00    +0.000 A 
ATOM      5  C   UNL     1       1.774   9.544  17.775  0.00  0.00    +0.000 A 
ATOM      6  C   UNL     1       0.825  10.423  18.303  0.00  0.00    +0.000 A 
ENDROOT
BRANCH   1  14
ATOM      7  N   UNL     1      -4.011  11.311  16.947  0.00  0.00    +0.000 N 
ATOM      8  C   UNL     1      -3.530  11.651  18.225  0.00  0.00    +0.000 A 
ATOM      9  C   UNL     1      -4.370  12.271  19.120  0.00  0.00    +0.000 A 
ATOM     10  C   UNL     1      -3.844  12.563  20.362  0.00  0.00    +0.000 A 
ATOM     11  C   UNL     1      -4.647  13.305  21.385  0.00  0.00    +0.000 C 
ATOM     12  N   UNL     1      -2.595  12.201  20.719  0.00  0.00    +0.000 NA
ATOM     13  C   UNL     1      -1.866  11.544  19.810  0.00  0.00    +0.000 A 
ATOM     14  N   UNL     1      -0.598  11.130  20.195  0.00  0.00    +0.000 N 
ATOM     15  N   UNL     1      -2.294  11.286  18.570  0.00  0.00    +0.000 NA
ATOM     16  H   UNL     1      -4.587  10.480  17.061  0.00  0.00    +0.000 HD
ATOM     17  H   UNL     1      -0.367  11.488  21.109  0.00  0.00    +0.000 HD
BRANCH   7  19
ATOM     18  C   UNL     1      -3.411  10.140  14.893  0.00  0.00    +0.000 C 
ATOM     19  C   UNL     1      -2.937  11.095  15.975  0.00  0.00    +0.000 C 
ENDBRANCH   7  19
ENDBRANCH   1  14
BRANCH   4  20
ATOM     20  N   UNL     1       3.153   7.583  17.922  0.00  0.00    +0.000 N 
ATOM     21  C   UNL     1       3.643   6.402  18.456  0.00  0.00    +0.000 C 
ATOM     22  O   UNL     1       3.448   5.988  19.592  0.00  0.00    +0.000 OA
ATOM     23  H   UNL     1       3.481   7.858  17.002  0.00  0.00    +0.000 HD
BRANCH  21  24
ATOM     24  C   UNL     1       4.482   5.587  17.545  0.00  0.00    +0.000 A 
ATOM     25  C   UNL     1       5.744   6.056  17.168  0.00  0.00    +0.000 A 
ATOM     26  F   UNL     1       6.191   7.247  17.598  0.00  0.00    +0.000 F 
ATOM     27  C   UNL     1       6.574   5.317  16.329  0.00  0.00    +0.000 A 
ATOM     28  C   UNL     1       6.150   4.080  15.855  0.00  0.00    +0.000 A 
ATOM     29  C   UNL     1       4.897   3.592  16.224  0.00  0.00    +0.000 A 
ATOM     30  C   UNL     1       4.059   4.337  17.067  0.00  0.00    +0.000 A 
ATOM     31 CL   UNL     1       2.505   3.654  17.397  0.00  0.00    +0.000 Cl
ENDBRANCH  21  24
ENDBRANCH   4  20
TORSDOF 4
ENDMDL
MODEL 8
REMARK VINA RESULT:      -7.7      1.588      1.886
REMARK  Name = 
REMARK  6 active torsions:
REMARK  status: ('A' for Active; 'I' for Inactive)
REMARK    1  A    between atoms: C_1  and  C_2
REMARK    2  A    between atoms: C_2  and  N_3
REMARK    3  A    between atoms: C_6  and  C_7
REMARK    4  A    between atoms: N_10  and  C_11
REMARK    5  A    between atoms: C_14  and  N_15
REMARK    6  A    between atoms: C_16  and  C_18
REMARK                            x       y       z     vdW  Elec       q    Type
REMARK                         _______ _______ _______ _____ _____    ______ ____
ROOT
ATOM      1  C   UNL     1       2.069   8.561  18.475  0.00  0.00    +0.000 A 
ATOM      2  C   UNL     1       1.797   8.491  19.843  0.00  0.00    +0.000 A 
ATOM      3  C   UNL     1       0.681   9.126  20.395  0.00  0.00    +0.000 A 
ATOM      4  C   UNL     1      -0.200   9.850  19.592  0.00  0.00    +0.000 A 
ATOM      5  C   UNL     1       0.043   9.907  18.219  0.00  0.00    +0.000 A 
ATOM      6  C   UNL     1       1.159   9.269  17.669  0.00  0.00    +0.000 A 
ENDROOT
BRANCH   1  14
ATOM      7  N   UNL     1       1.837   3.409  18.833  0.00  0.00    +0.000 N 
ATOM      8  C   UNL     1       2.741   4.317  18.251  0.00  0.00    +0.000 A 
ATOM      9  C   UNL     1       3.742   3.843  17.435  0.00  0.00    +0.000 A 
ATOM     10  C   UNL     1       4.585   4.785  16.881  0.00  0.00    +0.000 A 
ATOM     11  C   UNL     1       5.754   4.375  16.039  0.00  0.00    +0.000 C 
ATOM     12  N   UNL     1       4.407   6.110  17.064  0.00  0.00    +0.000 NA
ATOM     13  C   UNL     1       3.370   6.487  17.821  0.00  0.00    +0.000 A 
ATOM     14  N   UNL     1       3.159   7.851  17.969  0.00  0.00    +0.000 N 
ATOM     15  N   UNL     1       2.554   5.624  18.435  0.00  0.00    +0.000 NA
ATOM     16  H   UNL     1       1.183   3.136  18.103  0.00  0.00    +0.000 HD
ATOM     17  H   UNL     1       3.910   8.377  17.548  0.00  0.00    +0.000 HD
BRANCH   7  19
ATOM     18  C   UNL     1       1.396   3.083  21.210  0.00  0.00    +0.000 C 
ATOM     19  C   UNL     1       1.145   3.965  19.998  0.00  0.00    +0.000 C 
ENDBRANCH   7  19
ENDBRANCH   1  14
BRANCH   4  20
ATOM     20  N   UNL     1      -1.313  10.555  20.091  0.00  0.00    +0.000 N 
ATOM     21  C   UNL     1      -1.495  11.928  20.080  0.00  0.00    +0.000 C 
ATOM     22  O   UNL     1      -0.665  12.763  19.740  0.00  0.00    +0.000 OA
ATOM     23  H   UNL     1      -2.047   9.985  20.500  0.00  0.00    +0.000 HD
BRANCH  21  24
ATOM     24  C   UNL     1      -2.825  12.403  20.529  0.00  0.00    +0.000 A 
ATOM     25  C   UNL     1      -2.979  12.887  21.831  0.00  0.00    +0.000 A 
ATOM     26  F   UNL     1      -1.944  12.900  22.686  0.00  0.00    +0.000 F 
ATOM     27  C   UNL     1      -4.206  13.360  22.292  0.00  0.00    +0.000 A 
ATOM     28  C   UNL     1      -5.307  13.361  21.442  0.00  0.00    +0.000 A 
ATOM     29  C   UNL     1      -5.173  12.887  20.137  0.00  0.00    +0.000 A 
ATOM     30  C   UNL     1      -3.938  12.409  19.674  0.00  0.00    +0.000 A 
ATOM     31 CL   UNL     1      -3.918  11.787  18.060  0.00  0.00    +0.000 Cl
ENDBRANCH  21  24
ENDBRANCH   4  20
TORSDOF 4
ENDMDL
MODEL 9
REMARK VINA RESULT:      -7.7      4.300      9.591
REMARK  Name = 
REMARK  6 active torsions:
REMARK  status: ('A' for Active; 'I' for Inactive)
REMARK    1  A    between atoms: C_1  and  C_2
REMARK    2  A    between atoms: C_2  and  N_3
REMARK    3  A    between atoms: C_6  and  C_7
REMARK    4  A    between atoms: N_10  and  C_11
REMARK    5  A    between atoms: C_14  and  N_15
REMARK    6  A    between atoms: C_16  and  C_18
REMARK                            x       y       z     vdW  Elec       q    Type
REMARK                         _______ _______ _______ _____ _____    ______ ____
ROOT
ATOM      1  C   UNL     1      -0.449  10.540  19.539  0.00  0.00    +0.000 A 
ATOM      2  C   UNL     1       0.131  10.464  18.271  0.00  0.00    +0.000 A 
ATOM      3  C   UNL     1       1.162   9.561  17.998  0.00  0.00    +0.000 A 
ATOM      4  C   UNL     1       1.642   8.703  18.987  0.00  0.00    +0.000 A 
ATOM      5  C   UNL     1       1.054   8.749  20.252  0.00  0.00    +0.000 A 
ATOM      6  C   UNL     1       0.022   9.651  20.522  0.00  0.00    +0.000 A 
ENDROOT
BRANCH   1  14
ATOM      7  N   UNL     1      -4.162  10.486  15.941  0.00  0.00    +0.000 N 
ATOM      8  C   UNL     1      -3.995  11.143  17.175  0.00  0.00    +0.000 A 
ATOM      9  C   UNL     1      -5.053  11.827  17.725  0.00  0.00    +0.000 A 
ATOM     10  C   UNL     1      -4.830  12.435  18.944  0.00  0.00    +0.000 A 
ATOM     11  C   UNL     1      -5.889  13.269  19.596  0.00  0.00    +0.000 C 
ATOM     12  N   UNL     1      -3.662  12.314  19.607  0.00  0.00    +0.000 NA
ATOM     13  C   UNL     1      -2.706  11.576  19.030  0.00  0.00    +0.000 A 
ATOM     14  N   UNL     1      -1.521  11.413  19.736  0.00  0.00    +0.000 N 
ATOM     15  N   UNL     1      -2.837  11.014  17.825  0.00  0.00    +0.000 NA
ATOM     16  H   UNL     1      -4.682   9.633  16.131  0.00  0.00    +0.000 HD
ATOM     17  H   UNL     1      -1.521  11.980  20.570  0.00  0.00    +0.000 HD
BRANCH   7  19
ATOM     18  C   UNL     1      -3.136   9.983  13.786  0.00  0.00    +0.000 C 
ATOM     19  C   UNL     1      -2.891  10.208  15.269  0.00  0.00    +0.000 C 
ENDBRANCH   7  19
ENDBRANCH   1  14
BRANCH   4  20
ATOM     20  N   UNL     1       2.712   7.807  18.792  0.00  0.00    +0.000 N 
ATOM     21  C   UNL     1       2.644   6.554  18.203  0.00  0.00    +0.000 C 
ATOM     22  O   UNL     1       1.622   5.973  17.861  0.00  0.00    +0.000 OA
ATOM     23  H   UNL     1       3.616   8.124  19.124  0.00  0.00    +0.000 HD
BRANCH  21  24
ATOM     24  C   UNL     1       3.944   5.878  17.982  0.00  0.00    +0.000 A 
ATOM     25  C   UNL     1       4.766   6.293  16.930  0.00  0.00    +0.000 A 
ATOM     26  F   UNL     1       4.378   7.276  16.102  0.00  0.00    +0.000 F 
ATOM     27  C   UNL     1       6.004   5.699  16.695  0.00  0.00    +0.000 A 
ATOM     28  C   UNL     1       6.444   4.674  17.524  0.00  0.00    +0.000 A 
ATOM     29  C   UNL     1       5.642   4.248  18.583  0.00  0.00    +0.000 A 
ATOM     30  C   UNL     1       4.394   4.845  18.818  0.00  0.00    +0.000 A 
ATOM     31 CL   UNL     1       3.466   4.183  20.120  0.00  0.00    +0.000 Cl
ENDBRANCH  21  24
ENDBRANCH   4  20
TORSDOF 4
ENDMDL
