MODEL 1
REMARK VINA RESULT:      -8.4      0.000      0.000
REMARK  Name = 
REMARK  6 active torsions:
REMARK  status: ('A' for Active; 'I' for Inactive)
REMARK    1  A    between atoms: C_1  and  N_2
REMARK    2  A    between atoms: N_2  and  C_3
REMARK    3  A    between atoms: N_2  and  S_4
REMARK    4  A    between atoms: S_4  and  C_7
REMARK    5  A    between atoms: C_10  and  C_11
REMARK    6  A    between atoms: C_16  and  C_18
REMARK                            x       y       z     vdW  Elec       q    Type
REMARK                         _______ _______ _______ _____ _____    ______ ____
ROOT
ATOM      1  C   UNL     1       3.290   6.252  18.693  0.00  0.00    +0.000 A 
ATOM      2  C   UNL     1       3.550   5.278  19.639  0.00  0.00    +0.000 A 
ATOM      3  S   UNL     1       4.500   4.023  18.935  0.00  0.00    +0.000 S 
ATOM      4  C   UNL     1       4.546   4.908  17.479  0.00  0.00    +0.000 A 
ATOM      5  N   UNL     1       5.300   4.355  16.478  0.00  0.00    +0.000 N 
ATOM      6  C   UNL     1       5.612   5.087  15.352  0.00  0.00    +0.000 C 
ATOM      7  O   UNL     1       5.284   6.253  15.141  0.00  0.00    +0.000 OA
ATOM      8  N   UNL     1       3.869   6.023  17.461  0.00  0.00    +0.000 NA
ATOM      9  H   UNL     1       5.683   3.435  16.636  0.00  0.00    +0.000 HD
ENDROOT
BRANCH   1  13
ATOM     10  C   UNL     1       0.809   9.643  19.386  0.00  0.00    +0.000 A 
ATOM     11  C   UNL     1       1.341   9.436  18.110  0.00  0.00    +0.000 A 
ATOM     12  C   UNL     1       2.156   8.326  17.872  0.00  0.00    +0.000 A 
ATOM     13  C   UNL     1       2.460   7.431  18.906  0.00  0.00    +0.000 A 
ATOM     14  C   UNL     1       1.935   7.669  20.189  0.00  0.00    +0.000 A 
ATOM     15  C   UNL     1       1.125   8.778  20.437  0.00  0.00    +0.000 A 
BRANCH  10  16
ATOM     16  S   UNL     1      -0.271  11.026  19.684  0.00  0.00    +0.000 S 
ATOM     17  O   UNL     1      -0.341  11.220  21.119  0.00  0.00    +0.000 OA
ATOM     18  O   UNL     1      -1.468  10.819  18.900  0.00  0.00    +0.000 OA
BRANCH  16  20
ATOM     19  C   UNL     1      -0.207  13.442  18.465  0.00  0.00    +0.000 C 
ATOM     20  N   UNL     1       0.594  12.331  19.008  0.00  0.00    +0.000 NA
ATOM     21  C   UNL     1       1.779  12.788  19.761  0.00  0.00    +0.000 C 
ENDBRANCH  16  20
ENDBRANCH  10  16
ENDBRANCH   1  13
BRANCH   6  22
ATOM     22  C   UNL     1       6.421   4.310  14.319  0.00  0.00    +0.000 C 
ATOM     23  C   UNL     1       5.504   3.631  13.298  0.00  0.00    +0.000 C 
ATOM     24  C   UNL     1       6.392   3.350  12.103  0.00  0.00    +0.000 C 
ATOM     25  C   UNL     1       7.469   4.429  12.125  0.00  0.00    +0.000 C 
ATOM     26  C   UNL     1       7.308   5.188  13.441  0.00  0.00    +0.000 C 
ENDBRANCH   6  22
TORSDOF 4
ENDMDL
MODEL 2
REMARK VINA RESULT:      -8.4      0.886      1.144
REMARK  Name = 
REMARK  6 active torsions:
REMARK  status: ('A' for Active; 'I' for Inactive)
REMARK    1  A    between atoms: C_1  and  N_2
REMARK    2  A    between atoms: N_2  and  C_3
REMARK    3  A    between atoms: N_2  and  S_4
REMARK    4  A    between atoms: S_4  and  C_7
REMARK    5  A    between atoms: C_10  and  C_11
REMARK    6  A    between atoms: C_16  and  C_18
REMARK                            x       y       z     vdW  Elec       q    Type
REMARK                         _______ _______ _______ _____ _____    ______ ____
ROOT
ATOM      1  C   UNL     1       3.110   5.973  18.588  0.00  0.00    +0.000 A 
ATOM      2  C   UNL     1       3.117   4.844  19.388  0.00  0.00    +0.000 A 
ATOM      3  S   UNL     1       3.942   3.564  18.580  0.00  0.00    +0.000 S 
ATOM      4  C   UNL     1       4.280   4.627  17.291  0.00  0.00    +0.000 A 
ATOM      5  N   UNL     1       5.049   4.107  16.285  0.00  0.00    +0.000 N 
ATOM      6  C   UNL     1       5.588   4.930  15.320  0.00  0.00    +0.000 C 
ATOM      7  O   UNL     1       5.462   6.152  15.268  0.00  0.00    +0.000 OA
ATOM      8  N   UNL     1       3.781   5.829  17.391  0.00  0.00    +0.000 NA
ATOM      9  H   UNL     1       5.271   3.124  16.329  0.00  0.00    +0.000 HD
ENDROOT
BRANCH   1  13
ATOM     10  C   UNL     1       1.105   9.591  19.599  0.00  0.00    +0.000 A 
ATOM     11  C   UNL     1       1.616   9.431  18.307  0.00  0.00    +0.000 A 
ATOM     12  C   UNL     1       2.276   8.248  17.965  0.00  0.00    +0.000 A 
ATOM     13  C   UNL     1       2.446   7.229  18.912  0.00  0.00    +0.000 A 
ATOM     14  C   UNL     1       1.946   7.417  20.213  0.00  0.00    +0.000 A 
ATOM     15  C   UNL     1       1.291   8.598  20.565  0.00  0.00    +0.000 A 
BRANCH  10  16
ATOM     16  S   UNL     1       0.220  11.075  20.026  0.00  0.00    +0.000 S 
ATOM     17  O   UNL     1       1.204  12.113  20.262  0.00  0.00    +0.000 OA
ATOM     18  O   UNL     1      -0.753  10.725  21.037  0.00  0.00    +0.000 OA
BRANCH  16  20
ATOM     19  C   UNL     1      -1.870  10.715  18.344  0.00  0.00    +0.000 C 
ATOM     20  N   UNL     1      -0.614  11.444  18.585  0.00  0.00    +0.000 NA
ATOM     21  C   UNL     1      -0.699  12.875  18.229  0.00  0.00    +0.000 C 
ENDBRANCH  16  20
ENDBRANCH  10  16
ENDBRANCH   1  13
BRANCH   6  22
ATOM     22  C   UNL     1       6.382   4.186  14.251  0.00  0.00    +0.000 C 
ATOM     23  C   UNL     1       5.453   3.581  13.196  0.00  0.00    +0.000 C 
ATOM     24  C   UNL     1       6.339   3.338  11.990  0.00  0.00    +0.000 C 
ATOM     25  C   UNL     1       7.441   4.389  12.069  0.00  0.00    +0.000 C 
ATOM     26  C   UNL     1       7.294   5.085  13.421  0.00  0.00    +0.000 C 
ENDBRANCH   6  22
TORSDOF 4
ENDMDL
MODEL 3
REMARK VINA RESULT:      -8.3      1.135      1.752
REMARK  Name = 
REMARK  6 active torsions:
REMARK  status: ('A' for Active; 'I' for Inactive)
REMARK    1  A    between atoms: C_1  and  N_2
REMARK    2  A    between atoms: N_2  and  C_3
REMARK    3  A    between atoms: N_2  and  S_4
REMARK    4  A    between atoms: S_4  and  C_7
REMARK    5  A    between atoms: C_10  and  C_11
REMARK    6  A    between atoms: C_16  and  C_18
REMARK                            x       y       z     vdW  Elec       q    Type
REMARK                         _______ _______ _______ _____ _____    ______ ____
ROOT
ATOM      1  C   UNL     1       3.091   6.176  18.647  0.00  0.00    +0.000 A 
ATOM      2  C   UNL     1       3.151   5.099  19.512  0.00  0.00    +0.000 A 
ATOM      3  S   UNL     1       4.010   3.803  18.767  0.00  0.00    +0.000 S 
ATOM      4  C   UNL     1       4.288   4.798  17.412  0.00  0.00    +0.000 A 
ATOM      5  N   UNL     1       5.060   4.245  16.425  0.00  0.00    +0.000 N 
ATOM      6  C   UNL     1       5.554   5.027  15.403  0.00  0.00    +0.000 C 
ATOM      7  O   UNL     1       5.383   6.238  15.281  0.00  0.00    +0.000 OA
ATOM      8  N   UNL     1       3.748   5.985  17.449  0.00  0.00    +0.000 NA
ATOM      9  H   UNL     1       5.318   3.275  16.524  0.00  0.00    +0.000 HD
ENDROOT
BRANCH   1  13
ATOM     10  C   UNL     1       1.099   9.875  19.344  0.00  0.00    +0.000 A 
ATOM     11  C   UNL     1       1.154   8.925  20.369  0.00  0.00    +0.000 A 
ATOM     12  C   UNL     1       1.805   7.708  20.150  0.00  0.00    +0.000 A 
ATOM     13  C   UNL     1       2.386   7.425  18.907  0.00  0.00    +0.000 A 
ATOM     14  C   UNL     1       2.300   8.383  17.881  0.00  0.00    +0.000 A 
ATOM     15  C   UNL     1       1.646   9.598  18.088  0.00  0.00    +0.000 A 
BRANCH  10  16
ATOM     16  S   UNL     1       0.315  11.447  19.632  0.00  0.00    +0.000 S 
ATOM     17  O   UNL     1       0.740  12.342  18.575  0.00  0.00    +0.000 OA
ATOM     18  O   UNL     1       0.517  11.785  21.023  0.00  0.00    +0.000 OA
BRANCH  16  20
ATOM     19  C   UNL     1      -2.295  12.157  19.743  0.00  0.00    +0.000 C 
ATOM     20  N   UNL     1      -1.337  11.091  19.401  0.00  0.00    +0.000 NA
ATOM     21  C   UNL     1      -1.684  10.382  18.154  0.00  0.00    +0.000 C 
ENDBRANCH  16  20
ENDBRANCH  10  16
ENDBRANCH   1  13
BRANCH   6  22
ATOM     22  C   UNL     1       6.357   4.249  14.367  0.00  0.00    +0.000 C 
ATOM     23  C   UNL     1       5.440   3.631  13.309  0.00  0.00    +0.000 C 
ATOM     24  C   UNL     1       6.344   3.349  12.126  0.00  0.00    +0.000 C 
ATOM     25  C   UNL     1       7.458   4.388  12.200  0.00  0.00    +0.000 C 
ATOM     26  C   UNL     1       7.295   5.117  13.532  0.00  0.00    +0.000 C 
ENDBRANCH   6  22
TORSDOF 4
ENDMDL
MODEL 4
REMARK VINA RESULT:      -8.2      0.601      1.148
REMARK  Name = 
REMARK  6 active torsions:
REMARK  status: ('A' for Active; 'I' for Inactive)
REMARK    1  A    between atoms: C_1  and  N_2
REMARK    2  A    between atoms: N_2  and  C_3
REMARK    3  A    between atoms: N_2  and  S_4
REMARK    4  A    between atoms: S_4  and  C_7
REMARK    5  A    between atoms: C_10  and  C_11
REMARK    6  A    between atoms: C_16  and  C_18
REMARK                            x       y       z     vdW  Elec       q    Type
REMARK                         _______ _______ _______ _____ _____    ______ ____
ROOT
ATOM      1  C   UNL     1       3.176   6.223  18.712  0.00  0.00    +0.000 A 
ATOM      2  C   UNL     1       3.365   5.211  19.635  0.00  0.00    +0.000 A 
ATOM      3  S   UNL     1       4.285   3.939  18.922  0.00  0.00    +0.000 S 
ATOM      4  C   UNL     1       4.416   4.864  17.497  0.00  0.00    +0.000 A 
ATOM      5  N   UNL     1       5.178   4.311  16.503  0.00  0.00    +0.000 N 
ATOM      6  C   UNL     1       5.557   5.062  15.412  0.00  0.00    +0.000 C 
ATOM      7  O   UNL     1       5.285   6.246  15.227  0.00  0.00    +0.000 OA
ATOM      8  N   UNL     1       3.786   6.007  17.493  0.00  0.00    +0.000 NA
ATOM      9  H   UNL     1       5.517   3.371  16.645  0.00  0.00    +0.000 HD
ENDROOT
BRANCH   1  13
ATOM     10  C   UNL     1       0.934   9.796  19.296  0.00  0.00    +0.000 A 
ATOM     11  C   UNL     1       1.119   8.923  20.373  0.00  0.00    +0.000 A 
ATOM     12  C   UNL     1       1.853   7.748  20.191  0.00  0.00    +0.000 A 
ATOM     13  C   UNL     1       2.388   7.429  18.936  0.00  0.00    +0.000 A 
ATOM     14  C   UNL     1       2.171   8.308  17.860  0.00  0.00    +0.000 A 
ATOM     15  C   UNL     1       1.434   9.481  18.030  0.00  0.00    +0.000 A 
BRANCH  10  16
ATOM     16  S   UNL     1       0.043  11.319  19.533  0.00  0.00    +0.000 S 
ATOM     17  O   UNL     1      -0.691  11.202  20.777  0.00  0.00    +0.000 OA
ATOM     18  O   UNL     1      -0.635  11.623  18.293  0.00  0.00    +0.000 OA
BRANCH  16  20
ATOM     19  C   UNL     1       1.750  13.176  18.552  0.00  0.00    +0.000 C 
ATOM     20  N   UNL     1       1.294  12.457  19.754  0.00  0.00    +0.000 NA
ATOM     21  C   UNL     1       1.181  13.328  20.940  0.00  0.00    +0.000 C 
ENDBRANCH  16  20
ENDBRANCH  10  16
ENDBRANCH   1  13
BRANCH   6  22
ATOM     22  C   UNL     1       6.367   4.283  14.381  0.00  0.00    +0.000 C 
ATOM     23  C   UNL     1       5.455   3.660  13.321  0.00  0.00    +0.000 C 
ATOM     24  C   UNL     1       6.366   3.377  12.142  0.00  0.00    +0.000 C 
ATOM     25  C   UNL     1       7.476   4.419  12.218  0.00  0.00    +0.000 C 
ATOM     26  C   UNL     1       7.306   5.151  13.548  0.00  0.00    +0.000 C 
ENDBRANCH   6  22
TORSDOF 4
ENDMDL
MODEL 5
REMARK VINA RESULT:      -8.2      1.017      1.197
REMARK  Name = 
REMARK  6 active torsions:
REMARK  status: ('A' for Active; 'I' for Inactive)
REMARK    1  A    between atoms: C_1  and  N_2
REMARK    2  A    between atoms: N_2  and  C_3
REMARK    3  A    between atoms: N_2  and  S_4
REMARK    4  A    between atoms: S_4  and  C_7
REMARK    5  A    between atoms: C_10  and  C_11
REMARK    6  A    between atoms: C_16  and  C_18
REMARK                            x       y       z     vdW  Elec       q    Type
REMARK                         _______ _______ _______ _____ _____    ______ ____
ROOT
ATOM      1  C   UNL     1       3.168   6.362  18.613  0.00  0.00    +0.000 A 
ATOM      2  C   UNL     1       3.299   5.348  19.545  0.00  0.00    +0.000 A 
ATOM      3  S   UNL     1       4.170   4.031  18.852  0.00  0.00    +0.000 S 
ATOM      4  C   UNL     1       4.360   4.940  17.423  0.00  0.00    +0.000 A 
ATOM      5  N   UNL     1       5.109   4.346  16.442  0.00  0.00    +0.000 N 
ATOM      6  C   UNL     1       5.536   5.072  15.352  0.00  0.00    +0.000 C 
ATOM      7  O   UNL     1       5.320   6.266  15.156  0.00  0.00    +0.000 OA
ATOM      8  N   UNL     1       3.783   6.111  17.404  0.00  0.00    +0.000 NA
ATOM      9  H   UNL     1       5.404   3.393  16.595  0.00  0.00    +0.000 HD
ENDROOT
BRANCH   1  13
ATOM     10  C   UNL     1       0.956   9.939  19.280  0.00  0.00    +0.000 A 
ATOM     11  C   UNL     1       1.551   9.727  18.033  0.00  0.00    +0.000 A 
ATOM     12  C   UNL     1       2.279   8.557  17.804  0.00  0.00    +0.000 A 
ATOM     13  C   UNL     1       2.433   7.604  18.820  0.00  0.00    +0.000 A 
ATOM     14  C   UNL     1       1.848   7.846  20.075  0.00  0.00    +0.000 A 
ATOM     15  C   UNL     1       1.125   9.015  20.315  0.00  0.00    +0.000 A 
BRANCH  10  16
ATOM     16  S   UNL     1      -0.014  11.404  19.563  0.00  0.00    +0.000 S 
ATOM     17  O   UNL     1      -1.396  10.988  19.701  0.00  0.00    +0.000 OA
ATOM     18  O   UNL     1       0.374  12.381  18.570  0.00  0.00    +0.000 OA
BRANCH  16  20
ATOM     19  C   UNL     1       1.384  13.143  21.095  0.00  0.00    +0.000 C 
ATOM     20  N   UNL     1       0.540  11.936  21.085  0.00  0.00    +0.000 NA
ATOM     21  C   UNL     1      -0.446  11.913  22.183  0.00  0.00    +0.000 C 
ENDBRANCH  16  20
ENDBRANCH  10  16
ENDBRANCH   1  13
BRANCH   6  22
ATOM     22  C   UNL     1       6.322   4.251  14.336  0.00  0.00    +0.000 C 
ATOM     23  C   UNL     1       5.394   3.641  13.282  0.00  0.00    +0.000 C 
ATOM     24  C   UNL     1       6.298   3.310  12.112  0.00  0.00    +0.000 C 
ATOM     25  C   UNL     1       7.442   4.315  12.175  0.00  0.00    +0.000 C 
ATOM     26  C   UNL     1       7.292   5.074  13.493  0.00  0.00    +0.000 C 
ENDBRANCH   6  22
TORSDOF 4
ENDMDL
MODEL 6
REMARK VINA RESULT:      -7.6      3.777     10.022
REMARK  Name = 
REMARK  6 active torsions:
REMARK  status: ('A' for Active; 'I' for Inactive)
REMARK    1  A    between atoms: C_1  and  N_2
REMARK    2  A    between atoms: N_2  and  C_3
REMARK    3  A    between atoms: N_2  and  S_4
REMARK    4  A    between atoms: S_4  and  C_7
REMARK    5  A    between atoms: C_10  and  C_11
REMARK    6  A    between atoms: C_16  and  C_18
REMARK                            x       y       z     vdW  Elec       q    Type
REMARK                         _______ _______ _______ _____ _____    ______ ____
ROOT
ATOM      1  C   UNL     1       1.538   8.526  19.620  0.00  0.00    +0.000 A 
ATOM      2  C   UNL     1       1.685   9.270  18.464  0.00  0.00    +0.000 A 
ATOM      3  S   UNL     1       0.875  10.782  18.639  0.00  0.00    +0.000 S 
ATOM      4  C   UNL     1       0.472  10.353  20.238  0.00  0.00    +0.000 A 
ATOM      5  N   UNL     1      -0.193  11.312  20.955  0.00  0.00    +0.000 N 
ATOM      6  C   UNL     1      -0.354  11.182  22.317  0.00  0.00    +0.000 C 
ATOM      7  O   UNL     1       0.071  10.255  23.003  0.00  0.00    +0.000 OA
ATOM      8  N   UNL     1       0.841   9.163  20.626  0.00  0.00    +0.000 NA
ATOM      9  H   UNL     1      -0.479  12.146  20.463  0.00  0.00    +0.000 HD
ENDROOT
BRANCH   1  13
ATOM     10  C   UNL     1       2.986   4.548  20.085  0.00  0.00    +0.000 A 
ATOM     11  C   UNL     1       2.042   5.041  20.991  0.00  0.00    +0.000 A 
ATOM     12  C   UNL     1       1.561   6.345  20.847  0.00  0.00    +0.000 A 
ATOM     13  C   UNL     1       2.030   7.168  19.815  0.00  0.00    +0.000 A 
ATOM     14  C   UNL     1       2.998   6.662  18.928  0.00  0.00    +0.000 A 
ATOM     15  C   UNL     1       3.489   5.364  19.067  0.00  0.00    +0.000 A 
BRANCH  10  16
ATOM     16  S   UNL     1       3.566   2.872  20.232  0.00  0.00    +0.000 S 
ATOM     17  O   UNL     1       3.175   2.392  21.542  0.00  0.00    +0.000 OA
ATOM     18  O   UNL     1       4.950   2.852  19.813  0.00  0.00    +0.000 OA
BRANCH  16  20
ATOM     19  C   UNL     1       1.199   2.351  19.028  0.00  0.00    +0.000 C 
ATOM     20  N   UNL     1       2.639   2.048  19.061  0.00  0.00    +0.000 NA
ATOM     21  C   UNL     1       3.237   1.937  17.716  0.00  0.00    +0.000 C 
ENDBRANCH  16  20
ENDBRANCH  10  16
ENDBRANCH   1  13
BRANCH   6  22
ATOM     22  C   UNL     1      -1.153  12.314  22.953  0.00  0.00    +0.000 C 
ATOM     23  C   UNL     1      -1.308  13.490  21.985  0.00  0.00    +0.000 C 
ATOM     24  C   UNL     1      -2.491  14.277  22.515  0.00  0.00    +0.000 C 
ATOM     25  C   UNL     1      -3.380  13.260  23.223  0.00  0.00    +0.000 C 
ATOM     26  C   UNL     1      -2.600  11.948  23.271  0.00  0.00    +0.000 C 
ENDBRANCH   6  22
TORSDOF 4
ENDMDL
MODEL 7
REMARK VINA RESULT:      -7.6      3.784      9.969
REMARK  Name = 
REMARK  6 active torsions:
REMARK  status: ('A' for Active; 'I' for Inactive)
REMARK    1  A    between atoms: C_1  and  N_2
REMARK    2  A    between atoms: N_2  and  C_3
REMARK    3  A    between atoms: N_2  and  S_4
REMARK    4  A    between atoms: S_4  and  C_7
REMARK    5  A    between atoms: C_10  and  C_11
REMARK    6  A    between atoms: C_16  and  C_18
REMARK                            x       y       z     vdW  Elec       q    Type
REMARK                         _______ _______ _______ _____ _____    ______ ____
ROOT
ATOM      1  C   UNL     1       1.550   8.578  19.551  0.00  0.00    +0.000 A 
ATOM      2  C   UNL     1       1.710   9.383  18.438  0.00  0.00    +0.000 A 
ATOM      3  S   UNL     1       0.910  10.889  18.692  0.00  0.00    +0.000 S 
ATOM      4  C   UNL     1       0.494  10.376  20.263  0.00  0.00    +0.000 A 
ATOM      5  N   UNL     1      -0.169  11.299  21.028  0.00  0.00    +0.000 N 
ATOM      6  C   UNL     1      -0.339  11.094  22.380  0.00  0.00    +0.000 C 
ATOM      7  O   UNL     1       0.075  10.128  23.016  0.00  0.00    +0.000 OA
ATOM      8  N   UNL     1       0.851   9.164  20.586  0.00  0.00    +0.000 NA
ATOM      9  H   UNL     1      -0.446  12.161  20.582  0.00  0.00    +0.000 HD
ENDROOT
BRANCH   1  13
ATOM     10  C   UNL     1       2.950   4.582  20.009  0.00  0.00    +0.000 A 
ATOM     11  C   UNL     1       3.417   5.350  18.939  0.00  0.00    +0.000 A 
ATOM     12  C   UNL     1       2.964   6.663  18.779  0.00  0.00    +0.000 A 
ATOM     13  C   UNL     1       2.032   7.207  19.672  0.00  0.00    +0.000 A 
ATOM     14  C   UNL     1       1.555   6.411  20.729  0.00  0.00    +0.000 A 
ATOM     15  C   UNL     1       1.997   5.097  20.892  0.00  0.00    +0.000 A 
BRANCH  10  16
ATOM     16  S   UNL     1       3.561   2.927  20.247  0.00  0.00    +0.000 S 
ATOM     17  O   UNL     1       3.143   2.497  21.567  0.00  0.00    +0.000 OA
ATOM     18  O   UNL     1       4.956   2.920  19.867  0.00  0.00    +0.000 OA
BRANCH  16  20
ATOM     19  C   UNL     1       1.245   2.319  18.986  0.00  0.00    +0.000 C 
ATOM     20  N   UNL     1       2.685   2.032  19.089  0.00  0.00    +0.000 NA
ATOM     21  C   UNL     1       3.334   1.854  17.775  0.00  0.00    +0.000 C 
ENDBRANCH  16  20
ENDBRANCH  10  16
ENDBRANCH   1  13
BRANCH   6  22
ATOM     22  C   UNL     1      -1.133  12.196  23.073  0.00  0.00    +0.000 C 
ATOM     23  C   UNL     1      -0.748  13.576  22.534  0.00  0.00    +0.000 C 
ATOM     24  C   UNL     1      -1.909  14.477  22.906  0.00  0.00    +0.000 C 
ATOM     25  C   UNL     1      -3.137  13.573  22.949  0.00  0.00    +0.000 C 
ATOM     26  C   UNL     1      -2.635  12.138  22.806  0.00  0.00    +0.000 C 
ENDBRANCH   6  22
TORSDOF 4
ENDMDL
MODEL 8
REMARK VINA RESULT:      -7.5      3.446     10.087
REMARK  Name = 
REMARK  6 active torsions:
REMARK  status: ('A' for Active; 'I' for Inactive)
REMARK    1  A    between atoms: C_1  and  N_2
REMARK    2  A    between atoms: N_2  and  C_3
REMARK    3  A    between atoms: N_2  and  S_4
REMARK    4  A    between atoms: S_4  and  C_7
REMARK    5  A    between atoms: C_10  and  C_11
REMARK    6  A    between atoms: C_16  and  C_18
REMARK                            x       y       z     vdW  Elec       q    Type
REMARK                         _______ _______ _______ _____ _____    ______ ____
ROOT
ATOM      1  C   UNL     1       1.224   9.180  19.073  0.00  0.00    +0.000 A 
ATOM      2  C   UNL     1       0.868   9.982  18.003  0.00  0.00    +0.000 A 
ATOM      3  S   UNL     1      -0.216  11.213  18.535  0.00  0.00    +0.000 S 
ATOM      4  C   UNL     1      -0.060  10.628  20.129  0.00  0.00    +0.000 A 
ATOM      5  N   UNL     1      -0.728  11.344  21.086  0.00  0.00    +0.000 N 
ATOM      6  C   UNL     1      -0.483  11.121  22.424  0.00  0.00    +0.000 C 
ATOM      7  O   UNL     1       0.326  10.315  22.880  0.00  0.00    +0.000 OA
ATOM      8  N   UNL     1       0.683   9.566  20.282  0.00  0.00    +0.000 NA
ATOM      9  H   UNL     1      -1.332  12.089  20.774  0.00  0.00    +0.000 HD
ENDROOT
BRANCH   1  13
ATOM     10  C   UNL     1       3.688   5.724  18.731  0.00  0.00    +0.000 A 
ATOM     11  C   UNL     1       2.897   5.888  19.872  0.00  0.00    +0.000 A 
ATOM     12  C   UNL     1       2.084   7.019  19.994  0.00  0.00    +0.000 A 
ATOM     13  C   UNL     1       2.072   7.998  18.991  0.00  0.00    +0.000 A 
ATOM     14  C   UNL     1       2.893   7.827  17.862  0.00  0.00    +0.000 A 
ATOM     15  C   UNL     1       3.712   6.704  17.735  0.00  0.00    +0.000 A 
BRANCH  10  16
ATOM     16  S   UNL     1       4.687   4.263  18.547  0.00  0.00    +0.000 S 
ATOM     17  O   UNL     1       5.855   4.428  19.389  0.00  0.00    +0.000 OA
ATOM     18  O   UNL     1       4.819   4.002  17.131  0.00  0.00    +0.000 OA
BRANCH  16  20
ATOM     19  C   UNL     1       2.863   2.279  18.293  0.00  0.00    +0.000 C 
ATOM     20  N   UNL     1       3.704   3.046  19.228  0.00  0.00    +0.000 NA
ATOM     21  C   UNL     1       4.332   2.204  20.264  0.00  0.00    +0.000 C 
ENDBRANCH  16  20
ENDBRANCH  10  16
ENDBRANCH   1  13
BRANCH   6  22
ATOM     22  C   UNL     1      -1.340  11.970  23.356  0.00  0.00    +0.000 C 
ATOM     23  C   UNL     1      -1.086  13.463  23.130  0.00  0.00    +0.000 C 
ATOM     24  C   UNL     1      -2.302  14.157  23.709  0.00  0.00    +0.000 C 
ATOM     25  C   UNL     1      -3.451  13.164  23.569  0.00  0.00    +0.000 C 
ATOM     26  C   UNL     1      -2.840  11.844  23.105  0.00  0.00    +0.000 C 
ENDBRANCH   6  22
TORSDOF 4
ENDMDL
MODEL 9
REMARK VINA RESULT:      -7.5      3.048      9.990
REMARK  Name = 
REMARK  6 active torsions:
REMARK  status: ('A' for Active; 'I' for Inactive)
REMARK    1  A    between atoms: C_1  and  N_2
REMARK    2  A    between atoms: N_2  and  C_3
REMARK    3  A    between atoms: N_2  and  S_4
REMARK    4  A    between atoms: S_4  and  C_7
REMARK    5  A    between atoms: C_10  and  C_11
REMARK    6  A    between atoms: C_16  and  C_18
REMARK                            x       y       z     vdW  Elec       q    Type
REMARK                         _______ _______ _______ _____ _____    ______ ____
ROOT
ATOM      1  C   UNL     1       1.341   9.028  18.977  0.00  0.00    +0.000 A 
ATOM      2  C   UNL     1       0.941   9.799  17.900  0.00  0.00    +0.000 A 
ATOM      3  S   UNL     1      -0.144  11.026  18.436  0.00  0.00    +0.000 S 
ATOM      4  C   UNL     1       0.068  10.483  20.037  0.00  0.00    +0.000 A 
ATOM      5  N   UNL     1      -0.581  11.211  20.998  0.00  0.00    +0.000 N 
ATOM      6  C   UNL     1      -0.293  11.023  22.332  0.00  0.00    +0.000 C 
ATOM      7  O   UNL     1       0.541  10.241  22.782  0.00  0.00    +0.000 OA
ATOM      8  N   UNL     1       0.831   9.435  20.193  0.00  0.00    +0.000 NA
ATOM      9  H   UNL     1      -1.206  11.940  20.687  0.00  0.00    +0.000 HD
ENDROOT
BRANCH   1  13
ATOM     10  C   UNL     1       3.851   5.605  18.641  0.00  0.00    +0.000 A 
ATOM     11  C   UNL     1       3.030   5.741  19.764  0.00  0.00    +0.000 A 
ATOM     12  C   UNL     1       2.203   6.861  19.884  0.00  0.00    +0.000 A 
ATOM     13  C   UNL     1       2.204   7.856  18.898  0.00  0.00    +0.000 A 
ATOM     14  C   UNL     1       3.054   7.713  17.787  0.00  0.00    +0.000 A 
ATOM     15  C   UNL     1       3.889   6.602  17.662  0.00  0.00    +0.000 A 
BRANCH  10  16
ATOM     16  S   UNL     1       4.871   4.157  18.458  0.00  0.00    +0.000 S 
ATOM     17  O   UNL     1       4.016   3.082  17.995  0.00  0.00    +0.000 OA
ATOM     18  O   UNL     1       5.653   4.021  19.666  0.00  0.00    +0.000 OA
BRANCH  16  20
ATOM     19  C   UNL     1       7.344   4.740  17.528  0.00  0.00    +0.000 C 
ATOM     20  N   UNL     1       5.920   4.593  17.186  0.00  0.00    +0.000 NA
ATOM     21  C   UNL     1       5.703   3.907  15.897  0.00  0.00    +0.000 C 
ENDBRANCH  16  20
ENDBRANCH  10  16
ENDBRANCH   1  13
BRANCH   6  22
ATOM     22  C   UNL     1      -1.134  11.883  23.270  0.00  0.00    +0.000 C 
ATOM     23  C   UNL     1      -0.922  13.373  22.990  0.00  0.00    +0.000 C 
ATOM     24  C   UNL     1      -2.132  14.058  23.593  0.00  0.00    +0.000 C 
ATOM     25  C   UNL     1      -3.262  13.037  23.526  0.00  0.00    +0.000 C 
ATOM     26  C   UNL     1      -2.639  11.716  23.078  0.00  0.00    +0.000 C 
ENDBRANCH   6  22
TORSDOF 4
ENDMDL
