MODEL 1
REMARK VINA RESULT:      -7.7      0.000      0.000
REMARK  Name = 
REMARK  12 active torsions:
REMARK  status: ('A' for Active; 'I' for Inactive)
REMARK    1  A    between atoms: C_1  and  C_2
REMARK    2  A    between atoms: C_2  and  C_3
REMARK    3  A    between atoms: C_3  and  C_4
REMARK    4  A    between atoms: C_4  and  C_5
REMARK    5  A    between atoms: C_6  and  C_7
REMARK    6  A    between atoms: C_11  and  O_12
REMARK    7  A    between atoms: O_12  and  C_13
REMARK    8  A    between atoms: N_17  and  C_18
REMARK    9  A    between atoms: C_18  and  C_19
REMARK   10  A    between atoms: C_19  and  C_20
REMARK   11  A    between atoms: C_25  and  O_26
REMARK   12  A    between atoms: O_26  and  C_27
REMARK                            x       y       z     vdW  Elec       q    Type
REMARK                         _______ _______ _______ _____ _____    ______ ____
ROOT
ATOM      1  C   UNL     1       2.630   6.376  19.588  0.00  0.00    +0.000 A 
ATOM      2  C   UNL     1       2.370   7.597  18.962  0.00  0.00    +0.000 A 
ATOM      3  N   UNL     1       3.225   7.799  17.907  0.00  0.00    +0.000 NA
ATOM      4  C   UNL     1       4.015   6.758  17.884  0.00  0.00    +0.000 A 
ATOM      5  N   UNL     1       3.703   5.863  18.866  0.00  0.00    +0.000 N 
ENDROOT
BRANCH   2   6
ATOM      6  C   UNL     1       1.355   8.595  19.272  0.00  0.00    +0.000 A 
ATOM      7  C   UNL     1       0.823   9.371  18.230  0.00  0.00    +0.000 A 
ATOM      8  C   UNL     1      -0.067  10.410  18.499  0.00  0.00    +0.000 A 
ATOM      9  C   UNL     1      -0.448  10.672  19.813  0.00  0.00    +0.000 A 
ATOM     10  C   UNL     1       0.058   9.904  20.862  0.00  0.00    +0.000 A 
ATOM     11  C   UNL     1       0.973   8.883  20.588  0.00  0.00    +0.000 A 
BRANCH  10  12
ATOM     12  O   UNL     1      -0.387  10.259  22.107  0.00  0.00    +0.000 OA
ATOM     13  C   UNL     1      -1.046  11.515  22.214  0.00  0.00    +0.000 C 
ENDBRANCH  10  12
ENDBRANCH   2   6
BRANCH   1  14
ATOM     14  C   UNL     1       1.904   5.666  20.697  0.00  0.00    +0.000 C 
BRANCH  14  15
ATOM     15  C   UNL     1       0.835   4.638  20.313  0.00  0.00    +0.000 C 
BRANCH  15  17
ATOM     16  C   UNL     1       2.087   2.983  21.731  0.00  0.00    +0.000 C 
ATOM     17  C   UNL     1       1.260   3.176  20.466  0.00  0.00    +0.000 C 
ENDBRANCH  15  17
ENDBRANCH  14  15
ENDBRANCH   1  14
BRANCH   5  18
ATOM     18  C   UNL     1       4.371   4.588  19.080  0.00  0.00    +0.000 C 
BRANCH  18  19
ATOM     19  C   UNL     1       4.465   3.653  17.871  0.00  0.00    +0.000 C 
BRANCH  19  20
ATOM     20  C   UNL     1       5.372   4.082  16.737  0.00  0.00    +0.000 A 
ATOM     21  C   UNL     1       4.890   4.103  15.410  0.00  0.00    +0.000 A 
ATOM     22  C   UNL     1       5.705   4.476  14.341  0.00  0.00    +0.000 A 
ATOM     23  C   UNL     1       7.017   4.860  14.571  0.00  0.00    +0.000 A 
ATOM     24  C   UNL     1       7.511   4.863  15.875  0.00  0.00    +0.000 A 
ATOM     25  C   UNL     1       6.703   4.488  16.959  0.00  0.00    +0.000 A 
BRANCH  25  26
ATOM     26  O   UNL     1       7.383   4.443  18.147  0.00  0.00    +0.000 OA
ATOM     27  C   UNL     1       7.723   5.677  18.767  0.00  0.00    +0.000 C 
ENDBRANCH  25  26
ENDBRANCH  19  20
ENDBRANCH  18  19
ENDBRANCH   5  18
TORSDOF 9
ENDMDL
MODEL 2
REMARK VINA RESULT:      -7.7      1.959      3.701
REMARK  Name = 
REMARK  12 active torsions:
REMARK  status: ('A' for Active; 'I' for Inactive)
REMARK    1  A    between atoms: C_1  and  C_2
REMARK    2  A    between atoms: C_2  and  C_3
REMARK    3  A    between atoms: C_3  and  C_4
REMARK    4  A    between atoms: C_4  and  C_5
REMARK    5  A    between atoms: C_6  and  C_7
REMARK    6  A    between atoms: C_11  and  O_12
REMARK    7  A    between atoms: O_12  and  C_13
REMARK    8  A    between atoms: N_17  and  C_18
REMARK    9  A    between atoms: C_18  and  C_19
REMARK   10  A    between atoms: C_19  and  C_20
REMARK   11  A    between atoms: C_25  and  O_26
REMARK   12  A    between atoms: O_26  and  C_27
REMARK                            x       y       z     vdW  Elec       q    Type
REMARK                         _______ _______ _______ _____ _____    ______ ____
ROOT
ATOM      1  C   UNL     1       1.529   8.442  19.700  0.00  0.00    +0.000 A 
ATOM      2  C   UNL     1       1.282   9.500  18.824  0.00  0.00    +0.000 A 
ATOM      3  N   UNL     1       1.922   9.305  17.625  0.00  0.00    +0.000 NA
ATOM      4  C   UNL     1       2.573   8.178  17.749  0.00  0.00    +0.000 A 
ATOM      5  N   UNL     1       2.371   7.607  18.972  0.00  0.00    +0.000 N 
ENDROOT
BRANCH   2   6
ATOM      6  C   UNL     1       0.465  10.690  19.022  0.00  0.00    +0.000 A 
ATOM      7  C   UNL     1       1.069  11.857  19.515  0.00  0.00    +0.000 A 
ATOM      8  C   UNL     1       0.304  12.982  19.822  0.00  0.00    +0.000 A 
ATOM      9  C   UNL     1      -1.075  12.955  19.622  0.00  0.00    +0.000 A 
ATOM     10  C   UNL     1      -1.694  11.810  19.120  0.00  0.00    +0.000 A 
ATOM     11  C   UNL     1      -0.925  10.676  18.843  0.00  0.00    +0.000 A 
BRANCH  10  12
ATOM     12  O   UNL     1      -3.052  11.905  18.972  0.00  0.00    +0.000 OA
ATOM     13  C   UNL     1      -3.602  11.369  17.774  0.00  0.00    +0.000 C 
ENDBRANCH  10  12
ENDBRANCH   2   6
BRANCH   1  14
ATOM     14  C   UNL     1       0.970   8.144  21.064  0.00  0.00    +0.000 C 
BRANCH  14  15
ATOM     15  C   UNL     1       1.244   9.148  22.188  0.00  0.00    +0.000 C 
BRANCH  15  17
ATOM     16  C   UNL     1      -0.696  10.677  22.653  0.00  0.00    +0.000 C 
ATOM     17  C   UNL     1       0.054   9.430  23.107  0.00  0.00    +0.000 C 
ENDBRANCH  15  17
ENDBRANCH  14  15
ENDBRANCH   1  14
BRANCH   5  18
ATOM     18  C   UNL     1       2.926   6.333  19.404  0.00  0.00    +0.000 C 
BRANCH  18  19
ATOM     19  C   UNL     1       3.433   5.398  18.302  0.00  0.00    +0.000 C 
BRANCH  19  20
ATOM     20  C   UNL     1       4.932   5.228  18.178  0.00  0.00    +0.000 A 
ATOM     21  C   UNL     1       5.771   5.488  19.283  0.00  0.00    +0.000 A 
ATOM     22  C   UNL     1       7.157   5.357  19.196  0.00  0.00    +0.000 A 
ATOM     23  C   UNL     1       7.741   4.942  18.010  0.00  0.00    +0.000 A 
ATOM     24  C   UNL     1       6.932   4.663  16.909  0.00  0.00    +0.000 A 
ATOM     25  C   UNL     1       5.537   4.792  16.982  0.00  0.00    +0.000 A 
BRANCH  25  26
ATOM     26  O   UNL     1       4.913   4.587  15.780  0.00  0.00    +0.000 OA
ATOM     27  C   UNL     1       5.715   4.194  14.673  0.00  0.00    +0.000 C 
ENDBRANCH  25  26
ENDBRANCH  19  20
ENDBRANCH  18  19
ENDBRANCH   5  18
TORSDOF 9
ENDMDL
MODEL 3
REMARK VINA RESULT:      -7.6      4.181      6.844
REMARK  Name = 
REMARK  12 active torsions:
REMARK  status: ('A' for Active; 'I' for Inactive)
REMARK    1  A    between atoms: C_1  and  C_2
REMARK    2  A    between atoms: C_2  and  C_3
REMARK    3  A    between atoms: C_3  and  C_4
REMARK    4  A    between atoms: C_4  and  C_5
REMARK    5  A    between atoms: C_6  and  C_7
REMARK    6  A    between atoms: C_11  and  O_12
REMARK    7  A    between atoms: O_12  and  C_13
REMARK    8  A    between atoms: N_17  and  C_18
REMARK    9  A    between atoms: C_18  and  C_19
REMARK   10  A    between atoms: C_19  and  C_20
REMARK   11  A    between atoms: C_25  and  O_26
REMARK   12  A    between atoms: O_26  and  C_27
REMARK                            x       y       z     vdW  Elec       q    Type
REMARK                         _______ _______ _______ _____ _____    ______ ____
ROOT
ATOM      1  C   UNL     1       6.009   6.353  17.810  0.00  0.00    +0.000 A 
ATOM      2  C   UNL     1       6.031   5.181  18.568  0.00  0.00    +0.000 A 
ATOM      3  N   UNL     1       7.204   5.073  19.273  0.00  0.00    +0.000 NA
ATOM      4  C   UNL     1       7.910   6.125  18.951  0.00  0.00    +0.000 A 
ATOM      5  N   UNL     1       7.243   6.937  18.079  0.00  0.00    +0.000 N 
ENDROOT
BRANCH   2   6
ATOM      6  C   UNL     1       5.012   4.147  18.697  0.00  0.00    +0.000 A 
ATOM      7  C   UNL     1       4.494   3.553  17.536  0.00  0.00    +0.000 A 
ATOM      8  C   UNL     1       3.442   2.640  17.610  0.00  0.00    +0.000 A 
ATOM      9  C   UNL     1       2.909   2.300  18.851  0.00  0.00    +0.000 A 
ATOM     10  C   UNL     1       3.418   2.869  20.019  0.00  0.00    +0.000 A 
ATOM     11  C   UNL     1       4.453   3.805  19.935  0.00  0.00    +0.000 A 
BRANCH  10  12
ATOM     12  O   UNL     1       2.810   2.458  21.175  0.00  0.00    +0.000 OA
ATOM     13  C   UNL     1       1.423   2.749  21.304  0.00  0.00    +0.000 C 
ENDBRANCH  10  12
ENDBRANCH   2   6
BRANCH   1  14
ATOM     14  C   UNL     1       4.917   6.965  16.975  0.00  0.00    +0.000 C 
BRANCH  14  15
ATOM     15  C   UNL     1       3.757   7.651  17.702  0.00  0.00    +0.000 C 
BRANCH  15  17
ATOM     16  C   UNL     1       2.387   6.740  19.602  0.00  0.00    +0.000 C 
ATOM     17  C   UNL     1       2.603   6.727  18.094  0.00  0.00    +0.000 C 
ENDBRANCH  15  17
ENDBRANCH  14  15
ENDBRANCH   1  14
BRANCH   5  18
ATOM     18  C   UNL     1       7.744   8.201  17.561  0.00  0.00    +0.000 C 
BRANCH  18  19
ATOM     19  C   UNL     1       8.642   9.017  18.496  0.00  0.00    +0.000 C 
BRANCH  19  20
ATOM     20  C   UNL     1       8.729  10.506  18.243  0.00  0.00    +0.000 A 
ATOM     21  C   UNL     1       7.748  11.154  17.460  0.00  0.00    +0.000 A 
ATOM     22  C   UNL     1       7.810  12.522  17.194  0.00  0.00    +0.000 A 
ATOM     23  C   UNL     1       8.841  13.285  17.720  0.00  0.00    +0.000 A 
ATOM     24  C   UNL     1       9.812  12.671  18.510  0.00  0.00    +0.000 A 
ATOM     25  C   UNL     1       9.763  11.296  18.785  0.00  0.00    +0.000 A 
BRANCH  25  26
ATOM     26  O   UNL     1      10.855  10.846  19.480  0.00  0.00    +0.000 OA
ATOM     27  C   UNL     1      11.968  11.721  19.609  0.00  0.00    +0.000 C 
ENDBRANCH  25  26
ENDBRANCH  19  20
ENDBRANCH  18  19
ENDBRANCH   5  18
TORSDOF 9
ENDMDL
MODEL 4
REMARK VINA RESULT:      -7.6      2.036      4.266
REMARK  Name = 
REMARK  12 active torsions:
REMARK  status: ('A' for Active; 'I' for Inactive)
REMARK    1  A    between atoms: C_1  and  C_2
REMARK    2  A    between atoms: C_2  and  C_3
REMARK    3  A    between atoms: C_3  and  C_4
REMARK    4  A    between atoms: C_4  and  C_5
REMARK    5  A    between atoms: C_6  and  C_7
REMARK    6  A    between atoms: C_11  and  O_12
REMARK    7  A    between atoms: O_12  and  C_13
REMARK    8  A    between atoms: N_17  and  C_18
REMARK    9  A    between atoms: C_18  and  C_19
REMARK   10  A    between atoms: C_19  and  C_20
REMARK   11  A    between atoms: C_25  and  O_26
REMARK   12  A    between atoms: O_26  and  C_27
REMARK                            x       y       z     vdW  Elec       q    Type
REMARK                         _______ _______ _______ _____ _____    ______ ____
ROOT
ATOM      1  C   UNL     1       1.360   8.893  19.921  0.00  0.00    +0.000 A 
ATOM      2  C   UNL     1       0.867   9.953  19.157  0.00  0.00    +0.000 A 
ATOM      3  N   UNL     1       1.230   9.819  17.840  0.00  0.00    +0.000 NA
ATOM      4  C   UNL     1       1.949   8.730  17.778  0.00  0.00    +0.000 A 
ATOM      5  N   UNL     1       2.059   8.124  18.996  0.00  0.00    +0.000 N 
ENDROOT
BRANCH   2   6
ATOM      6  C   UNL     1       0.055  11.090  19.571  0.00  0.00    +0.000 A 
ATOM      7  C   UNL     1       0.655  12.124  20.307  0.00  0.00    +0.000 A 
ATOM      8  C   UNL     1      -0.110  13.173  20.816  0.00  0.00    +0.000 A 
ATOM      9  C   UNL     1      -1.482  13.207  20.579  0.00  0.00    +0.000 A 
ATOM     10  C   UNL     1      -2.097  12.196  19.839  0.00  0.00    +0.000 A 
ATOM     11  C   UNL     1      -1.329  11.132  19.357  0.00  0.00    +0.000 A 
BRANCH  10  12
ATOM     12  O   UNL     1      -3.449  12.338  19.678  0.00  0.00    +0.000 OA
ATOM     13  C   UNL     1      -4.025  11.711  18.538  0.00  0.00    +0.000 C 
ENDBRANCH  10  12
ENDBRANCH   2   6
BRANCH   1  14
ATOM     14  C   UNL     1       1.138   8.536  21.365  0.00  0.00    +0.000 C 
BRANCH  14  15
ATOM     15  C   UNL     1      -0.233   8.836  21.977  0.00  0.00    +0.000 C 
BRANCH  15  17
ATOM     16  C   UNL     1      -1.334  10.727  23.213  0.00  0.00    +0.000 C 
ATOM     17  C   UNL     1      -0.203   9.707  23.234  0.00  0.00    +0.000 C 
ENDBRANCH  15  17
ENDBRANCH  14  15
ENDBRANCH   1  14
BRANCH   5  18
ATOM     18  C   UNL     1       2.762   6.875  19.251  0.00  0.00    +0.000 C 
BRANCH  18  19
ATOM     19  C   UNL     1       3.138   6.039  18.025  0.00  0.00    +0.000 C 
BRANCH  19  20
ATOM     20  C   UNL     1       2.834   4.557  18.081  0.00  0.00    +0.000 A 
ATOM     21  C   UNL     1       1.545   4.109  18.444  0.00  0.00    +0.000 A 
ATOM     22  C   UNL     1       1.238   2.750  18.522  0.00  0.00    +0.000 A 
ATOM     23  C   UNL     1       2.203   1.803  18.219  0.00  0.00    +0.000 A 
ATOM     24  C   UNL     1       3.479   2.221  17.843  0.00  0.00    +0.000 A 
ATOM     25  C   UNL     1       3.802   3.584  17.762  0.00  0.00    +0.000 A 
BRANCH  25  26
ATOM     26  O   UNL     1       5.125   3.808  17.487  0.00  0.00    +0.000 OA
ATOM     27  C   UNL     1       5.513   3.917  16.124  0.00  0.00    +0.000 C 
ENDBRANCH  25  26
ENDBRANCH  19  20
ENDBRANCH  18  19
ENDBRANCH   5  18
TORSDOF 9
ENDMDL
MODEL 5
REMARK VINA RESULT:      -7.5      1.606      8.084
REMARK  Name = 
REMARK  12 active torsions:
REMARK  status: ('A' for Active; 'I' for Inactive)
REMARK    1  A    between atoms: C_1  and  C_2
REMARK    2  A    between atoms: C_2  and  C_3
REMARK    3  A    between atoms: C_3  and  C_4
REMARK    4  A    between atoms: C_4  and  C_5
REMARK    5  A    between atoms: C_6  and  C_7
REMARK    6  A    between atoms: C_11  and  O_12
REMARK    7  A    between atoms: O_12  and  C_13
REMARK    8  A    between atoms: N_17  and  C_18
REMARK    9  A    between atoms: C_18  and  C_19
REMARK   10  A    between atoms: C_19  and  C_20
REMARK   11  A    between atoms: C_25  and  O_26
REMARK   12  A    between atoms: O_26  and  C_27
REMARK                            x       y       z     vdW  Elec       q    Type
REMARK                         _______ _______ _______ _____ _____    ______ ____
ROOT
ATOM      1  C   UNL     1       2.313   6.619  19.785  0.00  0.00    +0.000 A 
ATOM      2  C   UNL     1       2.850   6.874  18.521  0.00  0.00    +0.000 A 
ATOM      3  N   UNL     1       2.667   8.187  18.166  0.00  0.00    +0.000 NA
ATOM      4  C   UNL     1       2.012   8.735  19.156  0.00  0.00    +0.000 A 
ATOM      5  N   UNL     1       1.776   7.845  20.163  0.00  0.00    +0.000 N 
ENDROOT
BRANCH   2   6
ATOM      6  C   UNL     1       3.549   5.970  17.616  0.00  0.00    +0.000 A 
ATOM      7  C   UNL     1       3.250   4.600  17.657  0.00  0.00    +0.000 A 
ATOM      8  C   UNL     1       3.973   3.689  16.886  0.00  0.00    +0.000 A 
ATOM      9  C   UNL     1       4.992   4.145  16.053  0.00  0.00    +0.000 A 
ATOM     10  C   UNL     1       5.296   5.505  15.987  0.00  0.00    +0.000 A 
ATOM     11  C   UNL     1       4.588   6.408  16.784  0.00  0.00    +0.000 A 
BRANCH  10  12
ATOM     12  O   UNL     1       6.319   5.828  15.136  0.00  0.00    +0.000 OA
ATOM     13  C   UNL     1       7.081   4.746  14.615  0.00  0.00    +0.000 C 
ENDBRANCH  10  12
ENDBRANCH   2   6
BRANCH   1  14
ATOM     14  C   UNL     1       2.363   5.384  20.643  0.00  0.00    +0.000 C 
BRANCH  14  15
ATOM     15  C   UNL     1       1.151   4.448  20.625  0.00  0.00    +0.000 C 
BRANCH  15  17
ATOM     16  C   UNL     1       2.936   2.714  20.980  0.00  0.00    +0.000 C 
ATOM     17  C   UNL     1       1.488   2.956  20.573  0.00  0.00    +0.000 C 
ENDBRANCH  15  17
ENDBRANCH  14  15
ENDBRANCH   1  14
BRANCH   5  18
ATOM     18  C   UNL     1       1.105   8.155  21.416  0.00  0.00    +0.000 C 
BRANCH  18  19
ATOM     19  C   UNL     1      -0.371   8.556  21.322  0.00  0.00    +0.000 C 
BRANCH  19  20
ATOM     20  C   UNL     1      -0.700  10.022  21.504  0.00  0.00    +0.000 A 
ATOM     21  C   UNL     1      -0.775  10.579  22.800  0.00  0.00    +0.000 A 
ATOM     22  C   UNL     1      -1.093  11.922  23.002  0.00  0.00    +0.000 A 
ATOM     23  C   UNL     1      -1.323  12.751  21.915  0.00  0.00    +0.000 A 
ATOM     24  C   UNL     1      -1.239  12.228  20.625  0.00  0.00    +0.000 A 
ATOM     25  C   UNL     1      -0.922  10.879  20.407  0.00  0.00    +0.000 A 
BRANCH  25  26
ATOM     26  O   UNL     1      -0.993  10.515  19.088  0.00  0.00    +0.000 OA
ATOM     27  C   UNL     1      -1.227  11.537  18.128  0.00  0.00    +0.000 C 
ENDBRANCH  25  26
ENDBRANCH  19  20
ENDBRANCH  18  19
ENDBRANCH   5  18
TORSDOF 9
ENDMDL
MODEL 6
REMARK VINA RESULT:      -7.5      2.430      4.755
REMARK  Name = 
REMARK  12 active torsions:
REMARK  status: ('A' for Active; 'I' for Inactive)
REMARK    1  A    between atoms: C_1  and  C_2
REMARK    2  A    between atoms: C_2  and  C_3
REMARK    3  A    between atoms: C_3  and  C_4
REMARK    4  A    between atoms: C_4  and  C_5
REMARK    5  A    between atoms: C_6  and  C_7
REMARK    6  A    between atoms: C_11  and  O_12
REMARK    7  A    between atoms: O_12  and  C_13
REMARK    8  A    between atoms: N_17  and  C_18
REMARK    9  A    between atoms: C_18  and  C_19
REMARK   10  A    between atoms: C_19  and  C_20
REMARK   11  A    between atoms: C_25  and  O_26
REMARK   12  A    between atoms: O_26  and  C_27
REMARK                            x       y       z     vdW  Elec       q    Type
REMARK                         _______ _______ _______ _____ _____    ______ ____
ROOT
ATOM      1  C   UNL     1       1.175   8.994  19.742  0.00  0.00    +0.000 A 
ATOM      2  C   UNL     1       0.798  10.112  18.996  0.00  0.00    +0.000 A 
ATOM      3  N   UNL     1       1.410  10.111  17.767  0.00  0.00    +0.000 NA
ATOM      4  C   UNL     1       2.169   9.047  17.748  0.00  0.00    +0.000 A 
ATOM      5  N   UNL     1       2.066   8.330  18.905  0.00  0.00    +0.000 N 
ENDROOT
BRANCH   2   6
ATOM      6  C   UNL     1      -0.120  11.188  19.345  0.00  0.00    +0.000 A 
ATOM      7  C   UNL     1       0.367  12.295  20.057  0.00  0.00    +0.000 A 
ATOM      8  C   UNL     1      -0.499  13.292  20.506  0.00  0.00    +0.000 A 
ATOM      9  C   UNL     1      -1.861  13.198  20.232  0.00  0.00    +0.000 A 
ATOM     10  C   UNL     1      -2.365  12.113  19.514  0.00  0.00    +0.000 A 
ATOM     11  C   UNL     1      -1.496  11.102  19.093  0.00  0.00    +0.000 A 
BRANCH  10  12
ATOM     12  O   UNL     1      -3.719  12.132  19.311  0.00  0.00    +0.000 OA
ATOM     13  C   UNL     1      -4.197  11.491  18.135  0.00  0.00    +0.000 C 
ENDBRANCH  10  12
ENDBRANCH   2   6
BRANCH   1  14
ATOM     14  C   UNL     1       0.696   8.497  21.079  0.00  0.00    +0.000 C 
BRANCH  14  15
ATOM     15  C   UNL     1       1.135   9.264  22.330  0.00  0.00    +0.000 C 
BRANCH  15  17
ATOM     16  C   UNL     1      -0.940  10.528  22.972  0.00  0.00    +0.000 C 
ATOM     17  C   UNL     1       0.047   9.447  23.390  0.00  0.00    +0.000 C 
ENDBRANCH  15  17
ENDBRANCH  14  15
ENDBRANCH   1  14
BRANCH   5  18
ATOM     18  C   UNL     1       2.754   7.077  19.179  0.00  0.00    +0.000 C 
BRANCH  18  19
ATOM     19  C   UNL     1       2.025   5.793  18.771  0.00  0.00    +0.000 C 
BRANCH  19  20
ATOM     20  C   UNL     1       2.226   4.577  19.649  0.00  0.00    +0.000 A 
ATOM     21  C   UNL     1       1.283   4.259  20.651  0.00  0.00    +0.000 A 
ATOM     22  C   UNL     1       1.448   3.155  21.488  0.00  0.00    +0.000 A 
ATOM     23  C   UNL     1       2.548   2.327  21.334  0.00  0.00    +0.000 A 
ATOM     24  C   UNL     1       3.485   2.610  20.341  0.00  0.00    +0.000 A 
ATOM     25  C   UNL     1       3.333   3.718  19.493  0.00  0.00    +0.000 A 
BRANCH  25  26
ATOM     26  O   UNL     1       4.400   3.906  18.655  0.00  0.00    +0.000 OA
ATOM     27  C   UNL     1       5.517   4.630  19.154  0.00  0.00    +0.000 C 
ENDBRANCH  25  26
ENDBRANCH  19  20
ENDBRANCH  18  19
ENDBRANCH   5  18
TORSDOF 9
ENDMDL
MODEL 7
REMARK VINA RESULT:      -7.4      0.895      1.534
REMARK  Name = 
REMARK  12 active torsions:
REMARK  status: ('A' for Active; 'I' for Inactive)
REMARK    1  A    between atoms: C_1  and  C_2
REMARK    2  A    between atoms: C_2  and  C_3
REMARK    3  A    between atoms: C_3  and  C_4
REMARK    4  A    between atoms: C_4  and  C_5
REMARK    5  A    between atoms: C_6  and  C_7
REMARK    6  A    between atoms: C_11  and  O_12
REMARK    7  A    between atoms: O_12  and  C_13
REMARK    8  A    between atoms: N_17  and  C_18
REMARK    9  A    between atoms: C_18  and  C_19
REMARK   10  A    between atoms: C_19  and  C_20
REMARK   11  A    between atoms: C_25  and  O_26
REMARK   12  A    between atoms: O_26  and  C_27
REMARK                            x       y       z     vdW  Elec       q    Type
REMARK                         _______ _______ _______ _____ _____    ______ ____
ROOT
ATOM      1  C   UNL     1       2.434   6.173  19.746  0.00  0.00    +0.000 A 
ATOM      2  C   UNL     1       2.205   7.514  19.432  0.00  0.00    +0.000 A 
ATOM      3  N   UNL     1       2.880   7.873  18.292  0.00  0.00    +0.000 NA
ATOM      4  C   UNL     1       3.535   6.806  17.915  0.00  0.00    +0.000 A 
ATOM      5  N   UNL     1       3.302   5.748  18.745  0.00  0.00    +0.000 N 
ENDROOT
BRANCH   2   6
ATOM      6  C   UNL     1       1.375   8.495  20.120  0.00  0.00    +0.000 A 
ATOM      7  C   UNL     1       1.295   8.456  21.520  0.00  0.00    +0.000 A 
ATOM      8  C   UNL     1       0.428   9.304  22.209  0.00  0.00    +0.000 A 
ATOM      9  C   UNL     1      -0.356  10.212  21.501  0.00  0.00    +0.000 A 
ATOM     10  C   UNL     1      -0.281  10.277  20.110  0.00  0.00    +0.000 A 
ATOM     11  C   UNL     1       0.568   9.404  19.424  0.00  0.00    +0.000 A 
BRANCH  10  12
ATOM     12  O   UNL     1      -1.102  11.207  19.529  0.00  0.00    +0.000 OA
ATOM     13  C   UNL     1      -1.348  11.060  18.136  0.00  0.00    +0.000 C 
ENDBRANCH  10  12
ENDBRANCH   2   6
BRANCH   1  14
ATOM     14  C   UNL     1       1.837   5.298  20.814  0.00  0.00    +0.000 C 
BRANCH  14  15
ATOM     15  C   UNL     1       0.837   4.221  20.384  0.00  0.00    +0.000 C 
BRANCH  15  17
ATOM     16  C   UNL     1       2.460   2.776  21.647  0.00  0.00    +0.000 C 
ATOM     17  C   UNL     1       1.243   2.787  20.732  0.00  0.00    +0.000 C 
ENDBRANCH  15  17
ENDBRANCH  14  15
ENDBRANCH   1  14
BRANCH   5  18
ATOM     18  C   UNL     1       3.851   4.412  18.574  0.00  0.00    +0.000 C 
BRANCH  18  19
ATOM     19  C   UNL     1       3.892   3.866  17.143  0.00  0.00    +0.000 C 
BRANCH  19  20
ATOM     20  C   UNL     1       5.113   4.199  16.313  0.00  0.00    +0.000 A 
ATOM     21  C   UNL     1       5.038   4.188  14.903  0.00  0.00    +0.000 A 
ATOM     22  C   UNL     1       6.150   4.473  14.109  0.00  0.00    +0.000 A 
ATOM     23  C   UNL     1       7.360   4.798  14.702  0.00  0.00    +0.000 A 
ATOM     24  C   UNL     1       7.454   4.831  16.093  0.00  0.00    +0.000 A 
ATOM     25  C   UNL     1       6.345   4.545  16.903  0.00  0.00    +0.000 A 
BRANCH  25  26
ATOM     26  O   UNL     1       6.647   4.515  18.239  0.00  0.00    +0.000 OA
ATOM     27  C   UNL     1       7.653   5.401  18.713  0.00  0.00    +0.000 C 
ENDBRANCH  25  26
ENDBRANCH  19  20
ENDBRANCH  18  19
ENDBRANCH   5  18
TORSDOF 9
ENDMDL
MODEL 8
REMARK VINA RESULT:      -7.4      2.086      8.101
REMARK  Name = 
REMARK  12 active torsions:
REMARK  status: ('A' for Active; 'I' for Inactive)
REMARK    1  A    between atoms: C_1  and  C_2
REMARK    2  A    between atoms: C_2  and  C_3
REMARK    3  A    between atoms: C_3  and  C_4
REMARK    4  A    between atoms: C_4  and  C_5
REMARK    5  A    between atoms: C_6  and  C_7
REMARK    6  A    between atoms: C_11  and  O_12
REMARK    7  A    between atoms: O_12  and  C_13
REMARK    8  A    between atoms: N_17  and  C_18
REMARK    9  A    between atoms: C_18  and  C_19
REMARK   10  A    between atoms: C_19  and  C_20
REMARK   11  A    between atoms: C_25  and  O_26
REMARK   12  A    between atoms: O_26  and  C_27
REMARK                            x       y       z     vdW  Elec       q    Type
REMARK                         _______ _______ _______ _____ _____    ______ ____
ROOT
ATOM      1  C   UNL     1       2.132   7.670  19.254  0.00  0.00    +0.000 A 
ATOM      2  C   UNL     1       2.902   7.457  18.109  0.00  0.00    +0.000 A 
ATOM      3  N   UNL     1       2.763   8.496  17.223  0.00  0.00    +0.000 NA
ATOM      4  C   UNL     1       1.914   9.323  17.776  0.00  0.00    +0.000 A 
ATOM      5  N   UNL     1       1.503   8.885  19.001  0.00  0.00    +0.000 N 
ENDROOT
BRANCH   2   6
ATOM      6  C   UNL     1       3.785   6.344  17.785  0.00  0.00    +0.000 A 
ATOM      7  C   UNL     1       5.117   6.612  17.434  0.00  0.00    +0.000 A 
ATOM      8  C   UNL     1       5.963   5.587  17.011  0.00  0.00    +0.000 A 
ATOM      9  C   UNL     1       5.488   4.279  16.950  0.00  0.00    +0.000 A 
ATOM     10  C   UNL     1       4.171   3.989  17.308  0.00  0.00    +0.000 A 
ATOM     11  C   UNL     1       3.320   5.025  17.702  0.00  0.00    +0.000 A 
BRANCH  10  12
ATOM     12  O   UNL     1       3.821   2.669  17.203  0.00  0.00    +0.000 OA
ATOM     13  C   UNL     1       3.513   1.993  18.416  0.00  0.00    +0.000 C 
ENDBRANCH  10  12
ENDBRANCH   2   6
BRANCH   1  14
ATOM     14  C   UNL     1       2.039   6.888  20.536  0.00  0.00    +0.000 C 
BRANCH  14  15
ATOM     15  C   UNL     1       1.365   5.513  20.491  0.00  0.00    +0.000 C 
BRANCH  15  17
ATOM     16  C   UNL     1       1.345   3.097  21.181  0.00  0.00    +0.000 C 
ATOM     17  C   UNL     1       2.162   4.382  21.143  0.00  0.00    +0.000 C 
ENDBRANCH  15  17
ENDBRANCH  14  15
ENDBRANCH   1  14
BRANCH   5  18
ATOM     18  C   UNL     1       0.591   9.597  19.884  0.00  0.00    +0.000 C 
BRANCH  18  19
ATOM     19  C   UNL     1       0.023  10.919  19.359  0.00  0.00    +0.000 C 
BRANCH  19  20
ATOM     20  C   UNL     1      -1.342  10.873  18.708  0.00  0.00    +0.000 A 
ATOM     21  C   UNL     1      -1.600   9.964  17.658  0.00  0.00    +0.000 A 
ATOM     22  C   UNL     1      -2.842   9.909  17.026  0.00  0.00    +0.000 A 
ATOM     23  C   UNL     1      -3.868  10.744  17.439  0.00  0.00    +0.000 A 
ATOM     24  C   UNL     1      -3.643  11.639  18.484  0.00  0.00    +0.000 A 
ATOM     25  C   UNL     1      -2.398  11.707  19.128  0.00  0.00    +0.000 A 
BRANCH  25  26
ATOM     26  O   UNL     1      -2.323  12.715  20.052  0.00  0.00    +0.000 OA
ATOM     27  C   UNL     1      -3.534  13.159  20.652  0.00  0.00    +0.000 C 
ENDBRANCH  25  26
ENDBRANCH  19  20
ENDBRANCH  18  19
ENDBRANCH   5  18
TORSDOF 9
ENDMDL
MODEL 9
REMARK VINA RESULT:      -7.4      4.155      7.025
REMARK  Name = 
REMARK  12 active torsions:
REMARK  status: ('A' for Active; 'I' for Inactive)
REMARK    1  A    between atoms: C_1  and  C_2
REMARK    2  A    between atoms: C_2  and  C_3
REMARK    3  A    between atoms: C_3  and  C_4
REMARK    4  A    between atoms: C_4  and  C_5
REMARK    5  A    between atoms: C_6  and  C_7
REMARK    6  A    between atoms: C_11  and  O_12
REMARK    7  A    between atoms: O_12  and  C_13
REMARK    8  A    between atoms: N_17  and  C_18
REMARK    9  A    between atoms: C_18  and  C_19
REMARK   10  A    between atoms: C_19  and  C_20
REMARK   11  A    between atoms: C_25  and  O_26
REMARK   12  A    between atoms: O_26  and  C_27
REMARK                            x       y       z     vdW  Elec       q    Type
REMARK                         _______ _______ _______ _____ _____    ______ ____
ROOT
ATOM      1  C   UNL     1       6.074   6.160  17.712  0.00  0.00    +0.000 A 
ATOM      2  C   UNL     1       5.808   5.196  18.685  0.00  0.00    +0.000 A 
ATOM      3  N   UNL     1       6.791   5.181  19.643  0.00  0.00    +0.000 NA
ATOM      4  C   UNL     1       7.661   6.083  19.274  0.00  0.00    +0.000 A 
ATOM      5  N   UNL     1       7.283   6.712  18.123  0.00  0.00    +0.000 N 
ENDROOT
BRANCH   2   6
ATOM      6  C   UNL     1       4.676   4.285  18.797  0.00  0.00    +0.000 A 
ATOM      7  C   UNL     1       4.564   3.222  17.887  0.00  0.00    +0.000 A 
ATOM      8  C   UNL     1       3.441   2.395  17.891  0.00  0.00    +0.000 A 
ATOM      9  C   UNL     1       2.425   2.614  18.817  0.00  0.00    +0.000 A 
ATOM     10  C   UNL     1       2.522   3.657  19.740  0.00  0.00    +0.000 A 
ATOM     11  C   UNL     1       3.636   4.500  19.711  0.00  0.00    +0.000 A 
BRANCH  10  12
ATOM     12  O   UNL     1       1.459   3.773  20.595  0.00  0.00    +0.000 OA
ATOM     13  C   UNL     1       1.469   2.931  21.742  0.00  0.00    +0.000 C 
ENDBRANCH  10  12
ENDBRANCH   2   6
BRANCH   1  14
ATOM     14  C   UNL     1       5.252   6.629  16.542  0.00  0.00    +0.000 C 
BRANCH  14  15
ATOM     15  C   UNL     1       5.571   6.047  15.162  0.00  0.00    +0.000 C 
BRANCH  15  17
ATOM     16  C   UNL     1       6.161   3.951  13.908  0.00  0.00    +0.000 C 
ATOM     17  C   UNL     1       5.302   4.548  15.015  0.00  0.00    +0.000 C 
ENDBRANCH  15  17
ENDBRANCH  14  15
ENDBRANCH   1  14
BRANCH   5  18
ATOM     18  C   UNL     1       8.017   7.789  17.475  0.00  0.00    +0.000 C 
BRANCH  18  19
ATOM     19  C   UNL     1       7.486   9.209  17.697  0.00  0.00    +0.000 C 
BRANCH  19  20
ATOM     20  C   UNL     1       8.446  10.219  18.288  0.00  0.00    +0.000 A 
ATOM     21  C   UNL     1       9.373   9.826  19.277  0.00  0.00    +0.000 A 
ATOM     22  C   UNL     1      10.258  10.738  19.854  0.00  0.00    +0.000 A 
ATOM     23  C   UNL     1      10.257  12.061  19.442  0.00  0.00    +0.000 A 
ATOM     24  C   UNL     1       9.362  12.470  18.454  0.00  0.00    +0.000 A 
ATOM     25  C   UNL     1       8.464  11.564  17.867  0.00  0.00    +0.000 A 
BRANCH  25  26
ATOM     26  O   UNL     1       7.587  12.161  17.000  0.00  0.00    +0.000 OA
ATOM     27  C   UNL     1       7.097  13.453  17.334  0.00  0.00    +0.000 C 
ENDBRANCH  25  26
ENDBRANCH  19  20
ENDBRANCH  18  19
ENDBRANCH   5  18
TORSDOF 9
ENDMDL
