MODEL 1
REMARK VINA RESULT:      -8.3      0.000      0.000
REMARK  Name = 
REMARK  3 active torsions:
REMARK  status: ('A' for Active; 'I' for Inactive)
REMARK    1  A    between atoms: O_1  and  C_2
REMARK    2  A    between atoms: C_5  and  N_6
REMARK    3  A    between atoms: C_8  and  C_9
REMARK                            x       y       z     vdW  Elec       q    Type
REMARK                         _______ _______ _______ _____ _____    ______ ____
ROOT
ATOM      1  N   UNL     1       1.460   8.877  19.443  0.00  0.00    +0.000 N 
ATOM      2  C   UNL     1       2.214   7.728  19.508  0.00  0.00    +0.000 A 
ATOM      3  C   UNL     1       2.702   7.551  18.233  0.00  0.00    +0.000 A 
ATOM      4  N   UNL     1       2.272   8.581  17.447  0.00  0.00    +0.000 NA
ATOM      5  N   UNL     1       1.535   9.393  18.193  0.00  0.00    +0.000 NA
ENDROOT
BRANCH   3   6
ATOM      6  C   UNL     1       3.499   6.426  17.779  0.00  0.00    +0.000 A 
ATOM      7  C   UNL     1       4.791   6.669  17.302  0.00  0.00    +0.000 A 
ATOM      8  N   UNL     1       5.653   5.722  16.877  0.00  0.00    +0.000 NA
ATOM      9  C   UNL     1       5.213   4.448  16.945  0.00  0.00    +0.000 A 
ATOM     10  C   UNL     1       3.949   4.068  17.398  0.00  0.00    +0.000 A 
ATOM     11  C   UNL     1       3.573   2.712  17.430  0.00  0.00    +0.000 A 
ATOM     12  C   UNL     1       2.306   2.335  17.867  0.00  0.00    +0.000 A 
ATOM     13  C   UNL     1       1.400   3.307  18.268  0.00  0.00    +0.000 A 
ATOM     14  C   UNL     1       1.764   4.656  18.242  0.00  0.00    +0.000 A 
ATOM     15  C   UNL     1       3.051   5.077  17.820  0.00  0.00    +0.000 A 
ENDBRANCH   3   6
BRANCH   1  19
ATOM     16  C   UNL     1      -0.854  10.675  22.460  0.00  0.00    +0.000 A 
ATOM     17  C   UNL     1      -0.136   9.520  22.750  0.00  0.00    +0.000 A 
ATOM     18  C   UNL     1       0.636   8.920  21.752  0.00  0.00    +0.000 A 
ATOM     19  C   UNL     1       0.685   9.480  20.466  0.00  0.00    +0.000 A 
ATOM     20  C   UNL     1      -0.050  10.641  20.188  0.00  0.00    +0.000 A 
ATOM     21  C   UNL     1      -0.821  11.236  21.190  0.00  0.00    +0.000 A 
BRANCH  16  22
ATOM     22  O   UNL     1      -1.613  11.291  23.410  0.00  0.00    +0.000 OA
ATOM     23  H   UNL     1      -1.303  11.015  24.287  0.00  0.00    +0.000 HD
ENDBRANCH  16  22
ENDBRANCH   1  19
TORSDOF 3
ENDMDL
MODEL 2
REMARK VINA RESULT:      -8.3      0.104      1.029
REMARK  Name = 
REMARK  3 active torsions:
REMARK  status: ('A' for Active; 'I' for Inactive)
REMARK    1  A    between atoms: O_1  and  C_2
REMARK    2  A    between atoms: C_5  and  N_6
REMARK    3  A    between atoms: C_8  and  C_9
REMARK                            x       y       z     vdW  Elec       q    Type
REMARK                         _______ _______ _______ _____ _____    ______ ____
ROOT
ATOM      1  N   UNL     1       1.439   8.893  19.396  0.00  0.00    +0.000 N 
ATOM      2  C   UNL     1       2.203   7.752  19.479  0.00  0.00    +0.000 A 
ATOM      3  C   UNL     1       2.698   7.561  18.209  0.00  0.00    +0.000 A 
ATOM      4  N   UNL     1       2.262   8.576  17.407  0.00  0.00    +0.000 NA
ATOM      5  N   UNL     1       1.514   9.392  18.138  0.00  0.00    +0.000 NA
ENDROOT
BRANCH   3   6
ATOM      6  C   UNL     1       3.508   6.437  17.774  0.00  0.00    +0.000 A 
ATOM      7  C   UNL     1       4.805   6.684  17.314  0.00  0.00    +0.000 A 
ATOM      8  N   UNL     1       5.678   5.738  16.909  0.00  0.00    +0.000 NA
ATOM      9  C   UNL     1       5.243   4.462  16.979  0.00  0.00    +0.000 A 
ATOM     10  C   UNL     1       3.975   4.079  17.415  0.00  0.00    +0.000 A 
ATOM     11  C   UNL     1       3.605   2.722  17.451  0.00  0.00    +0.000 A 
ATOM     12  C   UNL     1       2.333   2.341  17.872  0.00  0.00    +0.000 A 
ATOM     13  C   UNL     1       1.416   3.311  18.253  0.00  0.00    +0.000 A 
ATOM     14  C   UNL     1       1.775   4.662  18.223  0.00  0.00    +0.000 A 
ATOM     15  C   UNL     1       3.065   5.087  17.817  0.00  0.00    +0.000 A 
ENDBRANCH   3   6
BRANCH   1  19
ATOM     16  C   UNL     1      -0.875  10.689  22.414  0.00  0.00    +0.000 A 
ATOM     17  C   UNL     1      -0.668  11.369  21.218  0.00  0.00    +0.000 A 
ATOM     18  C   UNL     1       0.098  10.776  20.212  0.00  0.00    +0.000 A 
ATOM     19  C   UNL     1       0.654   9.503  20.407  0.00  0.00    +0.000 A 
ATOM     20  C   UNL     1       0.442   8.833  21.620  0.00  0.00    +0.000 A 
ATOM     21  C   UNL     1      -0.324   9.431  22.624  0.00  0.00    +0.000 A 
BRANCH  16  22
ATOM     22  O   UNL     1      -1.621  11.234  23.416  0.00  0.00    +0.000 OA
ATOM     23  H   UNL     1      -1.607  10.632  24.178  0.00  0.00    +0.000 HD
ENDBRANCH  16  22
ENDBRANCH   1  19
TORSDOF 3
ENDMDL
MODEL 3
REMARK VINA RESULT:      -8.0      2.082      2.454
REMARK  Name = 
REMARK  3 active torsions:
REMARK  status: ('A' for Active; 'I' for Inactive)
REMARK    1  A    between atoms: O_1  and  C_2
REMARK    2  A    between atoms: C_5  and  N_6
REMARK    3  A    between atoms: C_8  and  C_9
REMARK                            x       y       z     vdW  Elec       q    Type
REMARK                         _______ _______ _______ _____ _____    ______ ____
ROOT
ATOM      1  N   UNL     1       1.433   9.285  18.877  0.00  0.00    +0.000 N 
ATOM      2  C   UNL     1       2.036   8.545  17.887  0.00  0.00    +0.000 A 
ATOM      3  C   UNL     1       2.498   7.413  18.519  0.00  0.00    +0.000 A 
ATOM      4  N   UNL     1       2.153   7.470  19.838  0.00  0.00    +0.000 NA
ATOM      5  N   UNL     1       1.489   8.600  20.045  0.00  0.00    +0.000 NA
ENDROOT
BRANCH   3   6
ATOM      6  C   UNL     1       3.275   6.353  17.901  0.00  0.00    +0.000 A 
ATOM      7  C   UNL     1       4.485   6.681  17.283  0.00  0.00    +0.000 A 
ATOM      8  N   UNL     1       5.322   5.800  16.697  0.00  0.00    +0.000 NA
ATOM      9  C   UNL     1       4.943   4.506  16.740  0.00  0.00    +0.000 A 
ATOM     10  C   UNL     1       3.762   4.043  17.320  0.00  0.00    +0.000 A 
ATOM     11  C   UNL     1       3.445   2.672  17.314  0.00  0.00    +0.000 A 
ATOM     12  C   UNL     1       2.258   2.214  17.881  0.00  0.00    +0.000 A 
ATOM     13  C   UNL     1       1.373   3.119  18.451  0.00  0.00    +0.000 A 
ATOM     14  C   UNL     1       1.680   4.482  18.464  0.00  0.00    +0.000 A 
ATOM     15  C   UNL     1       2.887   4.985  17.913  0.00  0.00    +0.000 A 
ENDBRANCH   3   6
BRANCH   1  19
ATOM     16  C   UNL     1      -0.297  13.106  18.576  0.00  0.00    +0.000 A 
ATOM     17  C   UNL     1      -1.122  11.992  18.688  0.00  0.00    +0.000 A 
ATOM     18  C   UNL     1      -0.552  10.721  18.790  0.00  0.00    +0.000 A 
ATOM     19  C   UNL     1       0.843  10.570  18.780  0.00  0.00    +0.000 A 
ATOM     20  C   UNL     1       1.661  11.703  18.660  0.00  0.00    +0.000 A 
ATOM     21  C   UNL     1       1.086  12.972  18.557  0.00  0.00    +0.000 A 
BRANCH  16  22
ATOM     22  O   UNL     1      -0.816  14.363  18.480  0.00  0.00    +0.000 OA
ATOM     23  H   UNL     1      -1.275  14.448  17.628  0.00  0.00    +0.000 HD
ENDBRANCH  16  22
ENDBRANCH   1  19
TORSDOF 3
ENDMDL
MODEL 4
REMARK VINA RESULT:      -7.9      1.124      2.497
REMARK  Name = 
REMARK  3 active torsions:
REMARK  status: ('A' for Active; 'I' for Inactive)
REMARK    1  A    between atoms: O_1  and  C_2
REMARK    2  A    between atoms: C_5  and  N_6
REMARK    3  A    between atoms: C_8  and  C_9
REMARK                            x       y       z     vdW  Elec       q    Type
REMARK                         _______ _______ _______ _____ _____    ______ ____
ROOT
ATOM      1  N   UNL     1       1.525   8.720  19.570  0.00  0.00    +0.000 N 
ATOM      2  C   UNL     1       2.046   7.449  19.640  0.00  0.00    +0.000 A 
ATOM      3  C   UNL     1       2.542   7.197  18.381  0.00  0.00    +0.000 A 
ATOM      4  N   UNL     1       2.346   8.298  17.599  0.00  0.00    +0.000 NA
ATOM      5  N   UNL     1       1.746   9.227  18.333  0.00  0.00    +0.000 NA
ENDROOT
BRANCH   3   6
ATOM      6  C   UNL     1       3.131   5.947  17.936  0.00  0.00    +0.000 A 
ATOM      7  C   UNL     1       2.326   4.805  17.891  0.00  0.00    +0.000 A 
ATOM      8  N   UNL     1       2.728   3.587  17.471  0.00  0.00    +0.000 NA
ATOM      9  C   UNL     1       4.008   3.498  17.055  0.00  0.00    +0.000 A 
ATOM     10  C   UNL     1       4.917   4.556  17.050  0.00  0.00    +0.000 A 
ATOM     11  C   UNL     1       6.237   4.369  16.601  0.00  0.00    +0.000 A 
ATOM     12  C   UNL     1       7.148   5.423  16.612  0.00  0.00    +0.000 A 
ATOM     13  C   UNL     1       6.753   6.668  17.078  0.00  0.00    +0.000 A 
ATOM     14  C   UNL     1       5.443   6.864  17.525  0.00  0.00    +0.000 A 
ATOM     15  C   UNL     1       4.483   5.821  17.513  0.00  0.00    +0.000 A 
ENDBRANCH   3   6
BRANCH   1  19
ATOM     16  C   UNL     1      -0.526  10.889  22.532  0.00  0.00    +0.000 A 
ATOM     17  C   UNL     1      -0.111   9.590  22.804  0.00  0.00    +0.000 A 
ATOM     18  C   UNL     1       0.572   8.866  21.824  0.00  0.00    +0.000 A 
ATOM     19  C   UNL     1       0.838   9.447  20.574  0.00  0.00    +0.000 A 
ATOM     20  C   UNL     1       0.407  10.756  20.314  0.00  0.00    +0.000 A 
ATOM     21  C   UNL     1      -0.277  11.475  21.297  0.00  0.00    +0.000 A 
BRANCH  16  22
ATOM     22  O   UNL     1      -1.190  11.628  23.465  0.00  0.00    +0.000 OA
ATOM     23  H   UNL     1      -1.151  12.564  23.209  0.00  0.00    +0.000 HD
ENDBRANCH  16  22
ENDBRANCH   1  19
TORSDOF 3
ENDMDL
MODEL 5
REMARK VINA RESULT:      -7.9      2.067      2.459
REMARK  Name = 
REMARK  3 active torsions:
REMARK  status: ('A' for Active; 'I' for Inactive)
REMARK    1  A    between atoms: O_1  and  C_2
REMARK    2  A    between atoms: C_5  and  N_6
REMARK    3  A    between atoms: C_8  and  C_9
REMARK                            x       y       z     vdW  Elec       q    Type
REMARK                         _______ _______ _______ _____ _____    ______ ____
ROOT
ATOM      1  N   UNL     1       1.458   9.297  18.872  0.00  0.00    +0.000 N 
ATOM      2  C   UNL     1       2.061   8.558  17.880  0.00  0.00    +0.000 A 
ATOM      3  C   UNL     1       2.506   7.416  18.508  0.00  0.00    +0.000 A 
ATOM      4  N   UNL     1       2.150   7.467  19.824  0.00  0.00    +0.000 NA
ATOM      5  N   UNL     1       1.497   8.602  20.034  0.00  0.00    +0.000 NA
ENDROOT
BRANCH   3   6
ATOM      6  C   UNL     1       3.276   6.353  17.887  0.00  0.00    +0.000 A 
ATOM      7  C   UNL     1       4.480   6.677  17.256  0.00  0.00    +0.000 A 
ATOM      8  N   UNL     1       5.311   5.792  16.666  0.00  0.00    +0.000 NA
ATOM      9  C   UNL     1       4.932   4.499  16.719  0.00  0.00    +0.000 A 
ATOM     10  C   UNL     1       3.756   4.040  17.314  0.00  0.00    +0.000 A 
ATOM     11  C   UNL     1       3.439   2.669  17.319  0.00  0.00    +0.000 A 
ATOM     12  C   UNL     1       2.257   2.214  17.900  0.00  0.00    +0.000 A 
ATOM     13  C   UNL     1       1.379   3.122  18.473  0.00  0.00    +0.000 A 
ATOM     14  C   UNL     1       1.687   4.486  18.476  0.00  0.00    +0.000 A 
ATOM     15  C   UNL     1       2.887   4.985  17.910  0.00  0.00    +0.000 A 
ENDBRANCH   3   6
BRANCH   1  19
ATOM     16  C   UNL     1      -0.268  13.123  18.614  0.00  0.00    +0.000 A 
ATOM     17  C   UNL     1       1.116  12.996  18.571  0.00  0.00    +0.000 A 
ATOM     18  C   UNL     1       1.695  11.727  18.655  0.00  0.00    +0.000 A 
ATOM     19  C   UNL     1       0.883  10.589  18.780  0.00  0.00    +0.000 A 
ATOM     20  C   UNL     1      -0.511  10.734  18.827  0.00  0.00    +0.000 A 
ATOM     21  C   UNL     1      -1.084  12.006  18.745  0.00  0.00    +0.000 A 
BRANCH  16  22
ATOM     22  O   UNL     1      -0.869  14.344  18.529  0.00  0.00    +0.000 OA
ATOM     23  H   UNL     1      -1.299  14.541  19.377  0.00  0.00    +0.000 HD
ENDBRANCH  16  22
ENDBRANCH   1  19
TORSDOF 3
ENDMDL
MODEL 6
REMARK VINA RESULT:      -7.9      1.137      2.702
REMARK  Name = 
REMARK  3 active torsions:
REMARK  status: ('A' for Active; 'I' for Inactive)
REMARK    1  A    between atoms: O_1  and  C_2
REMARK    2  A    between atoms: C_5  and  N_6
REMARK    3  A    between atoms: C_8  and  C_9
REMARK                            x       y       z     vdW  Elec       q    Type
REMARK                         _______ _______ _______ _____ _____    ______ ____
ROOT
ATOM      1  N   UNL     1       1.543   8.797  19.479  0.00  0.00    +0.000 N 
ATOM      2  C   UNL     1       2.065   7.527  19.570  0.00  0.00    +0.000 A 
ATOM      3  C   UNL     1       2.566   7.258  18.316  0.00  0.00    +0.000 A 
ATOM      4  N   UNL     1       2.371   8.347  17.518  0.00  0.00    +0.000 NA
ATOM      5  N   UNL     1       1.767   9.285  18.235  0.00  0.00    +0.000 NA
ENDROOT
BRANCH   3   6
ATOM      6  C   UNL     1       3.158   6.002  17.891  0.00  0.00    +0.000 A 
ATOM      7  C   UNL     1       2.350   4.861  17.847  0.00  0.00    +0.000 A 
ATOM      8  N   UNL     1       2.755   3.638  17.445  0.00  0.00    +0.000 NA
ATOM      9  C   UNL     1       4.040   3.542  17.046  0.00  0.00    +0.000 A 
ATOM     10  C   UNL     1       4.952   4.598  17.043  0.00  0.00    +0.000 A 
ATOM     11  C   UNL     1       6.277   4.404  16.612  0.00  0.00    +0.000 A 
ATOM     12  C   UNL     1       7.190   5.456  16.625  0.00  0.00    +0.000 A 
ATOM     13  C   UNL     1       6.792   6.707  17.074  0.00  0.00    +0.000 A 
ATOM     14  C   UNL     1       5.477   6.910  17.501  0.00  0.00    +0.000 A 
ATOM     15  C   UNL     1       4.514   5.869  17.487  0.00  0.00    +0.000 A 
ENDBRANCH   3   6
BRANCH   1  19
ATOM     16  C   UNL     1      -0.500  10.976  22.439  0.00  0.00    +0.000 A 
ATOM     17  C   UNL     1      -0.039  11.635  21.305  0.00  0.00    +0.000 A 
ATOM     18  C   UNL     1       0.639  10.916  20.318  0.00  0.00    +0.000 A 
ATOM     19  C   UNL     1       0.851   9.537  20.470  0.00  0.00    +0.000 A 
ATOM     20  C   UNL     1       0.384   8.888  21.623  0.00  0.00    +0.000 A 
ATOM     21  C   UNL     1      -0.292   9.613  22.607  0.00  0.00    +0.000 A 
BRANCH  16  22
ATOM     22  O   UNL     1      -1.171  11.644  23.420  0.00  0.00    +0.000 OA
ATOM     23  H   UNL     1      -2.041  11.910  23.079  0.00  0.00    +0.000 HD
ENDBRANCH  16  22
ENDBRANCH   1  19
TORSDOF 3
ENDMDL
MODEL 7
REMARK VINA RESULT:      -7.7      3.282      7.502
REMARK  Name = 
REMARK  3 active torsions:
REMARK  status: ('A' for Active; 'I' for Inactive)
REMARK    1  A    between atoms: O_1  and  C_2
REMARK    2  A    between atoms: C_5  and  N_6
REMARK    3  A    between atoms: C_8  and  C_9
REMARK                            x       y       z     vdW  Elec       q    Type
REMARK                         _______ _______ _______ _____ _____    ______ ____
ROOT
ATOM      1  N   UNL     1       2.566   7.619  18.494  0.00  0.00    +0.000 N 
ATOM      2  C   UNL     1       1.657   8.196  19.349  0.00  0.00    +0.000 A 
ATOM      3  C   UNL     1       1.294   9.377  18.740  0.00  0.00    +0.000 A 
ATOM      4  N   UNL     1       1.948   9.479  17.547  0.00  0.00    +0.000 NA
ATOM      5  N   UNL     1       2.704   8.399  17.394  0.00  0.00    +0.000 NA
ENDROOT
BRANCH   3   6
ATOM      6  C   UNL     1       0.403  10.379  19.296  0.00  0.00    +0.000 A 
ATOM      7  C   UNL     1       0.848  11.148  20.376  0.00  0.00    +0.000 A 
ATOM      8  N   UNL     1       0.143  12.131  20.973  0.00  0.00    +0.000 NA
ATOM      9  C   UNL     1      -1.078  12.381  20.455  0.00  0.00    +0.000 A 
ATOM     10  C   UNL     1      -1.643  11.689  19.384  0.00  0.00    +0.000 A 
ATOM     11  C   UNL     1      -2.928  12.016  18.912  0.00  0.00    +0.000 A 
ATOM     12  C   UNL     1      -3.497  11.314  17.852  0.00  0.00    +0.000 A 
ATOM     13  C   UNL     1      -2.794  10.275  17.260  0.00  0.00    +0.000 A 
ATOM     14  C   UNL     1      -1.516   9.944  17.719  0.00  0.00    +0.000 A 
ATOM     15  C   UNL     1      -0.896  10.647  18.784  0.00  0.00    +0.000 A 
ENDBRANCH   3   6
BRANCH   1  19
ATOM     16  C   UNL     1       4.716   4.043  19.014  0.00  0.00    +0.000 A 
ATOM     17  C   UNL     1       5.199   5.005  18.135  0.00  0.00    +0.000 A 
ATOM     18  C   UNL     1       4.490   6.196  17.959  0.00  0.00    +0.000 A 
ATOM     19  C   UNL     1       3.298   6.418  18.667  0.00  0.00    +0.000 A 
ATOM     20  C   UNL     1       2.822   5.435  19.546  0.00  0.00    +0.000 A 
ATOM     21  C   UNL     1       3.534   4.245  19.716  0.00  0.00    +0.000 A 
BRANCH  16  22
ATOM     22  O   UNL     1       5.384   2.871  19.216  0.00  0.00    +0.000 OA
ATOM     23  H   UNL     1       5.137   2.516  20.085  0.00  0.00    +0.000 HD
ENDBRANCH  16  22
ENDBRANCH   1  19
TORSDOF 3
ENDMDL
MODEL 8
REMARK VINA RESULT:      -7.7      3.309      7.456
REMARK  Name = 
REMARK  3 active torsions:
REMARK  status: ('A' for Active; 'I' for Inactive)
REMARK    1  A    between atoms: O_1  and  C_2
REMARK    2  A    between atoms: C_5  and  N_6
REMARK    3  A    between atoms: C_8  and  C_9
REMARK                            x       y       z     vdW  Elec       q    Type
REMARK                         _______ _______ _______ _____ _____    ______ ____
ROOT
ATOM      1  N   UNL     1       2.517   7.734  18.477  0.00  0.00    +0.000 N 
ATOM      2  C   UNL     1       1.560   8.299  19.287  0.00  0.00    +0.000 A 
ATOM      3  C   UNL     1       1.251   9.500  18.689  0.00  0.00    +0.000 A 
ATOM      4  N   UNL     1       1.983   9.625  17.544  0.00  0.00    +0.000 NA
ATOM      5  N   UNL     1       2.734   8.541  17.410  0.00  0.00    +0.000 NA
ENDROOT
BRANCH   3   6
ATOM      6  C   UNL     1       0.336  10.498  19.213  0.00  0.00    +0.000 A 
ATOM      7  C   UNL     1       0.790  11.365  20.212  0.00  0.00    +0.000 A 
ATOM      8  N   UNL     1       0.064  12.356  20.769  0.00  0.00    +0.000 NA
ATOM      9  C   UNL     1      -1.189  12.510  20.295  0.00  0.00    +0.000 A 
ATOM     10  C   UNL     1      -1.766  11.715  19.305  0.00  0.00    +0.000 A 
ATOM     11  C   UNL     1      -3.086  11.945  18.873  0.00  0.00    +0.000 A 
ATOM     12  C   UNL     1      -3.666  11.140  17.895  0.00  0.00    +0.000 A 
ATOM     13  C   UNL     1      -2.939  10.094  17.346  0.00  0.00    +0.000 A 
ATOM     14  C   UNL     1      -1.627   9.858  17.766  0.00  0.00    +0.000 A 
ATOM     15  C   UNL     1      -0.996  10.666  18.746  0.00  0.00    +0.000 A 
ENDBRANCH   3   6
BRANCH   1  19
ATOM     16  C   UNL     1       4.632   4.140  19.023  0.00  0.00    +0.000 A 
ATOM     17  C   UNL     1       3.551   4.426  19.850  0.00  0.00    +0.000 A 
ATOM     18  C   UNL     1       2.844   5.618  19.671  0.00  0.00    +0.000 A 
ATOM     19  C   UNL     1       3.223   6.518  18.664  0.00  0.00    +0.000 A 
ATOM     20  C   UNL     1       4.319   6.218  17.842  0.00  0.00    +0.000 A 
ATOM     21  C   UNL     1       5.023   5.026  18.026  0.00  0.00    +0.000 A 
BRANCH  16  22
ATOM     22  O   UNL     1       5.342   2.985  19.163  0.00  0.00    +0.000 OA
ATOM     23  H   UNL     1       5.428   2.563  18.293  0.00  0.00    +0.000 HD
ENDBRANCH  16  22
ENDBRANCH   1  19
TORSDOF 3
ENDMDL
MODEL 9
REMARK VINA RESULT:      -7.7      3.246      7.751
REMARK  Name = 
REMARK  3 active torsions:
REMARK  status: ('A' for Active; 'I' for Inactive)
REMARK    1  A    between atoms: O_1  and  C_2
REMARK    2  A    between atoms: C_5  and  N_6
REMARK    3  A    between atoms: C_8  and  C_9
REMARK                            x       y       z     vdW  Elec       q    Type
REMARK                         _______ _______ _______ _____ _____    ______ ____
ROOT
ATOM      1  N   UNL     1       2.425   6.550  19.837  0.00  0.00    +0.000 N 
ATOM      2  C   UNL     1       1.626   7.066  20.831  0.00  0.00    +0.000 A 
ATOM      3  C   UNL     1       1.287   8.328  20.396  0.00  0.00    +0.000 A 
ATOM      4  N   UNL     1       1.845   8.538  19.169  0.00  0.00    +0.000 NA
ATOM      5  N   UNL     1       2.518   7.448  18.826  0.00  0.00    +0.000 NA
ENDROOT
BRANCH   3   6
ATOM      6  C   UNL     1       0.507   9.300  21.141  0.00  0.00    +0.000 A 
ATOM      7  C   UNL     1       0.610   9.316  22.535  0.00  0.00    +0.000 A 
ATOM      8  N   UNL     1      -0.030  10.179  23.352  0.00  0.00    +0.000 NA
ATOM      9  C   UNL     1      -0.810  11.099  22.746  0.00  0.00    +0.000 A 
ATOM     10  C   UNL     1      -1.002  11.192  21.368  0.00  0.00    +0.000 A 
ATOM     11  C   UNL     1      -1.839  12.183  20.823  0.00  0.00    +0.000 A 
ATOM     12  C   UNL     1      -2.042  12.266  19.447  0.00  0.00    +0.000 A 
ATOM     13  C   UNL     1      -1.420  11.357  18.604  0.00  0.00    +0.000 A 
ATOM     14  C   UNL     1      -0.584  10.370  19.135  0.00  0.00    +0.000 A 
ATOM     15  C   UNL     1      -0.339  10.265  20.528  0.00  0.00    +0.000 A 
ENDBRANCH   3   6
BRANCH   1  19
ATOM     16  C   UNL     1       4.387   2.832  19.743  0.00  0.00    +0.000 A 
ATOM     17  C   UNL     1       4.989   3.934  19.147  0.00  0.00    +0.000 A 
ATOM     18  C   UNL     1       4.342   5.172  19.176  0.00  0.00    +0.000 A 
ATOM     19  C   UNL     1       3.094   5.301  19.805  0.00  0.00    +0.000 A 
ATOM     20  C   UNL     1       2.497   4.178  20.397  0.00  0.00    +0.000 A 
ATOM     21  C   UNL     1       3.148   2.943  20.362  0.00  0.00    +0.000 A 
BRANCH  16  22
ATOM     22  O   UNL     1       4.991   1.610  19.739  0.00  0.00    +0.000 OA
ATOM     23  H   UNL     1       4.315   0.926  19.879  0.00  0.00    +0.000 HD
ENDBRANCH  16  22
ENDBRANCH   1  19
TORSDOF 3
ENDMDL
