MODEL 1
REMARK VINA RESULT:      -7.0      0.000      0.000
REMARK  Name = 
REMARK  9 active torsions:
REMARK  status: ('A' for Active; 'I' for Inactive)
REMARK    1  A    between atoms: C_1  and  C_2
REMARK    2  A    between atoms: C_2  and  C_3
REMARK    3  A    between atoms: C_3  and  C_4
REMARK    4  A    between atoms: C_4  and  C_5
REMARK    5  A    between atoms: C_8  and  S_9
REMARK    6  A    between atoms: S_9  and  C_10
REMARK    7  A    between atoms: C_10  and  C_11
REMARK    8  A    between atoms: C_10  and  C_12
REMARK    9  A    between atoms: N_20  and  C_21
REMARK                            x       y       z     vdW  Elec       q    Type
REMARK                         _______ _______ _______ _____ _____    ______ ____
ROOT
ATOM      1  S   UNL     1       7.513   4.906  17.870  0.00  0.00    +0.000 S 
ENDROOT
BRANCH   1   5
ATOM      2  C   UNL     1       6.152   4.468  14.255  0.00  0.00    +0.000 A 
ATOM      3  N   UNL     1       7.046   5.415  14.062  0.00  0.00    +0.000 NA
ATOM      4  N   UNL     1       7.656   5.681  15.264  0.00  0.00    +0.000 NA
ATOM      5  C   UNL     1       7.107   4.919  16.179  0.00  0.00    +0.000 A 
ATOM      6  N   UNL     1       6.156   4.123  15.594  0.00  0.00    +0.000 N 
ATOM      7  C   UNL     1       5.314   3.109  16.171  0.00  0.00    +0.000 C 
BRANCH   2   8
ATOM      8  C   UNL     1       5.294   3.831  13.211  0.00  0.00    +0.000 C 
BRANCH   8   9
ATOM      9  C   UNL     1       6.110   2.965  12.250  0.00  0.00    +0.000 C 
BRANCH   9  11
ATOM     10  C   UNL     1       3.941   3.084  10.973  0.00  0.00    +0.000 C 
ATOM     11  C   UNL     1       5.215   2.288  11.209  0.00  0.00    +0.000 C 
ENDBRANCH   9  11
ENDBRANCH   8   9
ENDBRANCH   2   8
ENDBRANCH   1   5
BRANCH   1  12
ATOM     12  C   UNL     1       6.048   5.692  18.680  0.00  0.00    +0.000 C 
ATOM     13  C   UNL     1       5.305   6.653  17.748  0.00  0.00    +0.000 C 
BRANCH  12  14
ATOM     14  C   UNL     1       5.061   4.580  19.102  0.00  0.00    +0.000 C 
ATOM     15  O   UNL     1       5.454   3.580  19.703  0.00  0.00    +0.000 OA
ATOM     16  N   UNL     1       3.754   4.783  18.687  0.00  0.00    +0.000 N 
ATOM     17  C   UNL     1       2.779   3.875  19.016  0.00  0.00    +0.000 A 
ATOM     18  N   UNL     1       2.816   2.915  19.904  0.00  0.00    +0.000 NA
ATOM     19  C   UNL     1       1.664   2.164  19.827  0.00  0.00    +0.000 A 
ATOM     20  C   UNL     1       0.751   2.583  18.884  0.00  0.00    +0.000 A 
ATOM     21  S   UNL     1       1.329   4.014  18.124  0.00  0.00    +0.000 S 
ATOM     22  H   UNL     1       3.523   5.509  18.035  0.00  0.00    +0.000 HD
ENDBRANCH  12  14
ENDBRANCH   1  12
TORSDOF 6
ENDMDL
MODEL 2
REMARK VINA RESULT:      -6.7      1.320      1.381
REMARK  Name = 
REMARK  9 active torsions:
REMARK  status: ('A' for Active; 'I' for Inactive)
REMARK    1  A    between atoms: C_1  and  C_2
REMARK    2  A    between atoms: C_2  and  C_3
REMARK    3  A    between atoms: C_3  and  C_4
REMARK    4  A    between atoms: C_4  and  C_5
REMARK    5  A    between atoms: C_8  and  S_9
REMARK    6  A    between atoms: S_9  and  C_10
REMARK    7  A    between atoms: C_10  and  C_11
REMARK    8  A    between atoms: C_10  and  C_12
REMARK    9  A    between atoms: N_20  and  C_21
REMARK                            x       y       z     vdW  Elec       q    Type
REMARK                         _______ _______ _______ _____ _____    ______ ____
ROOT
ATOM      1  S   UNL     1       7.360   4.667  17.771  0.00  0.00    +0.000 S 
ENDROOT
BRANCH   1   5
ATOM      2  C   UNL     1       6.117   4.383  14.098  0.00  0.00    +0.000 A 
ATOM      3  N   UNL     1       7.199   5.113  13.929  0.00  0.00    +0.000 NA
ATOM      4  N   UNL     1       7.792   5.292  15.156  0.00  0.00    +0.000 NA
ATOM      5  C   UNL     1       7.050   4.698  16.059  0.00  0.00    +0.000 A 
ATOM      6  N   UNL     1       5.982   4.098  15.444  0.00  0.00    +0.000 N 
ATOM      7  C   UNL     1       4.916   3.306  16.000  0.00  0.00    +0.000 C 
BRANCH   2   8
ATOM      8  C   UNL     1       5.196   3.899  13.025  0.00  0.00    +0.000 C 
BRANCH   8   9
ATOM      9  C   UNL     1       5.867   2.866  12.118  0.00  0.00    +0.000 C 
BRANCH   9  11
ATOM     10  C   UNL     1       3.686   3.275  10.926  0.00  0.00    +0.000 C 
ATOM     11  C   UNL     1       4.919   2.391  11.015  0.00  0.00    +0.000 C 
ENDBRANCH   9  11
ENDBRANCH   8   9
ENDBRANCH   2   8
ENDBRANCH   1   5
BRANCH   1  12
ATOM     12  C   UNL     1       6.393   6.104  18.419  0.00  0.00    +0.000 C 
ATOM     13  C   UNL     1       6.485   7.334  17.511  0.00  0.00    +0.000 C 
BRANCH  12  14
ATOM     14  C   UNL     1       4.906   5.695  18.517  0.00  0.00    +0.000 C 
ATOM     15  O   UNL     1       4.021   6.407  18.041  0.00  0.00    +0.000 OA
ATOM     16  N   UNL     1       4.675   4.529  19.232  0.00  0.00    +0.000 N 
ATOM     17  C   UNL     1       3.397   4.051  19.374  0.00  0.00    +0.000 A 
ATOM     18  N   UNL     1       2.316   4.388  18.718  0.00  0.00    +0.000 NA
ATOM     19  C   UNL     1       1.223   3.747  19.260  0.00  0.00    +0.000 A 
ATOM     20  C   UNL     1       1.498   2.909  20.319  0.00  0.00    +0.000 A 
ATOM     21  S   UNL     1       3.197   2.868  20.590  0.00  0.00    +0.000 S 
ATOM     22  H   UNL     1       5.405   4.095  19.766  0.00  0.00    +0.000 HD
ENDBRANCH  12  14
ENDBRANCH   1  12
TORSDOF 6
ENDMDL
MODEL 3
REMARK VINA RESULT:      -6.5      3.799      5.852
REMARK  Name = 
REMARK  9 active torsions:
REMARK  status: ('A' for Active; 'I' for Inactive)
REMARK    1  A    between atoms: C_1  and  C_2
REMARK    2  A    between atoms: C_2  and  C_3
REMARK    3  A    between atoms: C_3  and  C_4
REMARK    4  A    between atoms: C_4  and  C_5
REMARK    5  A    between atoms: C_8  and  S_9
REMARK    6  A    between atoms: S_9  and  C_10
REMARK    7  A    between atoms: C_10  and  C_11
REMARK    8  A    between atoms: C_10  and  C_12
REMARK    9  A    between atoms: N_20  and  C_21
REMARK                            x       y       z     vdW  Elec       q    Type
REMARK                         _______ _______ _______ _____ _____    ______ ____
ROOT
ATOM      1  S   UNL     1       4.953   4.136  18.913  0.00  0.00    +0.000 S 
ENDROOT
BRANCH   1   5
ATOM      2  C   UNL     1       7.099   7.031  17.453  0.00  0.00    +0.000 A 
ATOM      3  N   UNL     1       6.081   7.041  16.618  0.00  0.00    +0.000 NA
ATOM      4  N   UNL     1       5.191   6.072  17.013  0.00  0.00    +0.000 NA
ATOM      5  C   UNL     1       5.689   5.462  18.061  0.00  0.00    +0.000 A 
ATOM      6  N   UNL     1       6.891   6.035  18.389  0.00  0.00    +0.000 N 
ATOM      7  C   UNL     1       7.794   5.740  19.470  0.00  0.00    +0.000 C 
BRANCH   2   8
ATOM      8  C   UNL     1       8.273   7.955  17.434  0.00  0.00    +0.000 C 
BRANCH   8   9
ATOM      9  C   UNL     1       7.916   9.345  17.963  0.00  0.00    +0.000 C 
BRANCH   9  11
ATOM     10  C   UNL     1       9.761  11.044  18.187  0.00  0.00    +0.000 C 
ATOM     11  C   UNL     1       9.020   9.902  18.863  0.00  0.00    +0.000 C 
ENDBRANCH   9  11
ENDBRANCH   8   9
ENDBRANCH   2   8
ENDBRANCH   1   5
BRANCH   1  12
ATOM     12  C   UNL     1       3.169   4.243  18.435  0.00  0.00    +0.000 C 
ATOM     13  C   UNL     1       2.398   2.957  18.746  0.00  0.00    +0.000 C 
BRANCH  12  14
ATOM     14  C   UNL     1       2.513   5.394  19.231  0.00  0.00    +0.000 C 
ATOM     15  O   UNL     1       1.964   5.184  20.313  0.00  0.00    +0.000 OA
ATOM     16  N   UNL     1       2.541   6.625  18.591  0.00  0.00    +0.000 N 
ATOM     17  C   UNL     1       2.007   7.730  19.204  0.00  0.00    +0.000 A 
ATOM     18  N   UNL     1       1.667   7.891  20.457  0.00  0.00    +0.000 NA
ATOM     19  C   UNL     1       1.060   9.117  20.621  0.00  0.00    +0.000 A 
ATOM     20  C   UNL     1       0.966   9.885  19.480  0.00  0.00    +0.000 A 
ATOM     21  S   UNL     1       1.735   9.067  18.176  0.00  0.00    +0.000 S 
ATOM     22  H   UNL     1       2.821   6.704  17.632  0.00  0.00    +0.000 HD
ENDBRANCH  12  14
ENDBRANCH   1  12
TORSDOF 6
ENDMDL
MODEL 4
REMARK VINA RESULT:      -6.5      1.044      1.173
REMARK  Name = 
REMARK  9 active torsions:
REMARK  status: ('A' for Active; 'I' for Inactive)
REMARK    1  A    between atoms: C_1  and  C_2
REMARK    2  A    between atoms: C_2  and  C_3
REMARK    3  A    between atoms: C_3  and  C_4
REMARK    4  A    between atoms: C_4  and  C_5
REMARK    5  A    between atoms: C_8  and  S_9
REMARK    6  A    between atoms: S_9  and  C_10
REMARK    7  A    between atoms: C_10  and  C_11
REMARK    8  A    between atoms: C_10  and  C_12
REMARK    9  A    between atoms: N_20  and  C_21
REMARK                            x       y       z     vdW  Elec       q    Type
REMARK                         _______ _______ _______ _____ _____    ______ ____
ROOT
ATOM      1  S   UNL     1       7.172   5.076  17.303  0.00  0.00    +0.000 S 
ENDROOT
BRANCH   1   5
ATOM      2  C   UNL     1       6.559   4.026  13.611  0.00  0.00    +0.000 A 
ATOM      3  N   UNL     1       7.409   5.017  13.440  0.00  0.00    +0.000 NA
ATOM      4  N   UNL     1       7.760   5.500  14.678  0.00  0.00    +0.000 NA
ATOM      5  C   UNL     1       7.097   4.821  15.584  0.00  0.00    +0.000 A 
ATOM      6  N   UNL     1       6.330   3.868  14.965  0.00  0.00    +0.000 N 
ATOM      7  C   UNL     1       5.462   2.868  15.527  0.00  0.00    +0.000 C 
BRANCH   2   8
ATOM      8  C   UNL     1       5.961   3.175  12.538  0.00  0.00    +0.000 C 
BRANCH   8   9
ATOM      9  C   UNL     1       4.610   3.715  12.066  0.00  0.00    +0.000 C 
BRANCH   9  11
ATOM     10  C   UNL     1       2.994   3.850  10.138  0.00  0.00    +0.000 C 
ATOM     11  C   UNL     1       4.404   3.478  10.569  0.00  0.00    +0.000 C 
ENDBRANCH   9  11
ENDBRANCH   8   9
ENDBRANCH   2   8
ENDBRANCH   1   5
BRANCH   1  12
ATOM     12  C   UNL     1       5.718   6.165  17.650  0.00  0.00    +0.000 C 
ATOM     13  C   UNL     1       4.941   6.532  16.383  0.00  0.00    +0.000 C 
BRANCH  12  14
ATOM     14  C   UNL     1       4.754   5.415  18.598  0.00  0.00    +0.000 C 
ATOM     15  O   UNL     1       4.805   5.587  19.817  0.00  0.00    +0.000 OA
ATOM     16  N   UNL     1       3.912   4.512  17.967  0.00  0.00    +0.000 N 
ATOM     17  C   UNL     1       2.997   3.799  18.699  0.00  0.00    +0.000 A 
ATOM     18  N   UNL     1       2.589   4.000  19.926  0.00  0.00    +0.000 NA
ATOM     19  C   UNL     1       1.750   2.977  20.312  0.00  0.00    +0.000 A 
ATOM     20  C   UNL     1       1.517   2.014  19.353  0.00  0.00    +0.000 A 
ATOM     21  S   UNL     1       2.318   2.453  17.895  0.00  0.00    +0.000 S 
ATOM     22  H   UNL     1       4.045   4.265  17.004  0.00  0.00    +0.000 HD
ENDBRANCH  12  14
ENDBRANCH   1  12
TORSDOF 6
ENDMDL
MODEL 5
REMARK VINA RESULT:      -6.5      2.304      6.686
REMARK  Name = 
REMARK  9 active torsions:
REMARK  status: ('A' for Active; 'I' for Inactive)
REMARK    1  A    between atoms: C_1  and  C_2
REMARK    2  A    between atoms: C_2  and  C_3
REMARK    3  A    between atoms: C_3  and  C_4
REMARK    4  A    between atoms: C_4  and  C_5
REMARK    5  A    between atoms: C_8  and  S_9
REMARK    6  A    between atoms: S_9  and  C_10
REMARK    7  A    between atoms: C_10  and  C_11
REMARK    8  A    between atoms: C_10  and  C_12
REMARK    9  A    between atoms: N_20  and  C_21
REMARK                            x       y       z     vdW  Elec       q    Type
REMARK                         _______ _______ _______ _____ _____    ______ ____
ROOT
ATOM      1  S   UNL     1       4.446   6.733  17.934  0.00  0.00    +0.000 S 
ENDROOT
BRANCH   1   5
ATOM      2  C   UNL     1       1.790   3.911  18.245  0.00  0.00    +0.000 A 
ATOM      3  N   UNL     1       2.407   3.539  17.143  0.00  0.00    +0.000 NA
ATOM      4  N   UNL     1       3.419   4.435  16.895  0.00  0.00    +0.000 NA
ATOM      5  C   UNL     1       3.387   5.357  17.827  0.00  0.00    +0.000 A 
ATOM      6  N   UNL     1       2.381   5.070  18.713  0.00  0.00    +0.000 N 
ATOM      7  C   UNL     1       1.975   5.759  19.909  0.00  0.00    +0.000 C 
BRANCH   2   8
ATOM      8  C   UNL     1       0.663   3.196  18.916  0.00  0.00    +0.000 C 
BRANCH   8   9
ATOM      9  C   UNL     1       1.160   2.083  19.839  0.00  0.00    +0.000 C 
BRANCH   9  11
ATOM     10  C   UNL     1       2.792   2.675  21.665  0.00  0.00    +0.000 C 
ATOM     11  C   UNL     1       1.325   2.580  21.277  0.00  0.00    +0.000 C 
ENDBRANCH   9  11
ENDBRANCH   8   9
ENDBRANCH   2   8
ENDBRANCH   1   5
BRANCH   1  12
ATOM     12  C   UNL     1       6.128   5.981  18.100  0.00  0.00    +0.000 C 
ATOM     13  C   UNL     1       6.081   4.539  18.612  0.00  0.00    +0.000 C 
BRANCH  12  14
ATOM     14  C   UNL     1       6.803   5.971  16.709  0.00  0.00    +0.000 C 
ATOM     15  O   UNL     1       7.632   6.828  16.402  0.00  0.00    +0.000 OA
ATOM     16  N   UNL     1       6.344   4.980  15.854  0.00  0.00    +0.000 N 
ATOM     17  C   UNL     1       6.880   4.855  14.597  0.00  0.00    +0.000 A 
ATOM     18  N   UNL     1       7.976   5.382  14.114  0.00  0.00    +0.000 NA
ATOM     19  C   UNL     1       8.078   5.095  12.771  0.00  0.00    +0.000 A 
ATOM     20  C   UNL     1       7.056   4.329  12.253  0.00  0.00    +0.000 A 
ATOM     21  S   UNL     1       5.973   3.892  13.516  0.00  0.00    +0.000 S 
ATOM     22  H   UNL     1       5.533   4.435  16.079  0.00  0.00    +0.000 HD
ENDBRANCH  12  14
ENDBRANCH   1  12
TORSDOF 6
ENDMDL
MODEL 6
REMARK VINA RESULT:      -6.4      1.499      2.139
REMARK  Name = 
REMARK  9 active torsions:
REMARK  status: ('A' for Active; 'I' for Inactive)
REMARK    1  A    between atoms: C_1  and  C_2
REMARK    2  A    between atoms: C_2  and  C_3
REMARK    3  A    between atoms: C_3  and  C_4
REMARK    4  A    between atoms: C_4  and  C_5
REMARK    5  A    between atoms: C_8  and  S_9
REMARK    6  A    between atoms: S_9  and  C_10
REMARK    7  A    between atoms: C_10  and  C_11
REMARK    8  A    between atoms: C_10  and  C_12
REMARK    9  A    between atoms: N_20  and  C_21
REMARK                            x       y       z     vdW  Elec       q    Type
REMARK                         _______ _______ _______ _____ _____    ______ ____
ROOT
ATOM      1  S   UNL     1       7.076   6.103  16.777  0.00  0.00    +0.000 S 
ENDROOT
BRANCH   1   5
ATOM      2  C   UNL     1       6.272   3.974  13.625  0.00  0.00    +0.000 A 
ATOM      3  N   UNL     1       5.363   3.517  14.461  0.00  0.00    +0.000 NA
ATOM      4  N   UNL     1       5.491   4.198  15.648  0.00  0.00    +0.000 NA
ATOM      5  C   UNL     1       6.494   5.036  15.533  0.00  0.00    +0.000 A 
ATOM      6  N   UNL     1       7.018   4.943  14.270  0.00  0.00    +0.000 N 
ATOM      7  C   UNL     1       8.097   5.673  13.657  0.00  0.00    +0.000 C 
BRANCH   2   8
ATOM      8  C   UNL     1       6.458   3.556  12.203  0.00  0.00    +0.000 C 
BRANCH   8   9
ATOM      9  C   UNL     1       5.228   2.834  11.652  0.00  0.00    +0.000 C 
BRANCH   9  11
ATOM     10  C   UNL     1       7.081   1.266  10.978  0.00  0.00    +0.000 C 
ATOM     11  C   UNL     1       5.579   1.433  11.149  0.00  0.00    +0.000 C 
ENDBRANCH   9  11
ENDBRANCH   8   9
ENDBRANCH   2   8
ENDBRANCH   1   5
BRANCH   1  12
ATOM     12  C   UNL     1       7.073   5.050  18.298  0.00  0.00    +0.000 C 
ATOM     13  C   UNL     1       7.874   5.670  19.445  0.00  0.00    +0.000 C 
BRANCH  12  14
ATOM     14  C   UNL     1       5.613   4.878  18.776  0.00  0.00    +0.000 C 
ATOM     15  O   UNL     1       5.056   5.755  19.437  0.00  0.00    +0.000 OA
ATOM     16  N   UNL     1       5.044   3.654  18.458  0.00  0.00    +0.000 N 
ATOM     17  C   UNL     1       3.745   3.387  18.812  0.00  0.00    +0.000 A 
ATOM     18  N   UNL     1       2.815   4.217  19.210  0.00  0.00    +0.000 NA
ATOM     19  C   UNL     1       1.688   3.513  19.576  0.00  0.00    +0.000 A 
ATOM     20  C   UNL     1       1.776   2.145  19.430  0.00  0.00    +0.000 A 
ATOM     21  S   UNL     1       3.298   1.740  18.737  0.00  0.00    +0.000 S 
ATOM     22  H   UNL     1       5.599   2.902  18.095  0.00  0.00    +0.000 HD
ENDBRANCH  12  14
ENDBRANCH   1  12
TORSDOF 6
ENDMDL
MODEL 7
REMARK VINA RESULT:      -6.4      1.150      1.295
REMARK  Name = 
REMARK  9 active torsions:
REMARK  status: ('A' for Active; 'I' for Inactive)
REMARK    1  A    between atoms: C_1  and  C_2
REMARK    2  A    between atoms: C_2  and  C_3
REMARK    3  A    between atoms: C_3  and  C_4
REMARK    4  A    between atoms: C_4  and  C_5
REMARK    5  A    between atoms: C_8  and  S_9
REMARK    6  A    between atoms: S_9  and  C_10
REMARK    7  A    between atoms: C_10  and  C_11
REMARK    8  A    between atoms: C_10  and  C_12
REMARK    9  A    between atoms: N_20  and  C_21
REMARK                            x       y       z     vdW  Elec       q    Type
REMARK                         _______ _______ _______ _____ _____    ______ ____
ROOT
ATOM      1  S   UNL     1       5.914   6.139  17.282  0.00  0.00    +0.000 S 
ENDROOT
BRANCH   1   5
ATOM      2  C   UNL     1       6.489   4.359  13.874  0.00  0.00    +0.000 A 
ATOM      3  N   UNL     1       7.596   5.066  13.965  0.00  0.00    +0.000 NA
ATOM      4  N   UNL     1       7.569   5.754  15.154  0.00  0.00    +0.000 NA
ATOM      5  C   UNL     1       6.436   5.485  15.757  0.00  0.00    +0.000 A 
ATOM      6  N   UNL     1       5.718   4.599  14.996  0.00  0.00    +0.000 N 
ATOM      7  C   UNL     1       4.440   3.985  15.246  0.00  0.00    +0.000 C 
BRANCH   2   8
ATOM      8  C   UNL     1       6.124   3.419  12.771  0.00  0.00    +0.000 C 
BRANCH   8   9
ATOM      9  C   UNL     1       7.192   3.378  11.677  0.00  0.00    +0.000 C 
BRANCH   9  11
ATOM     10  C   UNL     1       6.005   1.201  11.233  0.00  0.00    +0.000 C 
ATOM     11  C   UNL     1       7.291   1.989  11.044  0.00  0.00    +0.000 C 
ENDBRANCH   9  11
ENDBRANCH   8   9
ENDBRANCH   2   8
ENDBRANCH   1   5
BRANCH   1  12
ATOM     12  C   UNL     1       6.528   4.911  18.521  0.00  0.00    +0.000 C 
ATOM     13  C   UNL     1       7.245   5.572  19.701  0.00  0.00    +0.000 C 
BRANCH  12  14
ATOM     14  C   UNL     1       5.319   4.126  19.079  0.00  0.00    +0.000 C 
ATOM     15  O   UNL     1       5.475   3.224  19.902  0.00  0.00    +0.000 OA
ATOM     16  N   UNL     1       4.098   4.479  18.524  0.00  0.00    +0.000 N 
ATOM     17  C   UNL     1       2.946   3.867  18.951  0.00  0.00    +0.000 A 
ATOM     18  N   UNL     1       2.751   3.134  20.017  0.00  0.00    +0.000 NA
ATOM     19  C   UNL     1       1.474   2.618  20.001  0.00  0.00    +0.000 A 
ATOM     20  C   UNL     1       0.704   2.988  18.920  0.00  0.00    +0.000 A 
ATOM     21  S   UNL     1       1.592   4.082  17.933  0.00  0.00    +0.000 S 
ATOM     22  H   UNL     1       4.046   5.077  17.721  0.00  0.00    +0.000 HD
ENDBRANCH  12  14
ENDBRANCH   1  12
TORSDOF 6
ENDMDL
MODEL 8
REMARK VINA RESULT:      -6.3      4.582      5.032
REMARK  Name = 
REMARK  9 active torsions:
REMARK  status: ('A' for Active; 'I' for Inactive)
REMARK    1  A    between atoms: C_1  and  C_2
REMARK    2  A    between atoms: C_2  and  C_3
REMARK    3  A    between atoms: C_3  and  C_4
REMARK    4  A    between atoms: C_4  and  C_5
REMARK    5  A    between atoms: C_8  and  S_9
REMARK    6  A    between atoms: S_9  and  C_10
REMARK    7  A    between atoms: C_10  and  C_11
REMARK    8  A    between atoms: C_10  and  C_12
REMARK    9  A    between atoms: N_20  and  C_21
REMARK                            x       y       z     vdW  Elec       q    Type
REMARK                         _______ _______ _______ _____ _____    ______ ____
ROOT
ATOM      1  S   UNL     1       2.770   5.971  18.706  0.00  0.00    +0.000 S 
ENDROOT
BRANCH   1   5
ATOM      2  C   UNL     1       5.280   4.942  15.921  0.00  0.00    +0.000 A 
ATOM      3  N   UNL     1       5.373   6.254  15.855  0.00  0.00    +0.000 NA
ATOM      4  N   UNL     1       4.549   6.792  16.814  0.00  0.00    +0.000 NA
ATOM      5  C   UNL     1       3.941   5.806  17.430  0.00  0.00    +0.000 A 
ATOM      6  N   UNL     1       4.374   4.613  16.912  0.00  0.00    +0.000 N 
ATOM      7  C   UNL     1       4.029   3.264  17.275  0.00  0.00    +0.000 C 
BRANCH   2   8
ATOM      8  C   UNL     1       6.045   3.956  15.099  0.00  0.00    +0.000 C 
BRANCH   8   9
ATOM      9  C   UNL     1       6.700   4.611  13.882  0.00  0.00    +0.000 C 
BRANCH   9  11
ATOM     10  C   UNL     1       5.098   3.428  12.340  0.00  0.00    +0.000 C 
ATOM     11  C   UNL     1       6.557   3.740  12.633  0.00  0.00    +0.000 C 
ENDBRANCH   9  11
ENDBRANCH   8   9
ENDBRANCH   2   8
ENDBRANCH   1   5
BRANCH   1  12
ATOM     12  C   UNL     1       2.512   7.798  18.833  0.00  0.00    +0.000 C 
ATOM     13  C   UNL     1       1.732   8.367  17.645  0.00  0.00    +0.000 C 
BRANCH  12  14
ATOM     14  C   UNL     1       1.706   8.095  20.118  0.00  0.00    +0.000 C 
ATOM     15  O   UNL     1       1.456   7.202  20.928  0.00  0.00    +0.000 OA
ATOM     16  N   UNL     1       1.249   9.400  20.222  0.00  0.00    +0.000 N 
ATOM     17  C   UNL     1       0.536   9.792  21.327  0.00  0.00    +0.000 A 
ATOM     18  N   UNL     1       0.404   9.185  22.478  0.00  0.00    +0.000 NA
ATOM     19  C   UNL     1      -0.496   9.869  23.266  0.00  0.00    +0.000 A 
ATOM     20  C   UNL     1      -1.024  11.010  22.700  0.00  0.00    +0.000 A 
ATOM     21  S   UNL     1      -0.305  11.269  21.159  0.00  0.00    +0.000 S 
ATOM     22  H   UNL     1       1.309  10.034  19.448  0.00  0.00    +0.000 HD
ENDBRANCH  12  14
ENDBRANCH   1  12
TORSDOF 6
ENDMDL
MODEL 9
REMARK VINA RESULT:      -6.2      1.072      1.189
REMARK  Name = 
REMARK  9 active torsions:
REMARK  status: ('A' for Active; 'I' for Inactive)
REMARK    1  A    between atoms: C_1  and  C_2
REMARK    2  A    between atoms: C_2  and  C_3
REMARK    3  A    between atoms: C_3  and  C_4
REMARK    4  A    between atoms: C_4  and  C_5
REMARK    5  A    between atoms: C_8  and  S_9
REMARK    6  A    between atoms: S_9  and  C_10
REMARK    7  A    between atoms: C_10  and  C_11
REMARK    8  A    between atoms: C_10  and  C_12
REMARK    9  A    between atoms: N_20  and  C_21
REMARK                            x       y       z     vdW  Elec       q    Type
REMARK                         _______ _______ _______ _____ _____    ______ ____
ROOT
ATOM      1  S   UNL     1       7.171   5.609  18.023  0.00  0.00    +0.000 S 
ENDROOT
BRANCH   1   5
ATOM      2  C   UNL     1       6.674   4.391  14.365  0.00  0.00    +0.000 A 
ATOM      3  N   UNL     1       7.393   5.475  14.161  0.00  0.00    +0.000 NA
ATOM      4  N   UNL     1       7.687   6.031  15.383  0.00  0.00    +0.000 NA
ATOM      5  C   UNL     1       7.120   5.300  16.312  0.00  0.00    +0.000 A 
ATOM      6  N   UNL     1       6.474   4.243  15.725  0.00  0.00    +0.000 N 
ATOM      7  C   UNL     1       5.740   3.158  16.321  0.00  0.00    +0.000 C 
BRANCH   2   8
ATOM      8  C   UNL     1       6.181   3.443  13.320  0.00  0.00    +0.000 C 
BRANCH   8   9
ATOM      9  C   UNL     1       5.112   4.080  12.430  0.00  0.00    +0.000 C 
BRANCH   9  11
ATOM     10  C   UNL     1       5.404   1.860  11.275  0.00  0.00    +0.000 C 
ATOM     11  C   UNL     1       4.484   3.051  11.487  0.00  0.00    +0.000 C 
ENDBRANCH   9  11
ENDBRANCH   8   9
ENDBRANCH   2   8
ENDBRANCH   1   5
BRANCH   1  12
ATOM     12  C   UNL     1       5.433   6.089  18.437  0.00  0.00    +0.000 C 
ATOM     13  C   UNL     1       4.579   6.338  17.191  0.00  0.00    +0.000 C 
BRANCH  12  14
ATOM     14  C   UNL     1       4.782   4.939  19.238  0.00  0.00    +0.000 C 
ATOM     15  O   UNL     1       5.401   3.901  19.473  0.00  0.00    +0.000 OA
ATOM     16  N   UNL     1       3.458   5.159  19.588  0.00  0.00    +0.000 N 
ATOM     17  C   UNL     1       2.774   4.220  20.318  0.00  0.00    +0.000 A 
ATOM     18  N   UNL     1       3.243   3.198  20.987  0.00  0.00    +0.000 NA
ATOM     19  C   UNL     1       2.200   2.443  21.477  0.00  0.00    +0.000 A 
ATOM     20  C   UNL     1       0.940   2.921  21.185  0.00  0.00    +0.000 A 
ATOM     21  S   UNL     1       1.077   4.410  20.333  0.00  0.00    +0.000 S 
ATOM     22  H   UNL     1       2.941   5.929  19.205  0.00  0.00    +0.000 HD
ENDBRANCH  12  14
ENDBRANCH   1  12
TORSDOF 6
ENDMDL
