MODEL 1
REMARK VINA RESULT:      -8.4      0.000      0.000
REMARK  Name = 
REMARK  6 active torsions:
REMARK  status: ('A' for Active; 'I' for Inactive)
REMARK    1  A    between atoms: C_1  and  O_2
REMARK    2  A    between atoms: O_2  and  C_3
REMARK    3  A    between atoms: C_15  and  C_16
REMARK    4  A    between atoms: C_19  and  C_20
REMARK    5  A    between atoms: C_20  and  C_21
REMARK    6  A    between atoms: C_24  and  C_25
REMARK                            x       y       z     vdW  Elec       q    Type
REMARK                         _______ _______ _______ _____ _____    ______ ____
ROOT
ATOM      1  C   UNL     1       3.681   3.895  17.997  0.00  0.00    +0.000 A 
ATOM      2  C   UNL     1       4.012   4.955  17.161  0.00  0.00    +0.000 A 
ATOM      3  C   UNL     1       3.574   6.246  17.454  0.00  0.00    +0.000 A 
ATOM      4  C   UNL     1       2.784   6.509  18.583  0.00  0.00    +0.000 A 
ATOM      5  C   UNL     1       2.456   5.438  19.437  0.00  0.00    +0.000 A 
ATOM      6  C   UNL     1       2.901   4.140  19.127  0.00  0.00    +0.000 A 
ATOM      7  C   UNL     1       1.583   5.624  20.654  0.00  0.00    +0.000 C 
ATOM      8  C   UNL     1       1.487   7.073  21.124  0.00  0.00    +0.000 C 
ATOM      9  C   UNL     1       1.197   7.988  19.933  0.00  0.00    +0.000 C 
ATOM     10  C   UNL     1       2.401   7.935  18.944  0.00  0.00    +0.000 C 
ATOM     11  C   UNL     1       2.174   8.879  17.736  0.00  0.00    +0.000 C 
ATOM     12  C   UNL     1       1.854  10.316  18.171  0.00  0.00    +0.000 C 
ATOM     13  C   UNL     1       0.682  10.350  19.146  0.00  0.00    +0.000 C 
ATOM     14  C   UNL     1      -0.634  10.038  18.408  0.00  0.00    +0.000 C 
ATOM     15  C   UNL     1       0.509  11.631  19.941  0.00  0.00    +0.000 C 
ATOM     16  O   UNL     1       0.901  12.733  19.577  0.00  0.00    +0.000 OA
ATOM     17  C   UNL     1      -0.144  11.353  21.296  0.00  0.00    +0.000 C 
ATOM     18  C   UNL     1      -0.070   9.809  21.382  0.00  0.00    +0.000 C 
ATOM     19  C   UNL     1       1.001   9.445  20.353  0.00  0.00    +0.000 C 
ENDROOT
BRANCH   1  21
ATOM     20  C   UNL     1       3.332   1.625  18.552  0.00  0.00    +0.000 C 
ATOM     21  O   UNL     1       4.065   2.595  17.811  0.00  0.00    +0.000 OA
ENDBRANCH   1  21
BRANCH  17  22
ATOM     22  C   UNL     1      -1.573  11.886  21.364  0.00  0.00    +0.000 C 
BRANCH  22  23
ATOM     23  C   UNL     1      -1.779  12.978  22.389  0.00  0.00    +0.000 A 
ATOM     24  C   UNL     1      -2.954  13.041  23.150  0.00  0.00    +0.000 A 
ATOM     25  C   UNL     1      -3.098  13.995  24.169  0.00  0.00    +0.000 A 
ATOM     26  C   UNL     1      -2.054  14.877  24.461  0.00  0.00    +0.000 A 
ATOM     27  C   UNL     1      -0.892  14.833  23.681  0.00  0.00    +0.000 A 
ATOM     28  C   UNL     1      -0.764  13.908  22.642  0.00  0.00    +0.000 A 
BRANCH  26  29
ATOM     29  C   UNL     1      -2.083  15.849  25.597  0.00  0.00    +0.000 C 
ATOM     30  N   UNL     1      -1.162  15.714  26.598  0.00  0.00    +0.000 N 
ATOM     31  O   UNL     1      -2.897  16.757  25.639  0.00  0.00    +0.000 OA
ATOM     32  H   UNL     1      -0.423  15.031  26.625  0.00  0.00    +0.000 HD
ATOM     33  H   UNL     1      -1.187  16.415  27.327  0.00  0.00    +0.000 HD
ENDBRANCH  26  29
ENDBRANCH  22  23
ENDBRANCH  17  22
TORSDOF 4
ENDMDL
MODEL 2
REMARK VINA RESULT:      -8.4      0.818      1.184
REMARK  Name = 
REMARK  6 active torsions:
REMARK  status: ('A' for Active; 'I' for Inactive)
REMARK    1  A    between atoms: C_1  and  O_2
REMARK    2  A    between atoms: O_2  and  C_3
REMARK    3  A    between atoms: C_15  and  C_16
REMARK    4  A    between atoms: C_19  and  C_20
REMARK    5  A    between atoms: C_20  and  C_21
REMARK    6  A    between atoms: C_24  and  C_25
REMARK                            x       y       z     vdW  Elec       q    Type
REMARK                         _______ _______ _______ _____ _____    ______ ____
ROOT
ATOM      1  C   UNL     1       3.686   3.377  17.889  0.00  0.00    +0.000 A 
ATOM      2  C   UNL     1       4.121   4.419  17.077  0.00  0.00    +0.000 A 
ATOM      3  C   UNL     1       3.743   5.732  17.353  0.00  0.00    +0.000 A 
ATOM      4  C   UNL     1       2.911   6.037  18.440  0.00  0.00    +0.000 A 
ATOM      5  C   UNL     1       2.477   4.985  19.270  0.00  0.00    +0.000 A 
ATOM      6  C   UNL     1       2.862   3.664  18.978  0.00  0.00    +0.000 A 
ATOM      7  C   UNL     1       1.552   5.218  20.440  0.00  0.00    +0.000 C 
ATOM      8  C   UNL     1       1.516   6.669  20.912  0.00  0.00    +0.000 C 
ATOM      9  C   UNL     1       1.342   7.603  19.712  0.00  0.00    +0.000 C 
ATOM     10  C   UNL     1       2.592   7.483  18.788  0.00  0.00    +0.000 C 
ATOM     11  C   UNL     1       2.484   8.440  17.574  0.00  0.00    +0.000 C 
ATOM     12  C   UNL     1       2.224   9.892  18.000  0.00  0.00    +0.000 C 
ATOM     13  C   UNL     1       1.007   9.992  18.912  0.00  0.00    +0.000 C 
ATOM     14  C   UNL     1      -0.285   9.758  18.103  0.00  0.00    +0.000 C 
ATOM     15  C   UNL     1       0.865  11.280  19.703  0.00  0.00    +0.000 C 
ATOM     16  O   UNL     1       1.339  12.357  19.366  0.00  0.00    +0.000 OA
ATOM     17  C   UNL     1       0.126  11.036  21.020  0.00  0.00    +0.000 C 
ATOM     18  C   UNL     1       0.107   9.490  21.102  0.00  0.00    +0.000 C 
ATOM     19  C   UNL     1       1.208   9.068  20.129  0.00  0.00    +0.000 C 
ENDROOT
BRANCH   1  21
ATOM     20  C   UNL     1       3.729   1.208  18.826  0.00  0.00    +0.000 C 
ATOM     21  O   UNL     1       4.004   2.057  17.716  0.00  0.00    +0.000 OA
ENDBRANCH   1  21
BRANCH  17  22
ATOM     22  C   UNL     1      -1.271  11.651  21.016  0.00  0.00    +0.000 C 
BRANCH  22  23
ATOM     23  C   UNL     1      -1.547  12.573  22.181  0.00  0.00    +0.000 A 
ATOM     24  C   UNL     1      -0.729  13.682  22.433  0.00  0.00    +0.000 A 
ATOM     25  C   UNL     1      -1.047  14.590  23.454  0.00  0.00    +0.000 A 
ATOM     26  C   UNL     1      -2.207  14.419  24.215  0.00  0.00    +0.000 A 
ATOM     27  C   UNL     1      -3.009  13.294  23.982  0.00  0.00    +0.000 A 
ATOM     28  C   UNL     1      -2.670  12.369  22.990  0.00  0.00    +0.000 A 
BRANCH  26  29
ATOM     29  C   UNL     1      -2.675  15.395  25.245  0.00  0.00    +0.000 C 
ATOM     30  N   UNL     1      -3.946  15.888  25.151  0.00  0.00    +0.000 N 
ATOM     31  O   UNL     1      -1.955  15.746  26.166  0.00  0.00    +0.000 OA
ATOM     32  H   UNL     1      -4.627  15.621  24.459  0.00  0.00    +0.000 HD
ATOM     33  H   UNL     1      -4.240  16.514  25.890  0.00  0.00    +0.000 HD
ENDBRANCH  26  29
ENDBRANCH  22  23
ENDBRANCH  17  22
TORSDOF 4
ENDMDL
MODEL 3
REMARK VINA RESULT:      -8.2      4.437     11.158
REMARK  Name = 
REMARK  6 active torsions:
REMARK  status: ('A' for Active; 'I' for Inactive)
REMARK    1  A    between atoms: C_1  and  O_2
REMARK    2  A    between atoms: O_2  and  C_3
REMARK    3  A    between atoms: C_15  and  C_16
REMARK    4  A    between atoms: C_19  and  C_20
REMARK    5  A    between atoms: C_20  and  C_21
REMARK    6  A    between atoms: C_24  and  C_25
REMARK                            x       y       z     vdW  Elec       q    Type
REMARK                         _______ _______ _______ _____ _____    ______ ____
ROOT
ATOM      1  C   UNL     1      -0.773  11.071  20.824  0.00  0.00    +0.000 A 
ATOM      2  C   UNL     1      -0.814  10.046  21.763  0.00  0.00    +0.000 A 
ATOM      3  C   UNL     1      -0.024   8.909  21.599  0.00  0.00    +0.000 A 
ATOM      4  C   UNL     1       0.818   8.760  20.487  0.00  0.00    +0.000 A 
ATOM      5  C   UNL     1       0.869   9.802  19.540  0.00  0.00    +0.000 A 
ATOM      6  C   UNL     1       0.064  10.942  19.715  0.00  0.00    +0.000 A 
ATOM      7  C   UNL     1       1.721   9.712  18.297  0.00  0.00    +0.000 C 
ATOM      8  C   UNL     1       2.828   8.665  18.388  0.00  0.00    +0.000 C 
ATOM      9  C   UNL     1       2.258   7.348  18.918  0.00  0.00    +0.000 C 
ATOM     10  C   UNL     1       1.749   7.563  20.377  0.00  0.00    +0.000 C 
ATOM     11  C   UNL     1       1.195   6.246  20.975  0.00  0.00    +0.000 C 
ATOM     12  C   UNL     1       2.209   5.096  20.887  0.00  0.00    +0.000 C 
ATOM     13  C   UNL     1       2.705   4.905  19.458  0.00  0.00    +0.000 C 
ATOM     14  C   UNL     1       1.592   4.294  18.585  0.00  0.00    +0.000 C 
ATOM     15  C   UNL     1       3.969   4.080  19.292  0.00  0.00    +0.000 C 
ATOM     16  O   UNL     1       4.349   3.226  20.082  0.00  0.00    +0.000 OA
ATOM     17  C   UNL     1       4.751   4.518  18.052  0.00  0.00    +0.000 C 
ATOM     18  C   UNL     1       4.040   5.838  17.668  0.00  0.00    +0.000 C 
ATOM     19  C   UNL     1       3.302   6.232  18.947  0.00  0.00    +0.000 C 
ENDROOT
BRANCH   1  21
ATOM     20  C   UNL     1      -2.600  12.320  19.996  0.00  0.00    +0.000 C 
ATOM     21  O   UNL     1      -1.496  12.231  20.891  0.00  0.00    +0.000 OA
ENDBRANCH   1  21
BRANCH  17  22
ATOM     22  C   UNL     1       4.701   3.469  16.944  0.00  0.00    +0.000 C 
BRANCH  22  23
ATOM     23  C   UNL     1       5.530   3.813  15.727  0.00  0.00    +0.000 A 
ATOM     24  C   UNL     1       5.091   3.484  14.438  0.00  0.00    +0.000 A 
ATOM     25  C   UNL     1       5.814   3.893  13.308  0.00  0.00    +0.000 A 
ATOM     26  C   UNL     1       6.970   4.667  13.452  0.00  0.00    +0.000 A 
ATOM     27  C   UNL     1       7.424   4.970  14.742  0.00  0.00    +0.000 A 
ATOM     28  C   UNL     1       6.724   4.530  15.868  0.00  0.00    +0.000 A 
BRANCH  26  29
ATOM     29  C   UNL     1       7.737   5.234  12.302  0.00  0.00    +0.000 C 
ATOM     30  N   UNL     1       8.720   6.148  12.557  0.00  0.00    +0.000 N 
ATOM     31  O   UNL     1       7.512   4.889  11.153  0.00  0.00    +0.000 OA
ATOM     32  H   UNL     1       9.011   6.455  13.471  0.00  0.00    +0.000 HD
ATOM     33  H   UNL     1       9.245   6.478  11.757  0.00  0.00    +0.000 HD
ENDBRANCH  26  29
ENDBRANCH  22  23
ENDBRANCH  17  22
TORSDOF 4
ENDMDL
MODEL 4
REMARK VINA RESULT:      -8.1      0.692      1.011
REMARK  Name = 
REMARK  6 active torsions:
REMARK  status: ('A' for Active; 'I' for Inactive)
REMARK    1  A    between atoms: C_1  and  O_2
REMARK    2  A    between atoms: O_2  and  C_3
REMARK    3  A    between atoms: C_15  and  C_16
REMARK    4  A    between atoms: C_19  and  C_20
REMARK    5  A    between atoms: C_20  and  C_21
REMARK    6  A    between atoms: C_24  and  C_25
REMARK                            x       y       z     vdW  Elec       q    Type
REMARK                         _______ _______ _______ _____ _____    ______ ____
ROOT
ATOM      1  C   UNL     1       3.745   4.051  18.366  0.00  0.00    +0.000 A 
ATOM      2  C   UNL     1       4.075   5.056  17.465  0.00  0.00    +0.000 A 
ATOM      3  C   UNL     1       3.595   6.352  17.649  0.00  0.00    +0.000 A 
ATOM      4  C   UNL     1       2.763   6.674  18.731  0.00  0.00    +0.000 A 
ATOM      5  C   UNL     1       2.435   5.659  19.652  0.00  0.00    +0.000 A 
ATOM      6  C   UNL     1       2.923   4.355  19.452  0.00  0.00    +0.000 A 
ATOM      7  C   UNL     1       1.519   5.909  20.825  0.00  0.00    +0.000 C 
ATOM      8  C   UNL     1       1.372   7.385  21.184  0.00  0.00    +0.000 C 
ATOM      9  C   UNL     1       1.096   8.203  19.921  0.00  0.00    +0.000 C 
ATOM     10  C   UNL     1       2.333   8.112  18.974  0.00  0.00    +0.000 C 
ATOM     11  C   UNL     1       2.120   8.958  17.694  0.00  0.00    +0.000 C 
ATOM     12  C   UNL     1       1.749  10.414  18.013  0.00  0.00    +0.000 C 
ATOM     13  C   UNL     1       0.547  10.486  18.947  0.00  0.00    +0.000 C 
ATOM     14  C   UNL     1      -0.737  10.085  18.194  0.00  0.00    +0.000 C 
ATOM     15  C   UNL     1       0.315  11.817  19.640  0.00  0.00    +0.000 C 
ATOM     16  O   UNL     1       0.691  12.899  19.208  0.00  0.00    +0.000 OA
ATOM     17  C   UNL     1      -0.373  11.619  20.992  0.00  0.00    +0.000 C 
ATOM     18  C   UNL     1      -0.262  10.088  21.193  0.00  0.00    +0.000 C 
ATOM     19  C   UNL     1       0.850   9.681  20.227  0.00  0.00    +0.000 C 
ENDROOT
BRANCH   1  21
ATOM     20  C   UNL     1       3.136   1.771  18.229  0.00  0.00    +0.000 C 
ATOM     21  O   UNL     1       4.168   2.751  18.287  0.00  0.00    +0.000 OA
ENDBRANCH   1  21
BRANCH  17  22
ATOM     22  C   UNL     1      -1.817  12.116  20.978  0.00  0.00    +0.000 C 
BRANCH  22  23
ATOM     23  C   UNL     1      -2.154  13.074  22.098  0.00  0.00    +0.000 A 
ATOM     24  C   UNL     1      -1.194  13.435  23.052  0.00  0.00    +0.000 A 
ATOM     25  C   UNL     1      -1.481  14.400  24.029  0.00  0.00    +0.000 A 
ATOM     26  C   UNL     1      -2.724  15.040  24.043  0.00  0.00    +0.000 A 
ATOM     27  C   UNL     1      -3.693  14.657  23.108  0.00  0.00    +0.000 A 
ATOM     28  C   UNL     1      -3.419  13.669  22.159  0.00  0.00    +0.000 A 
BRANCH  26  29
ATOM     29  C   UNL     1      -3.073  16.152  24.979  0.00  0.00    +0.000 C 
ATOM     30  N   UNL     1      -2.060  16.828  25.600  0.00  0.00    +0.000 N 
ATOM     31  O   UNL     1      -4.233  16.472  25.186  0.00  0.00    +0.000 OA
ATOM     32  H   UNL     1      -1.077  16.671  25.454  0.00  0.00    +0.000 HD
ATOM     33  H   UNL     1      -2.335  17.601  26.193  0.00  0.00    +0.000 HD
ENDBRANCH  26  29
ENDBRANCH  22  23
ENDBRANCH  17  22
TORSDOF 4
ENDMDL
MODEL 5
REMARK VINA RESULT:      -7.8      1.245      1.571
REMARK  Name = 
REMARK  6 active torsions:
REMARK  status: ('A' for Active; 'I' for Inactive)
REMARK    1  A    between atoms: C_1  and  O_2
REMARK    2  A    between atoms: O_2  and  C_3
REMARK    3  A    between atoms: C_15  and  C_16
REMARK    4  A    between atoms: C_19  and  C_20
REMARK    5  A    between atoms: C_20  and  C_21
REMARK    6  A    between atoms: C_24  and  C_25
REMARK                            x       y       z     vdW  Elec       q    Type
REMARK                         _______ _______ _______ _____ _____    ______ ____
ROOT
ATOM      1  C   UNL     1       3.996   4.972  17.686  0.00  0.00    +0.000 A 
ATOM      2  C   UNL     1       4.154   6.147  16.961  0.00  0.00    +0.000 A 
ATOM      3  C   UNL     1       3.558   7.329  17.398  0.00  0.00    +0.000 A 
ATOM      4  C   UNL     1       2.778   7.365  18.563  0.00  0.00    +0.000 A 
ATOM      5  C   UNL     1       2.625   6.177  19.306  0.00  0.00    +0.000 A 
ATOM      6  C   UNL     1       3.229   4.991  18.851  0.00  0.00    +0.000 A 
ATOM      7  C   UNL     1       1.777   6.117  20.552  0.00  0.00    +0.000 C 
ATOM      8  C   UNL     1       1.505   7.484  21.175  0.00  0.00    +0.000 C 
ATOM      9  C   UNL     1       1.055   8.468  20.094  0.00  0.00    +0.000 C 
ATOM     10  C   UNL     1       2.222   8.682  19.081  0.00  0.00    +0.000 C 
ATOM     11  C   UNL     1       1.830   9.704  17.985  0.00  0.00    +0.000 C 
ATOM     12  C   UNL     1       1.336  11.032  18.576  0.00  0.00    +0.000 C 
ATOM     13  C   UNL     1       0.204  10.806  19.572  0.00  0.00    +0.000 C 
ATOM     14  C   UNL     1      -1.084  10.395  18.831  0.00  0.00    +0.000 C 
ATOM     15  C   UNL     1      -0.112  11.964  20.502  0.00  0.00    +0.000 C 
ATOM     16  O   UNL     1       0.117  13.139  20.249  0.00  0.00    +0.000 OA
ATOM     17  C   UNL     1      -0.676  11.462  21.832  0.00  0.00    +0.000 C 
ATOM     18  C   UNL     1      -0.394   9.941  21.752  0.00  0.00    +0.000 C 
ATOM     19  C   UNL     1       0.681   9.834  20.670  0.00  0.00    +0.000 C 
ENDROOT
BRANCH   1  21
ATOM     20  C   UNL     1       5.381   3.759  16.203  0.00  0.00    +0.000 C 
ATOM     21  O   UNL     1       4.544   3.762  17.355  0.00  0.00    +0.000 OA
ENDBRANCH   1  21
BRANCH  17  22
ATOM     22  C   UNL     1      -2.160  11.785  21.985  0.00  0.00    +0.000 C 
BRANCH  22  23
ATOM     23  C   UNL     1      -2.450  12.946  22.910  0.00  0.00    +0.000 A 
ATOM     24  C   UNL     1      -1.414  13.743  23.413  0.00  0.00    +0.000 A 
ATOM     25  C   UNL     1      -1.695  14.878  24.189  0.00  0.00    +0.000 A 
ATOM     26  C   UNL     1      -3.019  15.248  24.443  0.00  0.00    +0.000 A 
ATOM     27  C   UNL     1      -4.053  14.434  23.964  0.00  0.00    +0.000 A 
ATOM     28  C   UNL     1      -3.771  13.283  23.224  0.00  0.00    +0.000 A 
BRANCH  26  29
ATOM     29  C   UNL     1      -3.406  16.497  25.166  0.00  0.00    +0.000 C 
ATOM     30  N   UNL     1      -4.732  16.813  25.264  0.00  0.00    +0.000 N 
ATOM     31  O   UNL     1      -2.570  17.225  25.676  0.00  0.00    +0.000 OA
ATOM     32  H   UNL     1      -5.494  16.251  24.922  0.00  0.00    +0.000 HD
ATOM     33  H   UNL     1      -4.957  17.643  25.797  0.00  0.00    +0.000 HD
ENDBRANCH  26  29
ENDBRANCH  22  23
ENDBRANCH  17  22
TORSDOF 4
ENDMDL
MODEL 6
REMARK VINA RESULT:      -7.8      1.133      1.173
REMARK  Name = 
REMARK  6 active torsions:
REMARK  status: ('A' for Active; 'I' for Inactive)
REMARK    1  A    between atoms: C_1  and  O_2
REMARK    2  A    between atoms: O_2  and  C_3
REMARK    3  A    between atoms: C_15  and  C_16
REMARK    4  A    between atoms: C_19  and  C_20
REMARK    5  A    between atoms: C_20  and  C_21
REMARK    6  A    between atoms: C_24  and  C_25
REMARK                            x       y       z     vdW  Elec       q    Type
REMARK                         _______ _______ _______ _____ _____    ______ ____
ROOT
ATOM      1  C   UNL     1       3.400   3.629  19.022  0.00  0.00    +0.000 A 
ATOM      2  C   UNL     1       3.867   4.469  18.018  0.00  0.00    +0.000 A 
ATOM      3  C   UNL     1       3.505   5.815  18.001  0.00  0.00    +0.000 A 
ATOM      4  C   UNL     1       2.656   6.354  18.979  0.00  0.00    +0.000 A 
ATOM      5  C   UNL     1       2.189   5.507  20.004  0.00  0.00    +0.000 A 
ATOM      6  C   UNL     1       2.559   4.149  20.006  0.00  0.00    +0.000 A 
ATOM      7  C   UNL     1       1.246   5.994  21.077  0.00  0.00    +0.000 C 
ATOM      8  C   UNL     1       1.224   7.512  21.229  0.00  0.00    +0.000 C 
ATOM      9  C   UNL     1       1.089   8.172  19.855  0.00  0.00    +0.000 C 
ATOM     10  C   UNL     1       2.355   7.844  19.006  0.00  0.00    +0.000 C 
ATOM     11  C   UNL     1       2.286   8.523  17.615  0.00  0.00    +0.000 C 
ATOM     12  C   UNL     1       2.041  10.035  17.717  0.00  0.00    +0.000 C 
ATOM     13  C   UNL     1       0.808  10.340  18.559  0.00  0.00    +0.000 C 
ATOM     14  C   UNL     1      -0.471   9.956  17.790  0.00  0.00    +0.000 C 
ATOM     15  C   UNL     1       0.672  11.768  19.056  0.00  0.00    +0.000 C 
ATOM     16  O   UNL     1       1.169  12.744  18.509  0.00  0.00    +0.000 OA
ATOM     17  C   UNL     1      -0.097  11.819  20.378  0.00  0.00    +0.000 C 
ATOM     18  C   UNL     1      -0.143  10.325  20.785  0.00  0.00    +0.000 C 
ATOM     19  C   UNL     1       0.970   9.693  19.949  0.00  0.00    +0.000 C 
ENDROOT
BRANCH   1  21
ATOM     20  C   UNL     1       4.708   1.977  20.093  0.00  0.00    +0.000 C 
ATOM     21  O   UNL     1       3.699   2.298  19.140  0.00  0.00    +0.000 OA
ENDBRANCH   1  21
BRANCH  17  22
ATOM     22  C   UNL     1      -1.484  12.434  20.212  0.00  0.00    +0.000 C 
BRANCH  22  23
ATOM     23  C   UNL     1      -1.995  13.151  21.441  0.00  0.00    +0.000 A 
ATOM     24  C   UNL     1      -2.653  12.454  22.462  0.00  0.00    +0.000 A 
ATOM     25  C   UNL     1      -3.036  13.105  23.644  0.00  0.00    +0.000 A 
ATOM     26  C   UNL     1      -2.735  14.457  23.833  0.00  0.00    +0.000 A 
ATOM     27  C   UNL     1      -2.104  15.161  22.800  0.00  0.00    +0.000 A 
ATOM     28  C   UNL     1      -1.757  14.520  21.608  0.00  0.00    +0.000 A 
BRANCH  26  29
ATOM     29  C   UNL     1      -3.010  15.198  25.102  0.00  0.00    +0.000 C 
ATOM     30  N   UNL     1      -4.140  15.962  25.183  0.00  0.00    +0.000 N 
ATOM     31  O   UNL     1      -2.258  15.123  26.061  0.00  0.00    +0.000 OA
ATOM     32  H   UNL     1      -4.842  16.045  24.466  0.00  0.00    +0.000 HD
ATOM     33  H   UNL     1      -4.312  16.415  26.071  0.00  0.00    +0.000 HD
ENDBRANCH  26  29
ENDBRANCH  22  23
ENDBRANCH  17  22
TORSDOF 4
ENDMDL
MODEL 7
REMARK VINA RESULT:      -7.7      1.008      1.052
REMARK  Name = 
REMARK  6 active torsions:
REMARK  status: ('A' for Active; 'I' for Inactive)
REMARK    1  A    between atoms: C_1  and  O_2
REMARK    2  A    between atoms: O_2  and  C_3
REMARK    3  A    between atoms: C_15  and  C_16
REMARK    4  A    between atoms: C_19  and  C_20
REMARK    5  A    between atoms: C_20  and  C_21
REMARK    6  A    between atoms: C_24  and  C_25
REMARK                            x       y       z     vdW  Elec       q    Type
REMARK                         _______ _______ _______ _____ _____    ______ ____
ROOT
ATOM      1  C   UNL     1       3.677   3.981  18.178  0.00  0.00    +0.000 A 
ATOM      2  C   UNL     1       3.992   4.992  17.276  0.00  0.00    +0.000 A 
ATOM      3  C   UNL     1       3.547   6.294  17.495  0.00  0.00    +0.000 A 
ATOM      4  C   UNL     1       2.764   6.619  18.612  0.00  0.00    +0.000 A 
ATOM      5  C   UNL     1       2.452   5.599  19.533  0.00  0.00    +0.000 A 
ATOM      6  C   UNL     1       2.905   4.288  19.298  0.00  0.00    +0.000 A 
ATOM      7  C   UNL     1       1.589   5.852  20.745  0.00  0.00    +0.000 C 
ATOM      8  C   UNL     1       1.486   7.326  21.127  0.00  0.00    +0.000 C 
ATOM      9  C   UNL     1       1.178   8.166  19.886  0.00  0.00    +0.000 C 
ATOM     10  C   UNL     1       2.374   8.062  18.890  0.00  0.00    +0.000 C 
ATOM     11  C   UNL     1       2.129   8.929  17.630  0.00  0.00    +0.000 C 
ATOM     12  C   UNL     1       1.801  10.387  17.981  0.00  0.00    +0.000 C 
ATOM     13  C   UNL     1       0.638  10.472  18.962  0.00  0.00    +0.000 C 
ATOM     14  C   UNL     1      -0.682  10.107  18.256  0.00  0.00    +0.000 C 
ATOM     15  C   UNL     1       0.462  11.798  19.680  0.00  0.00    +0.000 C 
ATOM     16  O   UNL     1       0.842  12.878  19.246  0.00  0.00    +0.000 OA
ATOM     17  C   UNL     1      -0.177  11.597  21.055  0.00  0.00    +0.000 C 
ATOM     18  C   UNL     1      -0.090  10.061  21.234  0.00  0.00    +0.000 C 
ATOM     19  C   UNL     1       0.974   9.644  20.219  0.00  0.00    +0.000 C 
ENDROOT
BRANCH   1  21
ATOM     20  C   UNL     1       3.101   1.706  18.456  0.00  0.00    +0.000 C 
ATOM     21  O   UNL     1       4.070   2.675  18.067  0.00  0.00    +0.000 OA
ENDBRANCH   1  21
BRANCH  17  22
ATOM     22  C   UNL     1      -1.609  12.123  21.104  0.00  0.00    +0.000 C 
BRANCH  22  23
ATOM     23  C   UNL     1      -1.786  13.363  21.951  0.00  0.00    +0.000 A 
ATOM     24  C   UNL     1      -2.428  14.499  21.442  0.00  0.00    +0.000 A 
ATOM     25  C   UNL     1      -2.679  15.609  22.262  0.00  0.00    +0.000 A 
ATOM     26  C   UNL     1      -2.320  15.583  23.613  0.00  0.00    +0.000 A 
ATOM     27  C   UNL     1      -1.652  14.458  24.114  0.00  0.00    +0.000 A 
ATOM     28  C   UNL     1      -1.369  13.369  23.287  0.00  0.00    +0.000 A 
BRANCH  26  29
ATOM     29  C   UNL     1      -2.646  16.676  24.579  0.00  0.00    +0.000 C 
ATOM     30  N   UNL     1      -3.544  17.635  24.204  0.00  0.00    +0.000 N 
ATOM     31  O   UNL     1      -2.141  16.719  25.689  0.00  0.00    +0.000 OA
ATOM     32  H   UNL     1      -4.049  17.656  23.333  0.00  0.00    +0.000 HD
ATOM     33  H   UNL     1      -3.770  18.334  24.900  0.00  0.00    +0.000 HD
ENDBRANCH  26  29
ENDBRANCH  22  23
ENDBRANCH  17  22
TORSDOF 4
ENDMDL
MODEL 8
REMARK VINA RESULT:      -7.7      1.886      2.364
REMARK  Name = 
REMARK  6 active torsions:
REMARK  status: ('A' for Active; 'I' for Inactive)
REMARK    1  A    between atoms: C_1  and  O_2
REMARK    2  A    between atoms: O_2  and  C_3
REMARK    3  A    between atoms: C_15  and  C_16
REMARK    4  A    between atoms: C_19  and  C_20
REMARK    5  A    between atoms: C_20  and  C_21
REMARK    6  A    between atoms: C_24  and  C_25
REMARK                            x       y       z     vdW  Elec       q    Type
REMARK                         _______ _______ _______ _____ _____    ______ ____
ROOT
ATOM      1  C   UNL     1       2.496   4.139  19.552  0.00  0.00    +0.000 A 
ATOM      2  C   UNL     1       2.936   4.783  18.402  0.00  0.00    +0.000 A 
ATOM      3  C   UNL     1       2.777   6.161  18.262  0.00  0.00    +0.000 A 
ATOM      4  C   UNL     1       2.163   6.929  19.262  0.00  0.00    +0.000 A 
ATOM      5  C   UNL     1       1.726   6.280  20.433  0.00  0.00    +0.000 A 
ATOM      6  C   UNL     1       1.888   4.889  20.560  0.00  0.00    +0.000 A 
ATOM      7  C   UNL     1       1.025   7.023  21.545  0.00  0.00    +0.000 C 
ATOM      8  C   UNL     1       1.248   8.533  21.508  0.00  0.00    +0.000 C 
ATOM      9  C   UNL     1       1.019   9.059  20.090  0.00  0.00    +0.000 C 
ATOM     10  C   UNL     1       2.091   8.443  19.139  0.00  0.00    +0.000 C 
ATOM     11  C   UNL     1       1.928   8.976  17.693  0.00  0.00    +0.000 C 
ATOM     12  C   UNL     1       1.926  10.510  17.636  0.00  0.00    +0.000 C 
ATOM     13  C   UNL     1       0.881  11.097  18.578  0.00  0.00    +0.000 C 
ATOM     14  C   UNL     1      -0.536  10.848  18.025  0.00  0.00    +0.000 C 
ATOM     15  C   UNL     1       1.028  12.572  18.906  0.00  0.00    +0.000 C 
ATOM     16  O   UNL     1       1.582  13.392  18.185  0.00  0.00    +0.000 OA
ATOM     17  C   UNL     1       0.469  12.884  20.296  0.00  0.00    +0.000 C 
ATOM     18  C   UNL     1       0.261  11.468  20.888  0.00  0.00    +0.000 C 
ATOM     19  C   UNL     1       1.141  10.581  20.008  0.00  0.00    +0.000 C 
ENDROOT
BRANCH   1  21
ATOM     20  C   UNL     1       3.827   2.195  19.370  0.00  0.00    +0.000 C 
ATOM     21  O   UNL     1       2.610   2.797  19.798  0.00  0.00    +0.000 OA
ENDBRANCH   1  21
BRANCH  17  22
ATOM     22  C   UNL     1      -0.821  13.696  20.225  0.00  0.00    +0.000 C 
BRANCH  22  23
ATOM     23  C   UNL     1      -1.863  13.295  21.245  0.00  0.00    +0.000 A 
ATOM     24  C   UNL     1      -1.597  13.375  22.618  0.00  0.00    +0.000 A 
ATOM     25  C   UNL     1      -2.599  13.098  23.560  0.00  0.00    +0.000 A 
ATOM     26  C   UNL     1      -3.891  12.769  23.139  0.00  0.00    +0.000 A 
ATOM     27  C   UNL     1      -4.148  12.660  21.766  0.00  0.00    +0.000 A 
ATOM     28  C   UNL     1      -3.139  12.899  20.830  0.00  0.00    +0.000 A 
BRANCH  26  29
ATOM     29  C   UNL     1      -5.040  12.565  24.072  0.00  0.00    +0.000 C 
ATOM     30  N   UNL     1      -4.792  12.499  25.414  0.00  0.00    +0.000 N 
ATOM     31  O   UNL     1      -6.187  12.470  23.662  0.00  0.00    +0.000 OA
ATOM     32  H   UNL     1      -3.891  12.617  25.848  0.00  0.00    +0.000 HD
ATOM     33  H   UNL     1      -5.599  12.402  26.015  0.00  0.00    +0.000 HD
ENDBRANCH  26  29
ENDBRANCH  22  23
ENDBRANCH  17  22
TORSDOF 4
ENDMDL
MODEL 9
REMARK VINA RESULT:      -7.6      2.476      3.311
REMARK  Name = 
REMARK  6 active torsions:
REMARK  status: ('A' for Active; 'I' for Inactive)
REMARK    1  A    between atoms: C_1  and  O_2
REMARK    2  A    between atoms: O_2  and  C_3
REMARK    3  A    between atoms: C_15  and  C_16
REMARK    4  A    between atoms: C_19  and  C_20
REMARK    5  A    between atoms: C_20  and  C_21
REMARK    6  A    between atoms: C_24  and  C_25
REMARK                            x       y       z     vdW  Elec       q    Type
REMARK                         _______ _______ _______ _____ _____    ______ ____
ROOT
ATOM      1  C   UNL     1       2.367   5.505  19.772  0.00  0.00    +0.000 A 
ATOM      2  C   UNL     1       2.910   6.337  18.799  0.00  0.00    +0.000 A 
ATOM      3  C   UNL     1       2.567   7.687  18.757  0.00  0.00    +0.000 A 
ATOM      4  C   UNL     1       1.664   8.239  19.677  0.00  0.00    +0.000 A 
ATOM      5  C   UNL     1       1.121   7.401  20.670  0.00  0.00    +0.000 A 
ATOM      6  C   UNL     1       1.472   6.039  20.699  0.00  0.00    +0.000 A 
ATOM      7  C   UNL     1       0.116   7.903  21.679  0.00  0.00    +0.000 C 
ATOM      8  C   UNL     1       0.103   9.422  21.827  0.00  0.00    +0.000 C 
ATOM      9  C   UNL     1       0.066  10.079  20.447  0.00  0.00    +0.000 C 
ATOM     10  C   UNL     1       1.380   9.733  19.681  0.00  0.00    +0.000 C 
ATOM     11  C   UNL     1       1.410  10.410  18.288  0.00  0.00    +0.000 C 
ATOM     12  C   UNL     1       1.179  11.925  18.372  0.00  0.00    +0.000 C 
ATOM     13  C   UNL     1      -0.102  12.248  19.132  0.00  0.00    +0.000 C 
ATOM     14  C   UNL     1      -1.333  11.878  18.281  0.00  0.00    +0.000 C 
ATOM     15  C   UNL     1      -0.252  13.679  19.617  0.00  0.00    +0.000 C 
ATOM     16  O   UNL     1       0.293  14.647  19.101  0.00  0.00    +0.000 OA
ATOM     17  C   UNL     1      -1.103  13.742  20.886  0.00  0.00    +0.000 C 
ATOM     18  C   UNL     1      -1.195  12.251  21.291  0.00  0.00    +0.000 C 
ATOM     19  C   UNL     1      -0.039  11.602  20.530  0.00  0.00    +0.000 C 
ENDROOT
BRANCH   1  21
ATOM     20  C   UNL     1       3.345   3.571  18.828  0.00  0.00    +0.000 C 
ATOM     21  O   UNL     1       2.641   4.171  19.911  0.00  0.00    +0.000 OA
ENDBRANCH   1  21
BRANCH  17  22
ATOM     22  C   UNL     1      -2.468  14.375  20.629  0.00  0.00    +0.000 C 
BRANCH  22  23
ATOM     23  C   UNL     1      -3.559  13.895  21.559  0.00  0.00    +0.000 A 
ATOM     24  C   UNL     1      -3.716  14.451  22.836  0.00  0.00    +0.000 A 
ATOM     25  C   UNL     1      -4.790  14.074  23.655  0.00  0.00    +0.000 A 
ATOM     26  C   UNL     1      -5.741  13.159  23.194  0.00  0.00    +0.000 A 
ATOM     27  C   UNL     1      -5.568  12.582  21.930  0.00  0.00    +0.000 A 
ATOM     28  C   UNL     1      -4.477  12.930  21.130  0.00  0.00    +0.000 A 
BRANCH  26  29
ATOM     29  C   UNL     1      -6.970  12.786  23.958  0.00  0.00    +0.000 C 
ATOM     30  N   UNL     1      -7.622  13.756  24.666  0.00  0.00    +0.000 N 
ATOM     31  O   UNL     1      -7.405  11.644  23.950  0.00  0.00    +0.000 OA
ATOM     32  H   UNL     1      -7.370  14.730  24.691  0.00  0.00    +0.000 HD
ATOM     33  H   UNL     1      -8.473  13.473  25.135  0.00  0.00    +0.000 HD
ENDBRANCH  26  29
ENDBRANCH  22  23
ENDBRANCH  17  22
TORSDOF 4
ENDMDL
