MODEL 1
REMARK VINA RESULT:      -7.0      0.000      0.000
REMARK  Name = 
REMARK  9 active torsions:
REMARK  status: ('A' for Active; 'I' for Inactive)
REMARK    1  A    between atoms: C_1  and  C_2
REMARK    2  A    between atoms: C_2  and  C_4
REMARK    3  A    between atoms: C_5  and  C_6
REMARK    4  A    between atoms: C_8  and  C_9
REMARK    5  A    between atoms: N_11  and  C_12
REMARK    6  A    between atoms: C_12  and  C_13
REMARK    7  A    between atoms: C_13  and  C_14
REMARK    8  A    between atoms: C_14  and  N_15
REMARK    9  A    between atoms: C_20  and  C_21
REMARK                            x       y       z     vdW  Elec       q    Type
REMARK                         _______ _______ _______ _____ _____    ______ ____
ROOT
ATOM      1  C   UNL     1       6.414   5.964  18.809  0.00  0.00    +0.000 C 
ATOM      2  O   UNL     1       7.345   5.487  19.449  0.00  0.00    +0.000 OA
ATOM      3  N   UNL     1       6.611   7.038  17.957  0.00  0.00    +0.000 N 
ATOM      4  H   UNL     1       5.904   7.233  17.265  0.00  0.00    +0.000 HD
ENDROOT
BRANCH   1   9
ATOM      5  C   UNL     1       3.082   4.307  18.486  0.00  0.00    +0.000 A 
ATOM      6  C   UNL     1       2.986   4.981  19.701  0.00  0.00    +0.000 A 
ATOM      7  C   UNL     1       1.943   5.078  20.762  0.00  0.00    +0.000 C 
ATOM      8  N   UNL     1       4.167   5.671  19.887  0.00  0.00    +0.000 N 
ATOM      9  C   UNL     1       5.052   5.451  18.861  0.00  0.00    +0.000 A 
ATOM     10  C   UNL     1       4.400   4.612  17.962  0.00  0.00    +0.000 A 
ATOM     11  C   UNL     1       4.949   4.094  16.669  0.00  0.00    +0.000 C 
ATOM     12  H   UNL     1       4.382   6.217  20.712  0.00  0.00    +0.000 HD
BRANCH   5  14
ATOM     13  C   UNL     1       2.226   1.932  17.864  0.00  0.00    +0.000 C 
ATOM     14  C   UNL     1       2.094   3.432  17.814  0.00  0.00    +0.000 C 
ATOM     15  O   UNL     1       1.140   3.904  17.198  0.00  0.00    +0.000 OA
ENDBRANCH   5  14
ENDBRANCH   1   9
BRANCH   3  16
ATOM     16  C   UNL     1       7.963   7.532  17.717  0.00  0.00    +0.000 C 
BRANCH  16  17
ATOM     17  C   UNL     1       8.028   9.051  17.836  0.00  0.00    +0.000 C 
BRANCH  17  18
ATOM     18  C   UNL     1       9.053   9.518  18.884  0.00  0.00    +0.000 C 
BRANCH  18  19
ATOM     19  N   UNL     1       9.162  10.988  18.929  0.00  0.00    +0.000 NA
ATOM     20  C   UNL     1      10.213  11.542  18.063  0.00  0.00    +0.000 C 
ATOM     21  C   UNL     1      11.467  11.573  18.912  0.00  0.00    +0.000 C 
ATOM     22  C   UNL     1      10.945  11.911  20.292  0.00  0.00    +0.000 C 
ATOM     23  C   UNL     1       9.485  11.470  20.287  0.00  0.00    +0.000 C 
ENDBRANCH  18  19
ENDBRANCH  17  18
ENDBRANCH  16  17
ENDBRANCH   3  16
TORSDOF 6
ENDMDL
MODEL 2
REMARK VINA RESULT:      -6.9      1.593      1.899
REMARK  Name = 
REMARK  9 active torsions:
REMARK  status: ('A' for Active; 'I' for Inactive)
REMARK    1  A    between atoms: C_1  and  C_2
REMARK    2  A    between atoms: C_2  and  C_4
REMARK    3  A    between atoms: C_5  and  C_6
REMARK    4  A    between atoms: C_8  and  C_9
REMARK    5  A    between atoms: N_11  and  C_12
REMARK    6  A    between atoms: C_12  and  C_13
REMARK    7  A    between atoms: C_13  and  C_14
REMARK    8  A    between atoms: C_14  and  N_15
REMARK    9  A    between atoms: C_20  and  C_21
REMARK                            x       y       z     vdW  Elec       q    Type
REMARK                         _______ _______ _______ _____ _____    ______ ____
ROOT
ATOM      1  C   UNL     1       6.846   6.194  17.403  0.00  0.00    +0.000 C 
ATOM      2  O   UNL     1       7.282   5.937  16.286  0.00  0.00    +0.000 OA
ATOM      3  N   UNL     1       7.351   7.253  18.138  0.00  0.00    +0.000 N 
ATOM      4  H   UNL     1       6.810   7.594  18.918  0.00  0.00    +0.000 HD
ENDROOT
BRANCH   1   9
ATOM      5  C   UNL     1       3.723   4.665  18.767  0.00  0.00    +0.000 A 
ATOM      6  C   UNL     1       4.704   3.732  19.095  0.00  0.00    +0.000 A 
ATOM      7  C   UNL     1       4.694   2.394  19.751  0.00  0.00    +0.000 C 
ATOM      8  N   UNL     1       5.916   4.238  18.670  0.00  0.00    +0.000 N 
ATOM      9  C   UNL     1       5.769   5.450  18.041  0.00  0.00    +0.000 A 
ATOM     10  C   UNL     1       4.412   5.751  18.096  0.00  0.00    +0.000 A 
ATOM     11  C   UNL     1       3.751   6.980  17.555  0.00  0.00    +0.000 C 
ATOM     12  H   UNL     1       6.796   3.745  18.748  0.00  0.00    +0.000 HD
BRANCH   5  14
ATOM     13  C   UNL     1       1.332   3.988  18.002  0.00  0.00    +0.000 C 
ATOM     14  C   UNL     1       2.262   4.619  19.005  0.00  0.00    +0.000 C 
ATOM     15  O   UNL     1       1.768   5.093  20.028  0.00  0.00    +0.000 OA
ENDBRANCH   5  14
ENDBRANCH   1   9
BRANCH   3  16
ATOM     16  C   UNL     1       8.326   8.154  17.532  0.00  0.00    +0.000 C 
BRANCH  16  17
ATOM     17  C   UNL     1       8.153   9.582  18.039  0.00  0.00    +0.000 C 
BRANCH  17  18
ATOM     18  C   UNL     1       9.122   9.924  19.184  0.00  0.00    +0.000 C 
BRANCH  18  19
ATOM     19  N   UNL     1       9.480  11.354  19.192  0.00  0.00    +0.000 NA
ATOM     20  C   UNL     1      10.155  11.815  17.970  0.00  0.00    +0.000 C 
ATOM     21  C   UNL     1      11.633  11.597  18.214  0.00  0.00    +0.000 C 
ATOM     22  C   UNL     1      11.792  11.900  19.688  0.00  0.00    +0.000 C 
ATOM     23  C   UNL     1      10.409  11.678  20.294  0.00  0.00    +0.000 C 
ENDBRANCH  18  19
ENDBRANCH  17  18
ENDBRANCH  16  17
ENDBRANCH   3  16
TORSDOF 6
ENDMDL
MODEL 3
REMARK VINA RESULT:      -6.8      4.622      6.677
REMARK  Name = 
REMARK  9 active torsions:
REMARK  status: ('A' for Active; 'I' for Inactive)
REMARK    1  A    between atoms: C_1  and  C_2
REMARK    2  A    between atoms: C_2  and  C_4
REMARK    3  A    between atoms: C_5  and  C_6
REMARK    4  A    between atoms: C_8  and  C_9
REMARK    5  A    between atoms: N_11  and  C_12
REMARK    6  A    between atoms: C_12  and  C_13
REMARK    7  A    between atoms: C_13  and  C_14
REMARK    8  A    between atoms: C_14  and  N_15
REMARK    9  A    between atoms: C_20  and  C_21
REMARK                            x       y       z     vdW  Elec       q    Type
REMARK                         _______ _______ _______ _____ _____    ______ ____
ROOT
ATOM      1  C   UNL     1       5.711   4.679  18.244  0.00  0.00    +0.000 C 
ATOM      2  O   UNL     1       6.770   4.591  18.856  0.00  0.00    +0.000 OA
ATOM      3  N   UNL     1       5.693   4.769  16.862  0.00  0.00    +0.000 N 
ATOM      4  H   UNL     1       4.826   4.579  16.383  0.00  0.00    +0.000 HD
ENDROOT
BRANCH   1   9
ATOM      5  C   UNL     1       2.426   4.078  19.915  0.00  0.00    +0.000 A 
ATOM      6  C   UNL     1       2.579   5.460  20.002  0.00  0.00    +0.000 A 
ATOM      7  C   UNL     1       1.786   6.562  20.619  0.00  0.00    +0.000 C 
ATOM      8  N   UNL     1       3.756   5.788  19.360  0.00  0.00    +0.000 N 
ATOM      9  C   UNL     1       4.405   4.674  18.886  0.00  0.00    +0.000 A 
ATOM     10  C   UNL     1       3.592   3.590  19.206  0.00  0.00    +0.000 A 
ATOM     11  C   UNL     1       3.861   2.152  18.886  0.00  0.00    +0.000 C 
ATOM     12  H   UNL     1       4.132   6.725  19.307  0.00  0.00    +0.000 HD
BRANCH   5  14
ATOM     13  C   UNL     1       1.426   2.582  21.793  0.00  0.00    +0.000 C 
ATOM     14  C   UNL     1       1.335   3.217  20.430  0.00  0.00    +0.000 C 
ATOM     15  O   UNL     1       0.327   2.998  19.760  0.00  0.00    +0.000 OA
ENDBRANCH   5  14
ENDBRANCH   1   9
BRANCH   3  16
ATOM     16  C   UNL     1       6.937   4.633  16.112  0.00  0.00    +0.000 C 
BRANCH  16  17
ATOM     17  C   UNL     1       6.715   4.866  14.621  0.00  0.00    +0.000 C 
BRANCH  17  18
ATOM     18  C   UNL     1       6.119   3.636  13.914  0.00  0.00    +0.000 C 
BRANCH  18  19
ATOM     19  N   UNL     1       6.089   3.805  12.449  0.00  0.00    +0.000 NA
ATOM     20  C   UNL     1       5.080   2.982  11.767  0.00  0.00    +0.000 C 
ATOM     21  C   UNL     1       5.769   1.671  11.451  0.00  0.00    +0.000 C 
ATOM     22  C   UNL     1       7.186   2.091  11.127  0.00  0.00    +0.000 C 
ATOM     23  C   UNL     1       7.377   3.432  11.830  0.00  0.00    +0.000 C 
ENDBRANCH  18  19
ENDBRANCH  17  18
ENDBRANCH  16  17
ENDBRANCH   3  16
TORSDOF 6
ENDMDL
MODEL 4
REMARK VINA RESULT:      -6.8      4.085      6.303
REMARK  Name = 
REMARK  9 active torsions:
REMARK  status: ('A' for Active; 'I' for Inactive)
REMARK    1  A    between atoms: C_1  and  C_2
REMARK    2  A    between atoms: C_2  and  C_4
REMARK    3  A    between atoms: C_5  and  C_6
REMARK    4  A    between atoms: C_8  and  C_9
REMARK    5  A    between atoms: N_11  and  C_12
REMARK    6  A    between atoms: C_12  and  C_13
REMARK    7  A    between atoms: C_13  and  C_14
REMARK    8  A    between atoms: C_14  and  N_15
REMARK    9  A    between atoms: C_20  and  C_21
REMARK                            x       y       z     vdW  Elec       q    Type
REMARK                         _______ _______ _______ _____ _____    ______ ____
ROOT
ATOM      1  C   UNL     1       2.912   5.968  19.393  0.00  0.00    +0.000 C 
ATOM      2  O   UNL     1       4.045   5.680  19.766  0.00  0.00    +0.000 OA
ATOM      3  N   UNL     1       2.192   5.114  18.576  0.00  0.00    +0.000 N 
ATOM      4  H   UNL     1       1.195   5.250  18.504  0.00  0.00    +0.000 HD
ENDROOT
BRANCH   1   9
ATOM      5  C   UNL     1       1.153   9.236  19.812  0.00  0.00    +0.000 A 
ATOM      6  C   UNL     1       0.993   8.627  21.054  0.00  0.00    +0.000 A 
ATOM      7  C   UNL     1       0.283   8.993  22.313  0.00  0.00    +0.000 C 
ATOM      8  N   UNL     1       1.658   7.419  21.013  0.00  0.00    +0.000 N 
ATOM      9  C   UNL     1       2.221   7.190  19.781  0.00  0.00    +0.000 A 
ATOM     10  C   UNL     1       1.934   8.314  19.011  0.00  0.00    +0.000 A 
ATOM     11  C   UNL     1       2.347   8.548  17.591  0.00  0.00    +0.000 C 
ATOM     12  H   UNL     1       1.672   6.751  21.772  0.00  0.00    +0.000 HD
BRANCH   5  14
ATOM     13  C   UNL     1      -0.686  10.653  18.640  0.00  0.00    +0.000 C 
ATOM     14  C   UNL     1       0.648  10.544  19.332  0.00  0.00    +0.000 C 
ATOM     15  O   UNL     1       1.302  11.574  19.485  0.00  0.00    +0.000 OA
ENDBRANCH   5  14
ENDBRANCH   1   9
BRANCH   3  16
ATOM     16  C   UNL     1       2.731   3.797  18.252  0.00  0.00    +0.000 C 
BRANCH  16  17
ATOM     17  C   UNL     1       3.447   3.806  16.905  0.00  0.00    +0.000 C 
BRANCH  17  18
ATOM     18  C   UNL     1       4.971   3.642  17.044  0.00  0.00    +0.000 C 
BRANCH  18  19
ATOM     19  N   UNL     1       5.707   4.602  16.201  0.00  0.00    +0.000 NA
ATOM     20  C   UNL     1       7.101   4.821  16.612  0.00  0.00    +0.000 C 
ATOM     21  C   UNL     1       7.057   5.961  17.609  0.00  0.00    +0.000 C 
ATOM     22  C   UNL     1       5.960   6.852  17.070  0.00  0.00    +0.000 C 
ATOM     23  C   UNL     1       5.080   5.939  16.222  0.00  0.00    +0.000 C 
ENDBRANCH  18  19
ENDBRANCH  17  18
ENDBRANCH  16  17
ENDBRANCH   3  16
TORSDOF 6
ENDMDL
MODEL 5
REMARK VINA RESULT:      -6.7      1.485      2.057
REMARK  Name = 
REMARK  9 active torsions:
REMARK  status: ('A' for Active; 'I' for Inactive)
REMARK    1  A    between atoms: C_1  and  C_2
REMARK    2  A    between atoms: C_2  and  C_4
REMARK    3  A    between atoms: C_5  and  C_6
REMARK    4  A    between atoms: C_8  and  C_9
REMARK    5  A    between atoms: N_11  and  C_12
REMARK    6  A    between atoms: C_12  and  C_13
REMARK    7  A    between atoms: C_13  and  C_14
REMARK    8  A    between atoms: C_14  and  N_15
REMARK    9  A    between atoms: C_20  and  C_21
REMARK                            x       y       z     vdW  Elec       q    Type
REMARK                         _______ _______ _______ _____ _____    ______ ____
ROOT
ATOM      1  C   UNL     1       6.697   5.758  17.589  0.00  0.00    +0.000 C 
ATOM      2  O   UNL     1       7.457   5.310  16.737  0.00  0.00    +0.000 OA
ATOM      3  N   UNL     1       6.850   7.045  18.074  0.00  0.00    +0.000 N 
ATOM      4  H   UNL     1       6.074   7.466  18.563  0.00  0.00    +0.000 HD
ENDROOT
BRANCH   1   9
ATOM      5  C   UNL     1       3.480   4.215  18.695  0.00  0.00    +0.000 A 
ATOM      6  C   UNL     1       4.438   3.302  19.131  0.00  0.00    +0.000 A 
ATOM      7  C   UNL     1       4.383   1.976  19.811  0.00  0.00    +0.000 C 
ATOM      8  N   UNL     1       5.678   3.814  18.806  0.00  0.00    +0.000 N 
ATOM      9  C   UNL     1       5.575   5.012  18.142  0.00  0.00    +0.000 A 
ATOM     10  C   UNL     1       4.214   5.296  18.067  0.00  0.00    +0.000 A 
ATOM     11  C   UNL     1       3.591   6.505  17.442  0.00  0.00    +0.000 C 
ATOM     12  H   UNL     1       6.552   3.335  18.974  0.00  0.00    +0.000 HD
BRANCH   5  14
ATOM     13  C   UNL     1       1.311   4.388  20.118  0.00  0.00    +0.000 C 
ATOM     14  C   UNL     1       2.004   4.154  18.801  0.00  0.00    +0.000 C 
ATOM     15  O   UNL     1       1.304   3.910  17.819  0.00  0.00    +0.000 OA
ENDBRANCH   5  14
ENDBRANCH   1   9
BRANCH   3  16
ATOM     16  C   UNL     1       7.848   7.928  17.479  0.00  0.00    +0.000 C 
BRANCH  16  17
ATOM     17  C   UNL     1       8.568   8.749  18.544  0.00  0.00    +0.000 C 
BRANCH  17  18
ATOM     18  C   UNL     1       8.744  10.222  18.136  0.00  0.00    +0.000 C 
BRANCH  18  19
ATOM     19  N   UNL     1       9.854  10.865  18.863  0.00  0.00    +0.000 NA
ATOM     20  C   UNL     1       9.426  11.750  19.957  0.00  0.00    +0.000 C 
ATOM     21  C   UNL     1       9.244  13.116  19.329  0.00  0.00    +0.000 C 
ATOM     22  C   UNL     1      10.344  13.172  18.292  0.00  0.00    +0.000 C 
ATOM     23  C   UNL     1      10.670  11.716  17.973  0.00  0.00    +0.000 C 
ENDBRANCH  18  19
ENDBRANCH  17  18
ENDBRANCH  16  17
ENDBRANCH   3  16
TORSDOF 6
ENDMDL
MODEL 6
REMARK VINA RESULT:      -6.6      1.820      2.252
REMARK  Name = 
REMARK  9 active torsions:
REMARK  status: ('A' for Active; 'I' for Inactive)
REMARK    1  A    between atoms: C_1  and  C_2
REMARK    2  A    between atoms: C_2  and  C_4
REMARK    3  A    between atoms: C_5  and  C_6
REMARK    4  A    between atoms: C_8  and  C_9
REMARK    5  A    between atoms: N_11  and  C_12
REMARK    6  A    between atoms: C_12  and  C_13
REMARK    7  A    between atoms: C_13  and  C_14
REMARK    8  A    between atoms: C_14  and  N_15
REMARK    9  A    between atoms: C_20  and  C_21
REMARK                            x       y       z     vdW  Elec       q    Type
REMARK                         _______ _______ _______ _____ _____    ______ ____
ROOT
ATOM      1  C   UNL     1       5.706   5.795  17.479  0.00  0.00    +0.000 C 
ATOM      2  O   UNL     1       5.538   5.967  16.276  0.00  0.00    +0.000 OA
ATOM      3  N   UNL     1       6.702   6.470  18.164  0.00  0.00    +0.000 N 
ATOM      4  H   UNL     1       6.647   6.508  19.170  0.00  0.00    +0.000 HD
ENDROOT
BRANCH   1   9
ATOM      5  C   UNL     1       3.140   3.805  19.325  0.00  0.00    +0.000 A 
ATOM      6  C   UNL     1       4.315   3.090  19.544  0.00  0.00    +0.000 A 
ATOM      7  C   UNL     1       4.647   1.816  20.242  0.00  0.00    +0.000 C 
ATOM      8  N   UNL     1       5.342   3.782  18.934  0.00  0.00    +0.000 N 
ATOM      9  C   UNL     1       4.885   4.906  18.289  0.00  0.00    +0.000 A 
ATOM     10  C   UNL     1       3.514   4.955  18.525  0.00  0.00    +0.000 A 
ATOM     11  C   UNL     1       2.565   6.007  18.039  0.00  0.00    +0.000 C 
ATOM     12  H   UNL     1       6.301   3.465  18.904  0.00  0.00    +0.000 HD
BRANCH   5  14
ATOM     13  C   UNL     1       0.859   2.612  18.957  0.00  0.00    +0.000 C 
ATOM     14  C   UNL     1       1.759   3.506  19.769  0.00  0.00    +0.000 C 
ATOM     15  O   UNL     1       1.309   3.979  20.812  0.00  0.00    +0.000 OA
ENDBRANCH   5  14
ENDBRANCH   1   9
BRANCH   3  16
ATOM     16  C   UNL     1       7.482   7.495  17.479  0.00  0.00    +0.000 C 
BRANCH  16  17
ATOM     17  C   UNL     1       8.434   8.202  18.439  0.00  0.00    +0.000 C 
BRANCH  17  18
ATOM     18  C   UNL     1       8.461   9.726  18.229  0.00  0.00    +0.000 C 
BRANCH  18  19
ATOM     19  N   UNL     1       9.668  10.340  18.811  0.00  0.00    +0.000 NA
ATOM     20  C   UNL     1       9.445  11.000  20.106  0.00  0.00    +0.000 C 
ATOM     21  C   UNL     1       9.061  12.427  19.775  0.00  0.00    +0.000 C 
ATOM     22  C   UNL     1       9.905  12.742  18.558  0.00  0.00    +0.000 C 
ATOM     23  C   UNL     1      10.226  11.388  17.932  0.00  0.00    +0.000 C 
ENDBRANCH  18  19
ENDBRANCH  17  18
ENDBRANCH  16  17
ENDBRANCH   3  16
TORSDOF 6
ENDMDL
MODEL 7
REMARK VINA RESULT:      -6.6      4.816      6.670
REMARK  Name = 
REMARK  9 active torsions:
REMARK  status: ('A' for Active; 'I' for Inactive)
REMARK    1  A    between atoms: C_1  and  C_2
REMARK    2  A    between atoms: C_2  and  C_4
REMARK    3  A    between atoms: C_5  and  C_6
REMARK    4  A    between atoms: C_8  and  C_9
REMARK    5  A    between atoms: N_11  and  C_12
REMARK    6  A    between atoms: C_12  and  C_13
REMARK    7  A    between atoms: C_13  and  C_14
REMARK    8  A    between atoms: C_14  and  N_15
REMARK    9  A    between atoms: C_20  and  C_21
REMARK                            x       y       z     vdW  Elec       q    Type
REMARK                         _______ _______ _______ _____ _____    ______ ____
ROOT
ATOM      1  C   UNL     1       2.766   5.990  19.562  0.00  0.00    +0.000 C 
ATOM      2  O   UNL     1       3.902   5.693  19.917  0.00  0.00    +0.000 OA
ATOM      3  N   UNL     1       2.003   5.114  18.809  0.00  0.00    +0.000 N 
ATOM      4  H   UNL     1       1.008   5.271  18.758  0.00  0.00    +0.000 HD
ENDROOT
BRANCH   1   9
ATOM      5  C   UNL     1       1.102   9.320  19.864  0.00  0.00    +0.000 A 
ATOM      6  C   UNL     1       0.950   8.772  21.136  0.00  0.00    +0.000 A 
ATOM      7  C   UNL     1       0.275   9.214  22.389  0.00  0.00    +0.000 C 
ATOM      8  N   UNL     1       1.583   7.545  21.137  0.00  0.00    +0.000 N 
ATOM      9  C   UNL     1       2.115   7.246  19.906  0.00  0.00    +0.000 A 
ATOM     10  C   UNL     1       1.842   8.341  19.092  0.00  0.00    +0.000 A 
ATOM     11  C   UNL     1       2.233   8.501  17.655  0.00  0.00    +0.000 C 
ATOM     12  H   UNL     1       1.594   6.912  21.926  0.00  0.00    +0.000 HD
BRANCH   5  14
ATOM     13  C   UNL     1       1.319  11.906  19.687  0.00  0.00    +0.000 C 
ATOM     14  C   UNL     1       0.621  10.618  19.335  0.00  0.00    +0.000 C 
ATOM     15  O   UNL     1      -0.359  10.679  18.594  0.00  0.00    +0.000 OA
ENDBRANCH   5  14
ENDBRANCH   1   9
BRANCH   3  16
ATOM     16  C   UNL     1       2.502   3.770  18.537  0.00  0.00    +0.000 C 
BRANCH  16  17
ATOM     17  C   UNL     1       3.102   3.673  17.139  0.00  0.00    +0.000 C 
BRANCH  17  18
ATOM     18  C   UNL     1       4.612   3.377  17.163  0.00  0.00    +0.000 C 
BRANCH  18  19
ATOM     19  N   UNL     1       5.413   4.613  17.229  0.00  0.00    +0.000 NA
ATOM     20  C   UNL     1       4.914   5.702  16.377  0.00  0.00    +0.000 C 
ATOM     21  C   UNL     1       5.592   5.514  15.035  0.00  0.00    +0.000 C 
ATOM     22  C   UNL     1       6.968   5.008  15.409  0.00  0.00    +0.000 C 
ATOM     23  C   UNL     1       6.806   4.385  16.792  0.00  0.00    +0.000 C 
ENDBRANCH  18  19
ENDBRANCH  17  18
ENDBRANCH  16  17
ENDBRANCH   3  16
TORSDOF 6
ENDMDL
MODEL 8
REMARK VINA RESULT:      -6.6      4.438      7.791
REMARK  Name = 
REMARK  9 active torsions:
REMARK  status: ('A' for Active; 'I' for Inactive)
REMARK    1  A    between atoms: C_1  and  C_2
REMARK    2  A    between atoms: C_2  and  C_4
REMARK    3  A    between atoms: C_5  and  C_6
REMARK    4  A    between atoms: C_8  and  C_9
REMARK    5  A    between atoms: N_11  and  C_12
REMARK    6  A    between atoms: C_12  and  C_13
REMARK    7  A    between atoms: C_13  and  C_14
REMARK    8  A    between atoms: C_14  and  N_15
REMARK    9  A    between atoms: C_20  and  C_21
REMARK                            x       y       z     vdW  Elec       q    Type
REMARK                         _______ _______ _______ _____ _____    ______ ____
ROOT
ATOM      1  C   UNL     1       6.935   5.136  17.088  0.00  0.00    +0.000 C 
ATOM      2  O   UNL     1       7.932   5.443  17.733  0.00  0.00    +0.000 OA
ATOM      3  N   UNL     1       5.693   5.048  17.694  0.00  0.00    +0.000 N 
ATOM      4  H   UNL     1       4.874   5.053  17.106  0.00  0.00    +0.000 HD
ENDROOT
BRANCH   1   9
ATOM      5  C   UNL     1       6.488   4.125  13.520  0.00  0.00    +0.000 A 
ATOM      6  C   UNL     1       7.470   5.111  13.451  0.00  0.00    +0.000 A 
ATOM      7  C   UNL     1       8.212   5.769  12.338  0.00  0.00    +0.000 C 
ATOM      8  N   UNL     1       7.741   5.518  14.742  0.00  0.00    +0.000 N 
ATOM      9  C   UNL     1       6.951   4.865  15.657  0.00  0.00    +0.000 A 
ATOM     10  C   UNL     1       6.166   3.979  14.926  0.00  0.00    +0.000 A 
ATOM     11  C   UNL     1       5.148   3.030  15.478  0.00  0.00    +0.000 C 
ATOM     12  H   UNL     1       8.391   6.255  14.981  0.00  0.00    +0.000 HD
BRANCH   5  14
ATOM     13  C   UNL     1       6.620   2.319  11.654  0.00  0.00    +0.000 C 
ATOM     14  C   UNL     1       5.848   3.356  12.428  0.00  0.00    +0.000 C 
ATOM     15  O   UNL     1       4.671   3.542  12.123  0.00  0.00    +0.000 OA
ENDBRANCH   5  14
ENDBRANCH   1   9
BRANCH   3  16
ATOM     16  C   UNL     1       5.540   5.445  19.090  0.00  0.00    +0.000 C 
BRANCH  16  17
ATOM     17  C   UNL     1       4.200   4.984  19.654  0.00  0.00    +0.000 C 
BRANCH  17  18
ATOM     18  C   UNL     1       3.415   4.102  18.668  0.00  0.00    +0.000 C 
BRANCH  18  19
ATOM     19  N   UNL     1       2.983   2.836  19.286  0.00  0.00    +0.000 NA
ATOM     20  C   UNL     1       1.652   2.379  18.860  0.00  0.00    +0.000 C 
ATOM     21  C   UNL     1       0.674   3.012  19.828  0.00  0.00    +0.000 C 
ATOM     22  C   UNL     1       1.427   2.999  21.141  0.00  0.00    +0.000 C 
ATOM     23  C   UNL     1       2.902   2.946  20.757  0.00  0.00    +0.000 C 
ENDBRANCH  18  19
ENDBRANCH  17  18
ENDBRANCH  16  17
ENDBRANCH   3  16
TORSDOF 6
ENDMDL
MODEL 9
REMARK VINA RESULT:      -6.6      3.665      5.882
REMARK  Name = 
REMARK  9 active torsions:
REMARK  status: ('A' for Active; 'I' for Inactive)
REMARK    1  A    between atoms: C_1  and  C_2
REMARK    2  A    between atoms: C_2  and  C_4
REMARK    3  A    between atoms: C_5  and  C_6
REMARK    4  A    between atoms: C_8  and  C_9
REMARK    5  A    between atoms: N_11  and  C_12
REMARK    6  A    between atoms: C_12  and  C_13
REMARK    7  A    between atoms: C_13  and  C_14
REMARK    8  A    between atoms: C_14  and  N_15
REMARK    9  A    between atoms: C_20  and  C_21
REMARK                            x       y       z     vdW  Elec       q    Type
REMARK                         _______ _______ _______ _____ _____    ______ ____
ROOT
ATOM      1  C   UNL     1       2.346   5.926  20.043  0.00  0.00    +0.000 C 
ATOM      2  O   UNL     1       1.647   4.930  20.198  0.00  0.00    +0.000 OA
ATOM      3  N   UNL     1       3.673   5.814  19.667  0.00  0.00    +0.000 N 
ATOM      4  H   UNL     1       4.136   6.632  19.301  0.00  0.00    +0.000 HD
ENDROOT
BRANCH   1   9
ATOM      5  C   UNL     1       1.101   9.444  19.884  0.00  0.00    +0.000 A 
ATOM      6  C   UNL     1       0.908   9.098  21.219  0.00  0.00    +0.000 A 
ATOM      7  C   UNL     1       0.314   9.787  22.400  0.00  0.00    +0.000 C 
ATOM      8  N   UNL     1       1.388   7.816  21.389  0.00  0.00    +0.000 N 
ATOM      9  C   UNL     1       1.858   7.288  20.211  0.00  0.00    +0.000 A 
ATOM     10  C   UNL     1       1.704   8.286  19.253  0.00  0.00    +0.000 A 
ATOM     11  C   UNL     1       2.084   8.197  17.808  0.00  0.00    +0.000 C 
ATOM     12  H   UNL     1       1.337   7.300  22.258  0.00  0.00    +0.000 HD
BRANCH   5  14
ATOM     13  C   UNL     1      -0.595  10.927  18.585  0.00  0.00    +0.000 C 
ATOM     14  C   UNL     1       0.771  10.705  19.180  0.00  0.00    +0.000 C 
ATOM     15  O   UNL     1       1.602  11.605  19.062  0.00  0.00    +0.000 OA
ENDBRANCH   5  14
ENDBRANCH   1   9
BRANCH   3  16
ATOM     16  C   UNL     1       4.220   4.504  19.328  0.00  0.00    +0.000 C 
BRANCH  16  17
ATOM     17  C   UNL     1       4.716   4.467  17.886  0.00  0.00    +0.000 C 
BRANCH  17  18
ATOM     18  C   UNL     1       5.168   5.848  17.380  0.00  0.00    +0.000 C 
BRANCH  18  19
ATOM     19  N   UNL     1       6.605   5.869  17.049  0.00  0.00    +0.000 NA
ATOM     20  C   UNL     1       7.419   4.930  17.834  0.00  0.00    +0.000 C 
ATOM     21  C   UNL     1       7.846   5.695  19.070  0.00  0.00    +0.000 C 
ATOM     22  C   UNL     1       8.056   7.101  18.553  0.00  0.00    +0.000 C 
ATOM     23  C   UNL     1       7.202   7.198  17.293  0.00  0.00    +0.000 C 
ENDBRANCH  18  19
ENDBRANCH  17  18
ENDBRANCH  16  17
ENDBRANCH   3  16
TORSDOF 6
ENDMDL
