MODEL 1
REMARK VINA RESULT:      -7.9      0.000      0.000
REMARK  Name = 
REMARK  5 active torsions:
REMARK  status: ('A' for Active; 'I' for Inactive)
REMARK    1  A    between atoms: C_1  and  C_2
REMARK    2  A    between atoms: C_2  and  C_3
REMARK    3  A    between atoms: C_2  and  N_4
REMARK    4  A    between atoms: C_6  and  C_7
REMARK    5  A    between atoms: C_10  and  O_11
REMARK                            x       y       z     vdW  Elec       q    Type
REMARK                         _______ _______ _______ _____ _____    ______ ____
ROOT
ATOM      1  N   UNL     1       4.615   4.606  17.162  0.00  0.00    +0.000 N 
ATOM      2  N   UNL     1       4.215   5.875  17.383  0.00  0.00    +0.000 NA
ATOM      3  C   UNL     1       3.171   5.759  18.225  0.00  0.00    +0.000 A 
ATOM      4  C   UNL     1       2.873   4.384  18.489  0.00  0.00    +0.000 A 
ATOM      5  C   UNL     1       1.936   3.618  19.200  0.00  0.00    +0.000 A 
ATOM      6  N   UNL     1       0.854   4.123  19.908  0.00  0.00    +0.000 N 
ATOM      7  N   UNL     1       2.060   2.274  19.199  0.00  0.00    +0.000 NA
ATOM      8  C   UNL     1       3.068   1.717  18.504  0.00  0.00    +0.000 A 
ATOM      9  N   UNL     1       3.999   2.339  17.766  0.00  0.00    +0.000 NA
ATOM     10  C   UNL     1       3.846   3.674  17.802  0.00  0.00    +0.000 A 
ATOM     11  H   UNL     1       0.429   4.952  19.515  0.00  0.00    +0.000 HD
ATOM     12  H   UNL     1       0.209   3.379  20.150  0.00  0.00    +0.000 HD
ENDROOT
BRANCH   3  13
ATOM     13  C   UNL     1       2.507   6.966  18.727  0.00  0.00    +0.000 A 
ATOM     14  C   UNL     1       2.195   8.018  17.848  0.00  0.00    +0.000 A 
ATOM     15  C   UNL     1       1.546   9.170  18.304  0.00  0.00    +0.000 A 
ATOM     16  C   UNL     1       1.195   9.271  19.646  0.00  0.00    +0.000 A 
ATOM     17  C   UNL     1       1.518   8.241  20.526  0.00  0.00    +0.000 A 
ATOM     18  F   UNL     1       1.179   8.324  21.821  0.00  0.00    +0.000 F 
ATOM     19  C   UNL     1       2.189   7.107  20.082  0.00  0.00    +0.000 A 
BRANCH  16  20
ATOM     20  O   UNL     1       0.545  10.370  20.125  0.00  0.00    +0.000 OA
ATOM     21  H   UNL     1       0.331  10.232  21.062  0.00  0.00    +0.000 HD
ENDBRANCH  16  20
ENDBRANCH   3  13
BRANCH   1  23
ATOM     22  C   UNL     1       5.659   5.101  14.980  0.00  0.00    +0.000 C 
ATOM     23  C   UNL     1       5.763   4.338  16.301  0.00  0.00    +0.000 C 
ATOM     24  C   UNL     1       7.079   4.646  17.015  0.00  0.00    +0.000 C 
ENDBRANCH   1  23
TORSDOF 3
ENDMDL
MODEL 2
REMARK VINA RESULT:      -7.7      1.021      1.466
REMARK  Name = 
REMARK  5 active torsions:
REMARK  status: ('A' for Active; 'I' for Inactive)
REMARK    1  A    between atoms: C_1  and  C_2
REMARK    2  A    between atoms: C_2  and  C_3
REMARK    3  A    between atoms: C_2  and  N_4
REMARK    4  A    between atoms: C_6  and  C_7
REMARK    5  A    between atoms: C_10  and  O_11
REMARK                            x       y       z     vdW  Elec       q    Type
REMARK                         _______ _______ _______ _____ _____    ______ ____
ROOT
ATOM      1  N   UNL     1       4.650   4.458  17.172  0.00  0.00    +0.000 N 
ATOM      2  N   UNL     1       4.258   5.730  17.396  0.00  0.00    +0.000 NA
ATOM      3  C   UNL     1       3.207   5.616  18.229  0.00  0.00    +0.000 A 
ATOM      4  C   UNL     1       2.897   4.243  18.485  0.00  0.00    +0.000 A 
ATOM      5  C   UNL     1       1.949   3.481  19.185  0.00  0.00    +0.000 A 
ATOM      6  N   UNL     1       0.865   3.990  19.887  0.00  0.00    +0.000 N 
ATOM      7  N   UNL     1       2.063   2.135  19.180  0.00  0.00    +0.000 NA
ATOM      8  C   UNL     1       3.073   1.575  18.490  0.00  0.00    +0.000 A 
ATOM      9  N   UNL     1       4.014   2.193  17.763  0.00  0.00    +0.000 NA
ATOM     10  C   UNL     1       3.870   3.529  17.802  0.00  0.00    +0.000 A 
ATOM     11  H   UNL     1       0.449   4.823  19.494  0.00  0.00    +0.000 HD
ATOM     12  H   UNL     1       0.213   3.250  20.121  0.00  0.00    +0.000 HD
ENDROOT
BRANCH   3  13
ATOM     13  C   UNL     1       2.547   6.826  18.731  0.00  0.00    +0.000 A 
ATOM     14  C   UNL     1       2.183   6.921  20.086  0.00  0.00    +0.000 A 
ATOM     15  C   UNL     1       1.569   8.074  20.588  0.00  0.00    +0.000 A 
ATOM     16  C   UNL     1       1.324   9.145  19.735  0.00  0.00    +0.000 A 
ATOM     17  C   UNL     1       1.664   9.050  18.388  0.00  0.00    +0.000 A 
ATOM     18  F   UNL     1       1.439  10.078  17.557  0.00  0.00    +0.000 F 
ATOM     19  C   UNL     1       2.249   7.895  17.880  0.00  0.00    +0.000 A 
BRANCH  16  20
ATOM     20  O   UNL     1       0.744  10.292  20.191  0.00  0.00    +0.000 OA
ATOM     21  H   UNL     1       0.266  10.104  21.014  0.00  0.00    +0.000 HD
ENDBRANCH  16  20
ENDBRANCH   3  13
BRANCH   1  23
ATOM     22  C   UNL     1       5.619   4.787  14.925  0.00  0.00    +0.000 C 
ATOM     23  C   UNL     1       5.803   4.186  16.319  0.00  0.00    +0.000 C 
ATOM     24  C   UNL     1       7.101   4.672  16.964  0.00  0.00    +0.000 C 
ENDBRANCH   1  23
TORSDOF 3
ENDMDL
MODEL 3
REMARK VINA RESULT:      -7.7      1.217      1.313
REMARK  Name = 
REMARK  5 active torsions:
REMARK  status: ('A' for Active; 'I' for Inactive)
REMARK    1  A    between atoms: C_1  and  C_2
REMARK    2  A    between atoms: C_2  and  C_3
REMARK    3  A    between atoms: C_2  and  N_4
REMARK    4  A    between atoms: C_6  and  C_7
REMARK    5  A    between atoms: C_10  and  O_11
REMARK                            x       y       z     vdW  Elec       q    Type
REMARK                         _______ _______ _______ _____ _____    ______ ____
ROOT
ATOM      1  N   UNL     1       5.264   5.117  18.436  0.00  0.00    +0.000 N 
ATOM      2  N   UNL     1       4.658   6.309  18.255  0.00  0.00    +0.000 NA
ATOM      3  C   UNL     1       3.496   6.201  18.926  0.00  0.00    +0.000 A 
ATOM      4  C   UNL     1       3.343   4.893  19.487  0.00  0.00    +0.000 A 
ATOM      5  C   UNL     1       2.400   4.154  20.217  0.00  0.00    +0.000 A 
ATOM      6  N   UNL     1       1.141   4.603  20.593  0.00  0.00    +0.000 N 
ATOM      7  N   UNL     1       2.704   2.892  20.584  0.00  0.00    +0.000 NA
ATOM      8  C   UNL     1       3.896   2.383  20.222  0.00  0.00    +0.000 A 
ATOM      9  N   UNL     1       4.859   2.977  19.503  0.00  0.00    +0.000 NA
ATOM     10  C   UNL     1       4.520   4.233  19.167  0.00  0.00    +0.000 A 
ATOM     11  H   UNL     1       0.691   5.228  19.937  0.00  0.00    +0.000 HD
ATOM     12  H   UNL     1       0.570   3.830  20.915  0.00  0.00    +0.000 HD
ENDROOT
BRANCH   3  13
ATOM     13  C   UNL     1       2.586   7.350  18.988  0.00  0.00    +0.000 A 
ATOM     14  C   UNL     1       2.328   8.109  17.833  0.00  0.00    +0.000 A 
ATOM     15  C   UNL     1       1.449   9.198  17.868  0.00  0.00    +0.000 A 
ATOM     16  C   UNL     1       0.815   9.527  19.062  0.00  0.00    +0.000 A 
ATOM     17  C   UNL     1       1.082   8.791  20.214  0.00  0.00    +0.000 A 
ATOM     18  F   UNL     1       0.472   9.095  21.369  0.00  0.00    +0.000 F 
ATOM     19  C   UNL     1       1.976   7.726  20.189  0.00  0.00    +0.000 A 
BRANCH  16  20
ATOM     20  O   UNL     1      -0.061  10.570  19.132  0.00  0.00    +0.000 OA
ATOM     21  H   UNL     1      -0.953  10.253  18.920  0.00  0.00    +0.000 HD
ENDBRANCH  16  20
ENDBRANCH   3  13
BRANCH   1  23
ATOM     22  C   UNL     1       6.485   4.400  16.413  0.00  0.00    +0.000 C 
ATOM     23  C   UNL     1       6.584   4.872  17.863  0.00  0.00    +0.000 C 
ATOM     24  C   UNL     1       7.481   6.104  17.983  0.00  0.00    +0.000 C 
ENDBRANCH   1  23
TORSDOF 3
ENDMDL
MODEL 4
REMARK VINA RESULT:      -7.5      3.498      5.711
REMARK  Name = 
REMARK  5 active torsions:
REMARK  status: ('A' for Active; 'I' for Inactive)
REMARK    1  A    between atoms: C_1  and  C_2
REMARK    2  A    between atoms: C_2  and  C_3
REMARK    3  A    between atoms: C_2  and  N_4
REMARK    4  A    between atoms: C_6  and  C_7
REMARK    5  A    between atoms: C_10  and  O_11
REMARK                            x       y       z     vdW  Elec       q    Type
REMARK                         _______ _______ _______ _____ _____    ______ ____
ROOT
ATOM      1  N   UNL     1       2.359   6.638  19.619  0.00  0.00    +0.000 N 
ATOM      2  N   UNL     1       3.251   6.884  18.637  0.00  0.00    +0.000 NA
ATOM      3  C   UNL     1       3.921   5.725  18.491  0.00  0.00    +0.000 A 
ATOM      4  C   UNL     1       3.479   4.751  19.443  0.00  0.00    +0.000 A 
ATOM      5  C   UNL     1       3.780   3.438  19.837  0.00  0.00    +0.000 A 
ATOM      6  N   UNL     1       4.800   2.655  19.315  0.00  0.00    +0.000 N 
ATOM      7  N   UNL     1       3.045   2.867  20.814  0.00  0.00    +0.000 NA
ATOM      8  C   UNL     1       2.061   3.584  21.386  0.00  0.00    +0.000 A 
ATOM      9  N   UNL     1       1.704   4.849  21.119  0.00  0.00    +0.000 NA
ATOM     10  C   UNL     1       2.453   5.375  20.136  0.00  0.00    +0.000 A 
ATOM     11  H   UNL     1       5.634   3.157  19.042  0.00  0.00    +0.000 HD
ATOM     12  H   UNL     1       4.956   1.840  19.898  0.00  0.00    +0.000 HD
ENDROOT
BRANCH   3  13
ATOM     13  C   UNL     1       4.953   5.609  17.456  0.00  0.00    +0.000 A 
ATOM     14  C   UNL     1       6.216   6.197  17.650  0.00  0.00    +0.000 A 
ATOM     15  C   UNL     1       7.220   6.083  16.682  0.00  0.00    +0.000 A 
ATOM     16  C   UNL     1       6.967   5.369  15.516  0.00  0.00    +0.000 A 
ATOM     17  C   UNL     1       5.713   4.800  15.309  0.00  0.00    +0.000 A 
ATOM     18  F   UNL     1       5.459   4.104  14.191  0.00  0.00    +0.000 F 
ATOM     19  C   UNL     1       4.703   4.936  16.256  0.00  0.00    +0.000 A 
BRANCH  16  20
ATOM     20  O   UNL     1       7.926   5.220  14.557  0.00  0.00    +0.000 OA
ATOM     21  H   UNL     1       7.630   4.563  13.908  0.00  0.00    +0.000 HD
ENDBRANCH  16  20
ENDBRANCH   3  13
BRANCH   1  23
ATOM     22  C   UNL     1       1.689   8.120  21.477  0.00  0.00    +0.000 C 
ATOM     23  C   UNL     1       1.425   7.679  20.037  0.00  0.00    +0.000 C 
ATOM     24  C   UNL     1       1.452   8.870  19.080  0.00  0.00    +0.000 C 
ENDBRANCH   1  23
TORSDOF 3
ENDMDL
MODEL 5
REMARK VINA RESULT:      -7.4      1.551      1.939
REMARK  Name = 
REMARK  5 active torsions:
REMARK  status: ('A' for Active; 'I' for Inactive)
REMARK    1  A    between atoms: C_1  and  C_2
REMARK    2  A    between atoms: C_2  and  C_3
REMARK    3  A    between atoms: C_2  and  N_4
REMARK    4  A    between atoms: C_6  and  C_7
REMARK    5  A    between atoms: C_10  and  O_11
REMARK                            x       y       z     vdW  Elec       q    Type
REMARK                         _______ _______ _______ _____ _____    ______ ____
ROOT
ATOM      1  N   UNL     1       5.288   5.004  18.578  0.00  0.00    +0.000 N 
ATOM      2  N   UNL     1       4.680   6.206  18.494  0.00  0.00    +0.000 NA
ATOM      3  C   UNL     1       3.511   6.037  19.142  0.00  0.00    +0.000 A 
ATOM      4  C   UNL     1       3.358   4.686  19.588  0.00  0.00    +0.000 A 
ATOM      5  C   UNL     1       2.410   3.885  20.242  0.00  0.00    +0.000 A 
ATOM      6  N   UNL     1       1.147   4.296  20.643  0.00  0.00    +0.000 N 
ATOM      7  N   UNL     1       2.716   2.596  20.503  0.00  0.00    +0.000 NA
ATOM      8  C   UNL     1       3.913   2.123  20.111  0.00  0.00    +0.000 A 
ATOM      9  N   UNL     1       4.881   2.780  19.455  0.00  0.00    +0.000 NA
ATOM     10  C   UNL     1       4.540   4.059  19.224  0.00  0.00    +0.000 A 
ATOM     11  H   UNL     1       0.701   4.973  20.038  0.00  0.00    +0.000 HD
ATOM     12  H   UNL     1       0.575   3.497  20.892  0.00  0.00    +0.000 HD
ENDROOT
BRANCH   3  13
ATOM     13  C   UNL     1       2.597   7.174  19.293  0.00  0.00    +0.000 A 
ATOM     14  C   UNL     1       1.999   7.438  20.538  0.00  0.00    +0.000 A 
ATOM     15  C   UNL     1       1.138   8.528  20.707  0.00  0.00    +0.000 A 
ATOM     16  C   UNL     1       0.878   9.368  19.629  0.00  0.00    +0.000 A 
ATOM     17  C   UNL     1       1.452   9.101  18.388  0.00  0.00    +0.000 A 
ATOM     18  F   UNL     1       1.214   9.907  17.343  0.00  0.00    +0.000 F 
ATOM     19  C   UNL     1       2.285   8.002  18.210  0.00  0.00    +0.000 A 
BRANCH  16  20
ATOM     20  O   UNL     1       0.059  10.451  19.759  0.00  0.00    +0.000 OA
ATOM     21  H   UNL     1      -0.342  10.444  20.643  0.00  0.00    +0.000 HD
ENDBRANCH  16  20
ENDBRANCH   3  13
BRANCH   1  23
ATOM     22  C   UNL     1       6.529   4.423  16.524  0.00  0.00    +0.000 C 
ATOM     23  C   UNL     1       6.615   4.813  18.000  0.00  0.00    +0.000 C 
ATOM     24  C   UNL     1       7.492   6.050  18.195  0.00  0.00    +0.000 C 
ENDBRANCH   1  23
TORSDOF 3
ENDMDL
MODEL 6
REMARK VINA RESULT:      -7.3      3.360      5.596
REMARK  Name = 
REMARK  5 active torsions:
REMARK  status: ('A' for Active; 'I' for Inactive)
REMARK    1  A    between atoms: C_1  and  C_2
REMARK    2  A    between atoms: C_2  and  C_3
REMARK    3  A    between atoms: C_2  and  N_4
REMARK    4  A    between atoms: C_6  and  C_7
REMARK    5  A    between atoms: C_10  and  O_11
REMARK                            x       y       z     vdW  Elec       q    Type
REMARK                         _______ _______ _______ _____ _____    ______ ____
ROOT
ATOM      1  N   UNL     1       2.280   6.671  19.653  0.00  0.00    +0.000 N 
ATOM      2  N   UNL     1       3.200   6.915  18.696  0.00  0.00    +0.000 NA
ATOM      3  C   UNL     1       3.863   5.751  18.561  0.00  0.00    +0.000 A 
ATOM      4  C   UNL     1       3.388   4.775  19.494  0.00  0.00    +0.000 A 
ATOM      5  C   UNL     1       3.667   3.457  19.887  0.00  0.00    +0.000 A 
ATOM      6  N   UNL     1       4.694   2.668  19.388  0.00  0.00    +0.000 N 
ATOM      7  N   UNL     1       2.901   2.886  20.841  0.00  0.00    +0.000 NA
ATOM      8  C   UNL     1       1.908   3.608  21.391  0.00  0.00    +0.000 A 
ATOM      9  N   UNL     1       1.569   4.877  21.123  0.00  0.00    +0.000 NA
ATOM     10  C   UNL     1       2.349   5.404  20.163  0.00  0.00    +0.000 A 
ATOM     11  H   UNL     1       5.540   3.165  19.141  0.00  0.00    +0.000 HD
ATOM     12  H   UNL     1       4.828   1.849  19.969  0.00  0.00    +0.000 HD
ENDROOT
BRANCH   3  13
ATOM     13  C   UNL     1       4.922   5.633  17.553  0.00  0.00    +0.000 A 
ATOM     14  C   UNL     1       4.803   4.698  16.510  0.00  0.00    +0.000 A 
ATOM     15  C   UNL     1       5.794   4.584  15.529  0.00  0.00    +0.000 A 
ATOM     16  C   UNL     1       6.908   5.414  15.582  0.00  0.00    +0.000 A 
ATOM     17  C   UNL     1       7.042   6.329  16.624  0.00  0.00    +0.000 A 
ATOM     18  F   UNL     1       8.109   7.139  16.683  0.00  0.00    +0.000 F 
ATOM     19  C   UNL     1       6.073   6.426  17.616  0.00  0.00    +0.000 A 
BRANCH  16  20
ATOM     20  O   UNL     1       7.887   5.344  14.634  0.00  0.00    +0.000 OA
ATOM     21  H   UNL     1       8.355   6.194  14.595  0.00  0.00    +0.000 HD
ENDBRANCH  16  20
ENDBRANCH   3  13
BRANCH   1  23
ATOM     22  C   UNL     1       1.589   8.165  21.493  0.00  0.00    +0.000 C 
ATOM     23  C   UNL     1       1.343   7.716  20.053  0.00  0.00    +0.000 C 
ATOM     24  C   UNL     1       1.387   8.902  19.089  0.00  0.00    +0.000 C 
ENDBRANCH   1  23
TORSDOF 3
ENDMDL
MODEL 7
REMARK VINA RESULT:      -7.2      3.627      5.980
REMARK  Name = 
REMARK  5 active torsions:
REMARK  status: ('A' for Active; 'I' for Inactive)
REMARK    1  A    between atoms: C_1  and  C_2
REMARK    2  A    between atoms: C_2  and  C_3
REMARK    3  A    between atoms: C_2  and  N_4
REMARK    4  A    between atoms: C_6  and  C_7
REMARK    5  A    between atoms: C_10  and  O_11
REMARK                            x       y       z     vdW  Elec       q    Type
REMARK                         _______ _______ _______ _____ _____    ______ ____
ROOT
ATOM      1  N   UNL     1       2.877   4.335  20.238  0.00  0.00    +0.000 N 
ATOM      2  N   UNL     1       3.787   4.027  19.291  0.00  0.00    +0.000 NA
ATOM      3  C   UNL     1       3.941   5.165  18.589  0.00  0.00    +0.000 A 
ATOM      4  C   UNL     1       3.066   6.191  19.069  0.00  0.00    +0.000 A 
ATOM      5  C   UNL     1       2.715   7.515  18.766  0.00  0.00    +0.000 A 
ATOM      6  N   UNL     1       3.204   8.254  17.698  0.00  0.00    +0.000 N 
ATOM      7  N   UNL     1       1.814   8.145  19.549  0.00  0.00    +0.000 NA
ATOM      8  C   UNL     1       1.274   7.474  20.583  0.00  0.00    +0.000 A 
ATOM      9  N   UNL     1       1.506   6.205  20.950  0.00  0.00    +0.000 NA
ATOM     10  C   UNL     1       2.414   5.619  20.151  0.00  0.00    +0.000 A 
ATOM     11  H   UNL     1       3.399   7.724  16.859  0.00  0.00    +0.000 HD
ATOM     12  H   UNL     1       2.650   9.092  17.561  0.00  0.00    +0.000 HD
ENDROOT
BRANCH   3  13
ATOM     13  C   UNL     1       4.912   5.213  17.490  0.00  0.00    +0.000 A 
ATOM     14  C   UNL     1       6.138   5.880  17.659  0.00  0.00    +0.000 A 
ATOM     15  C   UNL     1       7.084   5.920  16.629  0.00  0.00    +0.000 A 
ATOM     16  C   UNL     1       6.811   5.283  15.423  0.00  0.00    +0.000 A 
ATOM     17  C   UNL     1       5.590   4.637  15.242  0.00  0.00    +0.000 A 
ATOM     18  F   UNL     1       5.317   4.013  14.087  0.00  0.00    +0.000 F 
ATOM     19  C   UNL     1       4.636   4.619  16.254  0.00  0.00    +0.000 A 
BRANCH  16  20
ATOM     20  O   UNL     1       7.715   5.285  14.402  0.00  0.00    +0.000 OA
ATOM     21  H   UNL     1       8.055   4.385  14.274  0.00  0.00    +0.000 HD
ENDBRANCH  16  20
ENDBRANCH   3  13
BRANCH   1  23
ATOM     22  C   UNL     1       1.057   2.825  20.948  0.00  0.00    +0.000 C 
ATOM     23  C   UNL     1       2.473   3.333  21.220  0.00  0.00    +0.000 C 
ATOM     24  C   UNL     1       3.473   2.179  21.281  0.00  0.00    +0.000 C 
ENDBRANCH   1  23
TORSDOF 3
ENDMDL
MODEL 8
REMARK VINA RESULT:      -7.2      0.872      1.152
REMARK  Name = 
REMARK  5 active torsions:
REMARK  status: ('A' for Active; 'I' for Inactive)
REMARK    1  A    between atoms: C_1  and  C_2
REMARK    2  A    between atoms: C_2  and  C_3
REMARK    3  A    between atoms: C_2  and  N_4
REMARK    4  A    between atoms: C_6  and  C_7
REMARK    5  A    between atoms: C_10  and  O_11
REMARK                            x       y       z     vdW  Elec       q    Type
REMARK                         _______ _______ _______ _____ _____    ______ ____
ROOT
ATOM      1  N   UNL     1       4.723   5.393  17.492  0.00  0.00    +0.000 N 
ATOM      2  N   UNL     1       4.130   6.603  17.560  0.00  0.00    +0.000 NA
ATOM      3  C   UNL     1       3.145   6.446  18.465  0.00  0.00    +0.000 A 
ATOM      4  C   UNL     1       3.082   5.093  18.929  0.00  0.00    +0.000 A 
ATOM      5  C   UNL     1       2.304   4.300  19.786  0.00  0.00    +0.000 A 
ATOM      6  N   UNL     1       1.178   4.725  20.476  0.00  0.00    +0.000 N 
ATOM      7  N   UNL     1       2.644   3.005  19.962  0.00  0.00    +0.000 NA
ATOM      8  C   UNL     1       3.707   2.520  19.295  0.00  0.00    +0.000 A 
ATOM      9  N   UNL     1       4.501   3.168  18.431  0.00  0.00    +0.000 NA
ATOM     10  C   UNL     1       4.135   4.453  18.293  0.00  0.00    +0.000 A 
ATOM     11  H   UNL     1       0.612   5.413  19.997  0.00  0.00    +0.000 HD
ATOM     12  H   UNL     1       0.669   3.932  20.851  0.00  0.00    +0.000 HD
ENDROOT
BRANCH   3  13
ATOM     13  C   UNL     1       2.310   7.594  18.834  0.00  0.00    +0.000 A 
ATOM     14  C   UNL     1       1.909   8.519  17.853  0.00  0.00    +0.000 A 
ATOM     15  C   UNL     1       1.098   9.610  18.182  0.00  0.00    +0.000 A 
ATOM     16  C   UNL     1       0.674   9.777  19.496  0.00  0.00    +0.000 A 
ATOM     17  C   UNL     1       1.083   8.875  20.476  0.00  0.00    +0.000 A 
ATOM     18  F   UNL     1       0.676   9.021  21.745  0.00  0.00    +0.000 F 
ATOM     19  C   UNL     1       1.913   7.805  20.158  0.00  0.00    +0.000 A 
BRANCH  16  20
ATOM     20  O   UNL     1      -0.132  10.818  19.852  0.00  0.00    +0.000 OA
ATOM     21  H   UNL     1      -0.295  11.377  19.075  0.00  0.00    +0.000 HD
ENDBRANCH  16  20
ENDBRANCH   3  13
BRANCH   1  23
ATOM     22  C   UNL     1       7.113   4.779  17.407  0.00  0.00    +0.000 C 
ATOM     23  C   UNL     1       5.871   5.188  16.615  0.00  0.00    +0.000 C 
ATOM     24  C   UNL     1       5.558   4.174  15.514  0.00  0.00    +0.000 C 
ENDBRANCH   1  23
TORSDOF 3
ENDMDL
MODEL 9
REMARK VINA RESULT:      -7.2      1.195      3.323
REMARK  Name = 
REMARK  5 active torsions:
REMARK  status: ('A' for Active; 'I' for Inactive)
REMARK    1  A    between atoms: C_1  and  C_2
REMARK    2  A    between atoms: C_2  and  C_3
REMARK    3  A    between atoms: C_2  and  N_4
REMARK    4  A    between atoms: C_6  and  C_7
REMARK    5  A    between atoms: C_10  and  O_11
REMARK                            x       y       z     vdW  Elec       q    Type
REMARK                         _______ _______ _______ _____ _____    ______ ____
ROOT
ATOM      1  N   UNL     1       2.914   3.712  17.825  0.00  0.00    +0.000 N 
ATOM      2  N   UNL     1       2.191   4.682  18.423  0.00  0.00    +0.000 NA
ATOM      3  C   UNL     1       2.870   5.816  18.165  0.00  0.00    +0.000 A 
ATOM      4  C   UNL     1       4.074   5.543  17.441  0.00  0.00    +0.000 A 
ATOM      5  C   UNL     1       5.187   6.231  16.934  0.00  0.00    +0.000 A 
ATOM      6  N   UNL     1       5.434   7.588  17.088  0.00  0.00    +0.000 N 
ATOM      7  N   UNL     1       6.122   5.540  16.248  0.00  0.00    +0.000 NA
ATOM      8  C   UNL     1       5.960   4.214  16.091  0.00  0.00    +0.000 A 
ATOM      9  N   UNL     1       4.963   3.447  16.555  0.00  0.00    +0.000 NA
ATOM     10  C   UNL     1       4.051   4.175  17.222  0.00  0.00    +0.000 A 
ATOM     11  H   UNL     1       5.123   7.987  17.963  0.00  0.00    +0.000 HD
ATOM     12  H   UNL     1       6.389   7.808  16.827  0.00  0.00    +0.000 HD
ENDROOT
BRANCH   3  13
ATOM     13  C   UNL     1       2.337   7.101  18.630  0.00  0.00    +0.000 A 
ATOM     14  C   UNL     1       2.107   8.143  17.715  0.00  0.00    +0.000 A 
ATOM     15  C   UNL     1       1.583   9.370  18.137  0.00  0.00    +0.000 A 
ATOM     16  C   UNL     1       1.275   9.557  19.480  0.00  0.00    +0.000 A 
ATOM     17  C   UNL     1       1.519   8.536  20.395  0.00  0.00    +0.000 A 
ATOM     18  F   UNL     1       1.221   8.702  21.692  0.00  0.00    +0.000 F 
ATOM     19  C   UNL     1       2.066   7.325  19.984  0.00  0.00    +0.000 A 
BRANCH  16  20
ATOM     20  O   UNL     1       0.746  10.732  19.926  0.00  0.00    +0.000 OA
ATOM     21  H   UNL     1       1.436  11.415  19.924  0.00  0.00    +0.000 HD
ENDBRANCH  16  20
ENDBRANCH   3  13
BRANCH   1  23
ATOM     22  C   UNL     1       3.499   1.421  18.535  0.00  0.00    +0.000 C 
ATOM     23  C   UNL     1       2.460   2.326  17.873  0.00  0.00    +0.000 C 
ATOM     24  C   UNL     1       1.102   2.207  18.564  0.00  0.00    +0.000 C 
ENDBRANCH   1  23
TORSDOF 3
ENDMDL
