MODEL 1
REMARK VINA RESULT:      -7.6      0.000      0.000
REMARK  Name = 
REMARK  2 active torsions:
REMARK  status: ('A' for Active; 'I' for Inactive)
REMARK    1  A    between atoms: N_4  and  N_5
REMARK    2  A    between atoms: C_6  and  C_7
REMARK                            x       y       z     vdW  Elec       q    Type
REMARK                         _______ _______ _______ _____ _____    ______ ____
ROOT
ATOM      1  N   UNL     1       4.986   3.994  16.538  0.00  0.00    +0.000 NA
ATOM      2  C   UNL     1       4.129   4.733  17.165  0.00  0.00    +0.000 C 
ENDROOT
BRANCH   2   3
ATOM      3  C   UNL     1       3.252   4.132  18.257  0.00  0.00    +0.000 C 
ATOM      4  C   UNL     1       3.408   4.892  19.595  0.00  0.00    +0.000 C 
ATOM      5  C   UNL     1       2.524   4.263  20.680  0.00  0.00    +0.000 C 
ATOM      6  C   UNL     1       1.055   4.324  20.233  0.00  0.00    +0.000 C 
ATOM      7  C   UNL     1       0.874   3.561  18.909  0.00  0.00    +0.000 C 
ATOM      8  C   UNL     1       1.289   2.094  19.116  0.00  0.00    +0.000 C 
ATOM      9  C   UNL     1       2.759   2.018  19.560  0.00  0.00    +0.000 C 
ATOM     10  C   UNL     1       2.936   2.795  20.876  0.00  0.00    +0.000 C 
ATOM     11  C   UNL     1       3.646   2.654  18.473  0.00  0.00    +0.000 C 
ATOM     12  C   UNL     1       1.770   4.194  17.826  0.00  0.00    +0.000 C 
ENDBRANCH   2   3
BRANCH   1  16
ATOM     13  N   UNL     1       7.696   5.461  14.701  0.00  0.00    +0.000 NA
ATOM     14  C   UNL     1       7.057   4.813  15.614  0.00  0.00    +0.000 C 
ATOM     15  N   UNL     1       7.660   4.276  16.697  0.00  0.00    +0.000 N 
ATOM     16  N   UNL     1       5.710   4.611  15.562  0.00  0.00    +0.000 N 
ATOM     17  H   UNL     1       8.690   5.450  14.942  0.00  0.00    +0.000 HD
ATOM     18  H   UNL     1       8.523   4.694  17.011  0.00  0.00    +0.000 HD
ATOM     19  H   UNL     1       6.981   4.105  17.435  0.00  0.00    +0.000 HD
ATOM     20  H   UNL     1       5.275   4.981  14.720  0.00  0.00    +0.000 HD
ENDBRANCH   1  16
TORSDOF 2
ENDMDL
MODEL 2
REMARK VINA RESULT:      -7.6      0.269      1.835
REMARK  Name = 
REMARK  2 active torsions:
REMARK  status: ('A' for Active; 'I' for Inactive)
REMARK    1  A    between atoms: N_4  and  N_5
REMARK    2  A    between atoms: C_6  and  C_7
REMARK                            x       y       z     vdW  Elec       q    Type
REMARK                         _______ _______ _______ _____ _____    ______ ____
ROOT
ATOM      1  N   UNL     1       5.086   3.943  16.347  0.00  0.00    +0.000 NA
ATOM      2  C   UNL     1       4.140   4.646  16.881  0.00  0.00    +0.000 C 
ENDROOT
BRANCH   2   3
ATOM      3  C   UNL     1       3.284   4.059  17.997  0.00  0.00    +0.000 C 
ATOM      4  C   UNL     1       1.775   4.247  17.714  0.00  0.00    +0.000 C 
ATOM      5  C   UNL     1       0.934   3.659  18.856  0.00  0.00    +0.000 C 
ATOM      6  C   UNL     1       1.241   2.158  18.987  0.00  0.00    +0.000 C 
ATOM      7  C   UNL     1       2.737   1.950  19.282  0.00  0.00    +0.000 C 
ATOM      8  C   UNL     1       3.092   2.665  20.597  0.00  0.00    +0.000 C 
ATOM      9  C   UNL     1       2.793   4.169  20.478  0.00  0.00    +0.000 C 
ATOM     10  C   UNL     1       1.300   4.370  20.168  0.00  0.00    +0.000 C 
ATOM     11  C   UNL     1       3.633   4.758  19.329  0.00  0.00    +0.000 C 
ATOM     12  C   UNL     1       3.574   2.549  18.135  0.00  0.00    +0.000 C 
ENDBRANCH   2   3
BRANCH   1  16
ATOM     13  N   UNL     1       7.717   5.484  14.457  0.00  0.00    +0.000 NA
ATOM     14  C   UNL     1       7.108   4.858  15.404  0.00  0.00    +0.000 C 
ATOM     15  N   UNL     1       7.723   4.458  16.539  0.00  0.00    +0.000 N 
ATOM     16  N   UNL     1       5.784   4.541  15.341  0.00  0.00    +0.000 N 
ATOM     17  H   UNL     1       8.702   5.573  14.719  0.00  0.00    +0.000 HD
ATOM     18  H   UNL     1       8.540   4.969  16.838  0.00  0.00    +0.000 HD
ATOM     19  H   UNL     1       7.040   4.288  17.274  0.00  0.00    +0.000 HD
ATOM     20  H   UNL     1       5.344   4.807  14.463  0.00  0.00    +0.000 HD
ENDBRANCH   1  16
TORSDOF 2
ENDMDL
MODEL 3
REMARK VINA RESULT:      -7.6      0.043      1.894
REMARK  Name = 
REMARK  2 active torsions:
REMARK  status: ('A' for Active; 'I' for Inactive)
REMARK    1  A    between atoms: N_4  and  N_5
REMARK    2  A    between atoms: C_6  and  C_7
REMARK                            x       y       z     vdW  Elec       q    Type
REMARK                         _______ _______ _______ _____ _____    ______ ____
ROOT
ATOM      1  N   UNL     1       4.970   3.991  16.491  0.00  0.00    +0.000 NA
ATOM      2  C   UNL     1       4.162   4.733  17.178  0.00  0.00    +0.000 C 
ENDROOT
BRANCH   2   3
ATOM      3  C   UNL     1       3.280   4.113  18.256  0.00  0.00    +0.000 C 
ATOM      4  C   UNL     1       3.629   2.626  18.491  0.00  0.00    +0.000 C 
ATOM      5  C   UNL     1       2.721   2.021  19.571  0.00  0.00    +0.000 C 
ATOM      6  C   UNL     1       2.912   2.799  20.883  0.00  0.00    +0.000 C 
ATOM      7  C   UNL     1       2.556   4.281  20.674  0.00  0.00    +0.000 C 
ATOM      8  C   UNL     1       1.089   4.385  20.223  0.00  0.00    +0.000 C 
ATOM      9  C   UNL     1       0.885   3.614  18.907  0.00  0.00    +0.000 C 
ATOM     10  C   UNL     1       1.257   2.136  19.119  0.00  0.00    +0.000 C 
ATOM     11  C   UNL     1       1.800   4.217  17.825  0.00  0.00    +0.000 C 
ATOM     12  C   UNL     1       3.467   4.878  19.583  0.00  0.00    +0.000 C 
ENDBRANCH   2   3
BRANCH   1  16
ATOM     13  N   UNL     1       7.695   5.496  14.709  0.00  0.00    +0.000 NA
ATOM     14  C   UNL     1       7.048   4.830  15.602  0.00  0.00    +0.000 C 
ATOM     15  N   UNL     1       7.642   4.273  16.680  0.00  0.00    +0.000 N 
ATOM     16  N   UNL     1       5.702   4.628  15.534  0.00  0.00    +0.000 N 
ATOM     17  H   UNL     1       8.686   5.481  14.958  0.00  0.00    +0.000 HD
ATOM     18  H   UNL     1       8.501   4.685  17.011  0.00  0.00    +0.000 HD
ATOM     19  H   UNL     1       6.957   4.087  17.409  0.00  0.00    +0.000 HD
ATOM     20  H   UNL     1       5.275   5.014  14.696  0.00  0.00    +0.000 HD
ENDBRANCH   1  16
TORSDOF 2
ENDMDL
MODEL 4
REMARK VINA RESULT:      -7.3      1.791      1.809
REMARK  Name = 
REMARK  2 active torsions:
REMARK  status: ('A' for Active; 'I' for Inactive)
REMARK    1  A    between atoms: N_4  and  N_5
REMARK    2  A    between atoms: C_6  and  C_7
REMARK                            x       y       z     vdW  Elec       q    Type
REMARK                         _______ _______ _______ _____ _____    ______ ____
ROOT
ATOM      1  N   UNL     1       5.256   5.616  17.918  0.00  0.00    +0.000 NA
ATOM      2  C   UNL     1       4.071   5.862  18.375  0.00  0.00    +0.000 C 
ENDROOT
BRANCH   2   3
ATOM      3  C   UNL     1       3.239   4.744  18.993  0.00  0.00    +0.000 C 
ATOM      4  C   UNL     1       2.579   5.192  20.317  0.00  0.00    +0.000 C 
ATOM      5  C   UNL     1       1.757   4.047  20.926  0.00  0.00    +0.000 C 
ATOM      6  C   UNL     1       0.662   3.628  19.932  0.00  0.00    +0.000 C 
ATOM      7  C   UNL     1       1.300   3.165  18.609  0.00  0.00    +0.000 C 
ATOM      8  C   UNL     1       2.224   1.968  18.892  0.00  0.00    +0.000 C 
ATOM      9  C   UNL     1       3.327   2.375  19.883  0.00  0.00    +0.000 C 
ATOM     10  C   UNL     1       2.683   2.851  21.196  0.00  0.00    +0.000 C 
ATOM     11  C   UNL     1       4.149   3.527  19.275  0.00  0.00    +0.000 C 
ATOM     12  C   UNL     1       2.129   4.317  18.009  0.00  0.00    +0.000 C 
ENDBRANCH   2   3
BRANCH   1  16
ATOM     13  N   UNL     1       7.748   8.092  17.195  0.00  0.00    +0.000 NA
ATOM     14  C   UNL     1       7.182   7.048  17.694  0.00  0.00    +0.000 C 
ATOM     15  N   UNL     1       7.791   6.234  18.584  0.00  0.00    +0.000 N 
ATOM     16  N   UNL     1       5.915   6.671  17.362  0.00  0.00    +0.000 N 
ATOM     17  H   UNL     1       8.699   8.146  17.566  0.00  0.00    +0.000 HD
ATOM     18  H   UNL     1       8.520   6.627  19.161  0.00  0.00    +0.000 HD
ATOM     19  H   UNL     1       7.103   5.683  19.093  0.00  0.00    +0.000 HD
ATOM     20  H   UNL     1       5.486   7.266  16.658  0.00  0.00    +0.000 HD
ENDBRANCH   1  16
TORSDOF 2
ENDMDL
MODEL 5
REMARK VINA RESULT:      -7.3      1.752      2.392
REMARK  Name = 
REMARK  2 active torsions:
REMARK  status: ('A' for Active; 'I' for Inactive)
REMARK    1  A    between atoms: N_4  and  N_5
REMARK    2  A    between atoms: C_6  and  C_7
REMARK                            x       y       z     vdW  Elec       q    Type
REMARK                         _______ _______ _______ _____ _____    ______ ____
ROOT
ATOM      1  N   UNL     1       5.295   5.566  17.817  0.00  0.00    +0.000 NA
ATOM      2  C   UNL     1       4.158   5.835  18.375  0.00  0.00    +0.000 C 
ENDROOT
BRANCH   2   3
ATOM      3  C   UNL     1       3.314   4.719  18.978  0.00  0.00    +0.000 C 
ATOM      4  C   UNL     1       4.143   3.431  19.188  0.00  0.00    +0.000 C 
ATOM      5  C   UNL     1       3.270   2.318  19.786  0.00  0.00    +0.000 C 
ATOM      6  C   UNL     1       2.712   2.787  21.139  0.00  0.00    +0.000 C 
ATOM      7  C   UNL     1       1.871   4.062  20.950  0.00  0.00    +0.000 C 
ATOM      8  C   UNL     1       0.708   3.757  19.991  0.00  0.00    +0.000 C 
ATOM      9  C   UNL     1       1.253   3.290  18.630  0.00  0.00    +0.000 C 
ATOM     10  C   UNL     1       2.104   2.025  18.829  0.00  0.00    +0.000 C 
ATOM     11  C   UNL     1       2.133   4.404  18.033  0.00  0.00    +0.000 C 
ATOM     12  C   UNL     1       2.753   5.171  20.343  0.00  0.00    +0.000 C 
ENDBRANCH   2   3
BRANCH   1  16
ATOM     13  N   UNL     1       7.790   8.065  17.192  0.00  0.00    +0.000 NA
ATOM     14  C   UNL     1       7.213   7.018  17.673  0.00  0.00    +0.000 C 
ATOM     15  N   UNL     1       7.788   6.219  18.598  0.00  0.00    +0.000 N 
ATOM     16  N   UNL     1       5.968   6.624  17.285  0.00  0.00    +0.000 N 
ATOM     17  H   UNL     1       8.722   8.132  17.608  0.00  0.00    +0.000 HD
ATOM     18  H   UNL     1       8.484   6.625  19.205  0.00  0.00    +0.000 HD
ATOM     19  H   UNL     1       7.083   5.664  19.078  0.00  0.00    +0.000 HD
ATOM     20  H   UNL     1       5.566   7.208  16.556  0.00  0.00    +0.000 HD
ENDBRANCH   1  16
TORSDOF 2
ENDMDL
MODEL 6
REMARK VINA RESULT:      -7.2      1.773      2.639
REMARK  Name = 
REMARK  2 active torsions:
REMARK  status: ('A' for Active; 'I' for Inactive)
REMARK    1  A    between atoms: N_4  and  N_5
REMARK    2  A    between atoms: C_6  and  C_7
REMARK                            x       y       z     vdW  Elec       q    Type
REMARK                         _______ _______ _______ _____ _____    ______ ____
ROOT
ATOM      1  N   UNL     1       5.312   5.744  18.224  0.00  0.00    +0.000 NA
ATOM      2  C   UNL     1       4.032   5.684  18.040  0.00  0.00    +0.000 C 
ENDROOT
BRANCH   2   3
ATOM      3  C   UNL     1       3.202   4.623  18.753  0.00  0.00    +0.000 C 
ATOM      4  C   UNL     1       1.905   4.299  17.978  0.00  0.00    +0.000 C 
ATOM      5  C   UNL     1       1.082   3.237  18.721  0.00  0.00    +0.000 C 
ATOM      6  C   UNL     1       1.920   1.957  18.861  0.00  0.00    +0.000 C 
ATOM      7  C   UNL     1       3.211   2.255  19.643  0.00  0.00    +0.000 C 
ATOM      8  C   UNL     1       2.840   2.783  21.039  0.00  0.00    +0.000 C 
ATOM      9  C   UNL     1       2.004   4.068  20.913  0.00  0.00    +0.000 C 
ATOM     10  C   UNL     1       0.722   3.767  20.118  0.00  0.00    +0.000 C 
ATOM     11  C   UNL     1       2.828   5.132  20.163  0.00  0.00    +0.000 C 
ATOM     12  C   UNL     1       4.028   3.327  18.895  0.00  0.00    +0.000 C 
ENDBRANCH   2   3
BRANCH   1  16
ATOM     13  N   UNL     1       7.838   8.036  17.117  0.00  0.00    +0.000 NA
ATOM     14  C   UNL     1       7.268   7.072  17.753  0.00  0.00    +0.000 C 
ATOM     15  N   UNL     1       7.897   6.335  18.694  0.00  0.00    +0.000 N 
ATOM     16  N   UNL     1       5.973   6.710  17.527  0.00  0.00    +0.000 N 
ATOM     17  H   UNL     1       8.810   8.093  17.433  0.00  0.00    +0.000 HD
ATOM     18  H   UNL     1       8.667   6.759  19.188  0.00  0.00    +0.000 HD
ATOM     19  H   UNL     1       7.220   5.867  19.293  0.00  0.00    +0.000 HD
ATOM     20  H   UNL     1       5.526   7.243  16.785  0.00  0.00    +0.000 HD
ENDBRANCH   1  16
TORSDOF 2
ENDMDL
MODEL 7
REMARK VINA RESULT:      -7.2      0.679      1.192
REMARK  Name = 
REMARK  2 active torsions:
REMARK  status: ('A' for Active; 'I' for Inactive)
REMARK    1  A    between atoms: N_4  and  N_5
REMARK    2  A    between atoms: C_6  and  C_7
REMARK                            x       y       z     vdW  Elec       q    Type
REMARK                         _______ _______ _______ _____ _____    ______ ____
ROOT
ATOM      1  N   UNL     1       5.044   3.924  16.414  0.00  0.00    +0.000 NA
ATOM      2  C   UNL     1       4.120   4.629  16.982  0.00  0.00    +0.000 C 
ENDROOT
BRANCH   2   3
ATOM      3  C   UNL     1       3.291   4.038  18.116  0.00  0.00    +0.000 C 
ATOM      4  C   UNL     1       4.187   3.440  19.224  0.00  0.00    +0.000 C 
ATOM      5  C   UNL     1       3.330   2.841  20.349  0.00  0.00    +0.000 C 
ATOM      6  C   UNL     1       2.449   3.946  20.953  0.00  0.00    +0.000 C 
ATOM      7  C   UNL     1       1.537   4.546  19.868  0.00  0.00    +0.000 C 
ATOM      8  C   UNL     1       0.646   3.433  19.292  0.00  0.00    +0.000 C 
ATOM      9  C   UNL     1       1.516   2.322  18.679  0.00  0.00    +0.000 C 
ATOM     10  C   UNL     1       2.435   1.737  19.765  0.00  0.00    +0.000 C 
ATOM     11  C   UNL     1       2.380   2.924  17.554  0.00  0.00    +0.000 C 
ATOM     12  C   UNL     1       2.405   5.138  18.740  0.00  0.00    +0.000 C 
ENDBRANCH   2   3
BRANCH   1  16
ATOM     13  N   UNL     1       7.632   5.467  14.468  0.00  0.00    +0.000 NA
ATOM     14  C   UNL     1       7.045   4.837  15.425  0.00  0.00    +0.000 C 
ATOM     15  N   UNL     1       7.688   4.424  16.540  0.00  0.00    +0.000 N 
ATOM     16  N   UNL     1       5.718   4.527  15.394  0.00  0.00    +0.000 N 
ATOM     17  H   UNL     1       8.624   5.550  14.704  0.00  0.00    +0.000 HD
ATOM     18  H   UNL     1       8.515   4.929  16.821  0.00  0.00    +0.000 HD
ATOM     19  H   UNL     1       7.024   4.252  17.292  0.00  0.00    +0.000 HD
ATOM     20  H   UNL     1       5.257   4.803  14.531  0.00  0.00    +0.000 HD
ENDBRANCH   1  16
TORSDOF 2
ENDMDL
MODEL 8
REMARK VINA RESULT:      -7.2      3.497      4.276
REMARK  Name = 
REMARK  2 active torsions:
REMARK  status: ('A' for Active; 'I' for Inactive)
REMARK    1  A    between atoms: N_4  and  N_5
REMARK    2  A    between atoms: C_6  and  C_7
REMARK                            x       y       z     vdW  Elec       q    Type
REMARK                         _______ _______ _______ _____ _____    ______ ____
ROOT
ATOM      1  N   UNL     1       2.143   7.247  18.332  0.00  0.00    +0.000 NA
ATOM      2  C   UNL     1       3.001   6.285  18.222  0.00  0.00    +0.000 C 
ENDROOT
BRANCH   2   3
ATOM      3  C   UNL     1       2.692   4.910  18.800  0.00  0.00    +0.000 C 
ATOM      4  C   UNL     1       3.981   4.170  19.227  0.00  0.00    +0.000 C 
ATOM      5  C   UNL     1       3.645   2.784  19.796  0.00  0.00    +0.000 C 
ATOM      6  C   UNL     1       2.729   2.949  21.019  0.00  0.00    +0.000 C 
ATOM      7  C   UNL     1       1.433   3.672  20.613  0.00  0.00    +0.000 C 
ATOM      8  C   UNL     1       0.712   2.841  19.537  0.00  0.00    +0.000 C 
ATOM      9  C   UNL     1       1.617   2.672  18.306  0.00  0.00    +0.000 C 
ATOM     10  C   UNL     1       2.917   1.962  18.721  0.00  0.00    +0.000 C 
ATOM     11  C   UNL     1       1.958   4.062  17.738  0.00  0.00    +0.000 C 
ATOM     12  C   UNL     1       1.779   5.059  20.036  0.00  0.00    +0.000 C 
ENDBRANCH   2   3
BRANCH   1  16
ATOM     13  N   UNL     1       2.222  10.732  17.484  0.00  0.00    +0.000 NA
ATOM     14  C   UNL     1       1.880   9.628  18.054  0.00  0.00    +0.000 C 
ATOM     15  N   UNL     1       0.870   9.540  18.947  0.00  0.00    +0.000 N 
ATOM     16  N   UNL     1       2.515   8.447  17.806  0.00  0.00    +0.000 N 
ATOM     17  H   UNL     1       1.627  11.476  17.855  0.00  0.00    +0.000 HD
ATOM     18  H   UNL     1       0.130  10.224  18.890  0.00  0.00    +0.000 HD
ATOM     19  H   UNL     1       0.548   8.578  19.028  0.00  0.00    +0.000 HD
ATOM     20  H   UNL     1       3.302   8.536  17.167  0.00  0.00    +0.000 HD
ENDBRANCH   1  16
TORSDOF 2
ENDMDL
MODEL 9
REMARK VINA RESULT:      -7.2      1.215      1.710
REMARK  Name = 
REMARK  2 active torsions:
REMARK  status: ('A' for Active; 'I' for Inactive)
REMARK    1  A    between atoms: N_4  and  N_5
REMARK    2  A    between atoms: C_6  and  C_7
REMARK                            x       y       z     vdW  Elec       q    Type
REMARK                         _______ _______ _______ _____ _____    ______ ____
ROOT
ATOM      1  N   UNL     1       5.200   4.900  15.865  0.00  0.00    +0.000 NA
ATOM      2  C   UNL     1       5.228   4.959  17.157  0.00  0.00    +0.000 C 
ENDROOT
BRANCH   2   3
ATOM      3  C   UNL     1       4.108   4.333  17.979  0.00  0.00    +0.000 C 
ATOM      4  C   UNL     1       4.659   3.580  19.212  0.00  0.00    +0.000 C 
ATOM      5  C   UNL     1       3.514   2.950  20.017  0.00  0.00    +0.000 C 
ATOM      6  C   UNL     1       2.558   4.058  20.487  0.00  0.00    +0.000 C 
ATOM      7  C   UNL     1       1.987   4.812  19.273  0.00  0.00    +0.000 C 
ATOM      8  C   UNL     1       1.224   3.818  18.381  0.00  0.00    +0.000 C 
ATOM      9  C   UNL     1       2.170   2.706  17.899  0.00  0.00    +0.000 C 
ATOM     10  C   UNL     1       2.749   1.966  19.117  0.00  0.00    +0.000 C 
ATOM     11  C   UNL     1       3.322   3.338  17.096  0.00  0.00    +0.000 C 
ATOM     12  C   UNL     1       3.143   5.435  18.466  0.00  0.00    +0.000 C 
ENDBRANCH   2   3
BRANCH   1  16
ATOM     13  N   UNL     1       7.962   5.516  13.660  0.00  0.00    +0.000 NA
ATOM     14  C   UNL     1       6.949   4.935  14.206  0.00  0.00    +0.000 C 
ATOM     15  N   UNL     1       6.508   3.715  13.830  0.00  0.00    +0.000 N 
ATOM     16  N   UNL     1       6.232   5.507  15.214  0.00  0.00    +0.000 N 
ATOM     17  H   UNL     1       8.309   4.911  12.912  0.00  0.00    +0.000 HD
ATOM     18  H   UNL     1       7.171   3.083  13.408  0.00  0.00    +0.000 HD
ATOM     19  H   UNL     1       5.939   3.300  14.564  0.00  0.00    +0.000 HD
ATOM     20  H   UNL     1       6.547   6.443  15.456  0.00  0.00    +0.000 HD
ENDBRANCH   1  16
TORSDOF 2
ENDMDL
