MODEL 1
REMARK VINA RESULT:      -6.5      0.000      0.000
REMARK  Name = 
REMARK  9 active torsions:
REMARK  status: ('A' for Active; 'I' for Inactive)
REMARK    1  A    between atoms: C_1  and  S_2
REMARK    2  A    between atoms: S_2  and  C_3
REMARK    3  A    between atoms: C_9  and  C_10
REMARK    4  A    between atoms: N_12  and  C_13
REMARK    5  A    between atoms: C_13  and  C_14
REMARK    6  A    between atoms: C_14  and  N_15
REMARK    7  A    between atoms: N_15  and  C_16
REMARK    8  A    between atoms: N_15  and  C_17
REMARK    9  A    between atoms: C_18  and  O_19
REMARK                            x       y       z     vdW  Elec       q    Type
REMARK                         _______ _______ _______ _____ _____    ______ ____
ROOT
ATOM      1  C   UNL     1       6.040   3.548  12.837  0.00  0.00    +0.000 A 
ATOM      2  C   UNL     1       7.192   4.323  12.726  0.00  0.00    +0.000 A 
ATOM      3  C   UNL     1       7.582   5.143  13.796  0.00  0.00    +0.000 A 
ATOM      4  C   UNL     1       6.856   5.201  14.978  0.00  0.00    +0.000 A 
ATOM      5  N   UNL     1       7.307   5.986  15.970  0.00  0.00    +0.000 NA
ATOM      6  C   UNL     1       6.612   6.007  17.134  0.00  0.00    +0.000 A 
ATOM      7  C   UNL     1       5.445   5.298  17.367  0.00  0.00    +0.000 A 
ATOM      8  C   UNL     1       4.977   4.498  16.325  0.00  0.00    +0.000 A 
ATOM      9  C   UNL     1       5.688   4.423  15.100  0.00  0.00    +0.000 A 
ATOM     10  C   UNL     1       5.301   3.593  14.023  0.00  0.00    +0.000 A 
ENDROOT
BRANCH   7  11
ATOM     11  C   UNL     1       4.864   5.399  18.726  0.00  0.00    +0.000 C 
ATOM     12  O   UNL     1       5.613   5.399  19.698  0.00  0.00    +0.000 OA
ATOM     13  N   UNL     1       3.492   5.490  18.842  0.00  0.00    +0.000 N 
ATOM     14  H   UNL     1       2.979   5.871  18.053  0.00  0.00    +0.000 HD
BRANCH  13  15
ATOM     15  C   UNL     1       2.881   5.659  20.156  0.00  0.00    +0.000 C 
BRANCH  15  16
ATOM     16  C   UNL     1       1.632   4.777  20.354  0.00  0.00    +0.000 C 
BRANCH  16  17
ATOM     17  N   UNL     1       1.880   3.321  20.236  0.00  0.00    +0.000 NA
ATOM     18  C   UNL     1       1.691   2.625  21.510  0.00  0.00    +0.000 C 
ATOM     19  C   UNL     1       0.970   2.753  19.233  0.00  0.00    +0.000 C 
ENDBRANCH  16  17
ENDBRANCH  15  16
ENDBRANCH  13  15
ENDBRANCH   7  11
BRANCH   1  21
ATOM     20  C   UNL     1       3.934   3.230  11.094  0.00  0.00    +0.000 C 
ATOM     21  S   UNL     1       5.520   2.462  11.521  0.00  0.00    +0.000 S 
ENDBRANCH   1  21
BRANCH   8  22
ATOM     22  O   UNL     1       3.841   3.733  16.433  0.00  0.00    +0.000 OA
ATOM     23  H   UNL     1       3.812   3.362  17.334  0.00  0.00    +0.000 HD
ENDBRANCH   8  22
TORSDOF 6
ENDMDL
MODEL 2
REMARK VINA RESULT:      -6.3      5.523      8.218
REMARK  Name = 
REMARK  9 active torsions:
REMARK  status: ('A' for Active; 'I' for Inactive)
REMARK    1  A    between atoms: C_1  and  S_2
REMARK    2  A    between atoms: S_2  and  C_3
REMARK    3  A    between atoms: C_9  and  C_10
REMARK    4  A    between atoms: N_12  and  C_13
REMARK    5  A    between atoms: C_13  and  C_14
REMARK    6  A    between atoms: C_14  and  N_15
REMARK    7  A    between atoms: N_15  and  C_16
REMARK    8  A    between atoms: N_15  and  C_17
REMARK    9  A    between atoms: C_18  and  O_19
REMARK                            x       y       z     vdW  Elec       q    Type
REMARK                         _______ _______ _______ _____ _____    ______ ____
ROOT
ATOM      1  C   UNL     1      -0.416  10.760  21.384  0.00  0.00    +0.000 A 
ATOM      2  C   UNL     1      -0.521  11.526  20.226  0.00  0.00    +0.000 A 
ATOM      3  C   UNL     1       0.144  11.116  19.059  0.00  0.00    +0.000 A 
ATOM      4  C   UNL     1       0.905   9.955  19.018  0.00  0.00    +0.000 A 
ATOM      5  N   UNL     1       1.488   9.611  17.859  0.00  0.00    +0.000 NA
ATOM      6  C   UNL     1       2.198   8.456  17.819  0.00  0.00    +0.000 A 
ATOM      7  C   UNL     1       2.393   7.614  18.903  0.00  0.00    +0.000 A 
ATOM      8  C   UNL     1       1.795   7.989  20.105  0.00  0.00    +0.000 A 
ATOM      9  C   UNL     1       1.021   9.174  20.186  0.00  0.00    +0.000 A 
ATOM     10  C   UNL     1       0.344   9.586  21.356  0.00  0.00    +0.000 A 
ENDROOT
BRANCH   7  11
ATOM     11  C   UNL     1       3.144   6.363  18.647  0.00  0.00    +0.000 C 
ATOM     12  O   UNL     1       3.520   6.114  17.506  0.00  0.00    +0.000 OA
ATOM     13  N   UNL     1       3.393   5.524  19.714  0.00  0.00    +0.000 N 
ATOM     14  H   UNL     1       3.418   5.938  20.640  0.00  0.00    +0.000 HD
BRANCH  13  15
ATOM     15  C   UNL     1       4.186   4.315  19.521  0.00  0.00    +0.000 C 
BRANCH  15  16
ATOM     16  C   UNL     1       3.487   3.048  20.052  0.00  0.00    +0.000 C 
BRANCH  16  17
ATOM     17  N   UNL     1       2.015   3.164  20.181  0.00  0.00    +0.000 NA
ATOM     18  C   UNL     1       1.310   2.344  19.194  0.00  0.00    +0.000 C 
ATOM     19  C   UNL     1       1.612   2.752  21.531  0.00  0.00    +0.000 C 
ENDBRANCH  16  17
ENDBRANCH  15  16
ENDBRANCH  13  15
ENDBRANCH   7  11
BRANCH   1  21
ATOM     20  C   UNL     1      -2.427  12.443  22.217  0.00  0.00    +0.000 C 
ATOM     21  S   UNL     1      -1.269  11.216  22.881  0.00  0.00    +0.000 S 
ENDBRANCH   1  21
BRANCH   8  22
ATOM     22  O   UNL     1       1.899   7.234  21.249  0.00  0.00    +0.000 OA
ATOM     23  H   UNL     1       2.128   7.831  21.984  0.00  0.00    +0.000 HD
ENDBRANCH   8  22
TORSDOF 6
ENDMDL
MODEL 3
REMARK VINA RESULT:      -6.2      2.920      6.893
REMARK  Name = 
REMARK  9 active torsions:
REMARK  status: ('A' for Active; 'I' for Inactive)
REMARK    1  A    between atoms: C_1  and  S_2
REMARK    2  A    between atoms: S_2  and  C_3
REMARK    3  A    between atoms: C_9  and  C_10
REMARK    4  A    between atoms: N_12  and  C_13
REMARK    5  A    between atoms: C_13  and  C_14
REMARK    6  A    between atoms: C_14  and  N_15
REMARK    7  A    between atoms: N_15  and  C_16
REMARK    8  A    between atoms: N_15  and  C_17
REMARK    9  A    between atoms: C_18  and  O_19
REMARK                            x       y       z     vdW  Elec       q    Type
REMARK                         _______ _______ _______ _____ _____    ______ ____
ROOT
ATOM      1  C   UNL     1       1.979   4.265  19.434  0.00  0.00    +0.000 A 
ATOM      2  C   UNL     1       1.828   5.638  19.613  0.00  0.00    +0.000 A 
ATOM      3  C   UNL     1       2.700   6.522  18.959  0.00  0.00    +0.000 A 
ATOM      4  C   UNL     1       3.713   6.071  18.123  0.00  0.00    +0.000 A 
ATOM      5  N   UNL     1       4.490   6.977  17.508  0.00  0.00    +0.000 NA
ATOM      6  C   UNL     1       5.452   6.527  16.665  0.00  0.00    +0.000 A 
ATOM      7  C   UNL     1       5.715   5.190  16.413  0.00  0.00    +0.000 A 
ATOM      8  C   UNL     1       4.912   4.257  17.069  0.00  0.00    +0.000 A 
ATOM      9  C   UNL     1       3.876   4.683  17.938  0.00  0.00    +0.000 A 
ATOM     10  C   UNL     1       2.992   3.795  18.591  0.00  0.00    +0.000 A 
ENDROOT
BRANCH   7  11
ATOM     11  C   UNL     1       6.765   4.896  15.410  0.00  0.00    +0.000 C 
ATOM     12  O   UNL     1       7.870   4.523  15.792  0.00  0.00    +0.000 OA
ATOM     13  N   UNL     1       6.452   5.055  14.075  0.00  0.00    +0.000 N 
ATOM     14  H   UNL     1       5.475   4.976  13.810  0.00  0.00    +0.000 HD
BRANCH  13  15
ATOM     15  C   UNL     1       7.433   4.714  13.051  0.00  0.00    +0.000 C 
BRANCH  15  16
ATOM     16  C   UNL     1       6.800   4.051  11.811  0.00  0.00    +0.000 C 
BRANCH  16  17
ATOM     17  N   UNL     1       5.832   2.971  12.117  0.00  0.00    +0.000 NA
ATOM     18  C   UNL     1       4.485   3.287  11.637  0.00  0.00    +0.000 C 
ATOM     19  C   UNL     1       6.288   1.721  11.495  0.00  0.00    +0.000 C 
ENDBRANCH  16  17
ENDBRANCH  15  16
ENDBRANCH  13  15
ENDBRANCH   7  11
BRANCH   1  21
ATOM     20  C   UNL     1       1.817   2.739  21.718  0.00  0.00    +0.000 C 
ATOM     21  S   UNL     1       0.876   3.099  20.212  0.00  0.00    +0.000 S 
ENDBRANCH   1  21
BRANCH   8  22
ATOM     22  O   UNL     1       5.060   2.903  16.893  0.00  0.00    +0.000 OA
ATOM     23  H   UNL     1       5.679   2.576  17.571  0.00  0.00    +0.000 HD
ENDBRANCH   8  22
TORSDOF 6
ENDMDL
MODEL 4
REMARK VINA RESULT:      -6.2      5.136      8.386
REMARK  Name = 
REMARK  9 active torsions:
REMARK  status: ('A' for Active; 'I' for Inactive)
REMARK    1  A    between atoms: C_1  and  S_2
REMARK    2  A    between atoms: S_2  and  C_3
REMARK    3  A    between atoms: C_9  and  C_10
REMARK    4  A    between atoms: N_12  and  C_13
REMARK    5  A    between atoms: C_13  and  C_14
REMARK    6  A    between atoms: C_14  and  N_15
REMARK    7  A    between atoms: N_15  and  C_16
REMARK    8  A    between atoms: N_15  and  C_17
REMARK    9  A    between atoms: C_18  and  O_19
REMARK                            x       y       z     vdW  Elec       q    Type
REMARK                         _______ _______ _______ _____ _____    ______ ____
ROOT
ATOM      1  C   UNL     1      -0.070  10.992  20.801  0.00  0.00    +0.000 A 
ATOM      2  C   UNL     1       0.095  11.724  19.627  0.00  0.00    +0.000 A 
ATOM      3  C   UNL     1       0.832  11.175  18.566  0.00  0.00    +0.000 A 
ATOM      4  C   UNL     1       1.403   9.912  18.644  0.00  0.00    +0.000 A 
ATOM      5  N   UNL     1       2.069   9.441  17.578  0.00  0.00    +0.000 NA
ATOM      6  C   UNL     1       2.590   8.192  17.650  0.00  0.00    +0.000 A 
ATOM      7  C   UNL     1       2.511   7.369  18.763  0.00  0.00    +0.000 A 
ATOM      8  C   UNL     1       1.829   7.874  19.870  0.00  0.00    +0.000 A 
ATOM      9  C   UNL     1       1.244   9.165  19.828  0.00  0.00    +0.000 A 
ATOM     10  C   UNL     1       0.495   9.716  20.892  0.00  0.00    +0.000 A 
ENDROOT
BRANCH   7  11
ATOM     11  C   UNL     1       3.086   6.011  18.628  0.00  0.00    +0.000 C 
ATOM     12  O   UNL     1       2.439   5.046  19.022  0.00  0.00    +0.000 OA
ATOM     13  N   UNL     1       4.337   5.887  18.059  0.00  0.00    +0.000 N 
ATOM     14  H   UNL     1       4.637   6.619  17.422  0.00  0.00    +0.000 HD
BRANCH  13  15
ATOM     15  C   UNL     1       4.914   4.564  17.846  0.00  0.00    +0.000 C 
BRANCH  15  16
ATOM     16  C   UNL     1       4.805   4.091  16.383  0.00  0.00    +0.000 C 
BRANCH  16  17
ATOM     17  N   UNL     1       6.102   3.767  15.742  0.00  0.00    +0.000 NA
ATOM     18  C   UNL     1       6.091   4.046  14.305  0.00  0.00    +0.000 C 
ATOM     19  C   UNL     1       7.168   4.551  16.380  0.00  0.00    +0.000 C 
ENDBRANCH  16  17
ENDBRANCH  15  16
ENDBRANCH  13  15
ENDBRANCH   7  11
BRANCH   1  21
ATOM     20  C   UNL     1      -0.866  10.244  23.327  0.00  0.00    +0.000 C 
ATOM     21  S   UNL     1      -1.028  11.626  22.164  0.00  0.00    +0.000 S 
ENDBRANCH   1  21
BRANCH   8  22
ATOM     22  O   UNL     1       1.666   7.153  21.028  0.00  0.00    +0.000 OA
ATOM     23  H   UNL     1       2.104   6.291  20.911  0.00  0.00    +0.000 HD
ENDBRANCH   8  22
TORSDOF 6
ENDMDL
MODEL 5
REMARK VINA RESULT:      -6.1      5.246      8.071
REMARK  Name = 
REMARK  9 active torsions:
REMARK  status: ('A' for Active; 'I' for Inactive)
REMARK    1  A    between atoms: C_1  and  S_2
REMARK    2  A    between atoms: S_2  and  C_3
REMARK    3  A    between atoms: C_9  and  C_10
REMARK    4  A    between atoms: N_12  and  C_13
REMARK    5  A    between atoms: C_13  and  C_14
REMARK    6  A    between atoms: C_14  and  N_15
REMARK    7  A    between atoms: N_15  and  C_16
REMARK    8  A    between atoms: N_15  and  C_17
REMARK    9  A    between atoms: C_18  and  O_19
REMARK                            x       y       z     vdW  Elec       q    Type
REMARK                         _______ _______ _______ _____ _____    ______ ____
ROOT
ATOM      1  C   UNL     1      -0.256  10.777  21.091  0.00  0.00    +0.000 A 
ATOM      2  C   UNL     1      -0.271  11.502  19.902  0.00  0.00    +0.000 A 
ATOM      3  C   UNL     1       0.438  11.024  18.789  0.00  0.00    +0.000 A 
ATOM      4  C   UNL     1       1.154   9.835  18.830  0.00  0.00    +0.000 A 
ATOM      5  N   UNL     1       1.783   9.426  17.717  0.00  0.00    +0.000 NA
ATOM      6  C   UNL     1       2.449   8.245  17.757  0.00  0.00    +0.000 A 
ATOM      7  C   UNL     1       2.554   7.438  18.878  0.00  0.00    +0.000 A 
ATOM      8  C   UNL     1       1.909   7.880  20.033  0.00  0.00    +0.000 A 
ATOM      9  C   UNL     1       1.178   9.095  20.029  0.00  0.00    +0.000 A 
ATOM     10  C   UNL     1       0.457   9.575  21.146  0.00  0.00    +0.000 A 
ENDROOT
BRANCH   7  11
ATOM     11  C   UNL     1       3.269   6.152  18.708  0.00  0.00    +0.000 C 
ATOM     12  O   UNL     1       4.066   5.792  19.568  0.00  0.00    +0.000 OA
ATOM     13  N   UNL     1       3.004   5.406  17.577  0.00  0.00    +0.000 N 
ATOM     14  H   UNL     1       2.103   5.536  17.130  0.00  0.00    +0.000 HD
BRANCH  13  15
ATOM     15  C   UNL     1       3.635   4.102  17.400  0.00  0.00    +0.000 C 
BRANCH  15  16
ATOM     16  C   UNL     1       2.673   2.928  17.668  0.00  0.00    +0.000 C 
BRANCH  16  17
ATOM     17  N   UNL     1       1.899   3.040  18.927  0.00  0.00    +0.000 NA
ATOM     18  C   UNL     1       0.657   2.267  18.881  0.00  0.00    +0.000 C 
ATOM     19  C   UNL     1       2.724   2.567  20.046  0.00  0.00    +0.000 C 
ENDBRANCH  16  17
ENDBRANCH  15  16
ENDBRANCH  13  15
ENDBRANCH   7  11
BRANCH   1  21
ATOM     20  C   UNL     1      -0.758  13.085  22.502  0.00  0.00    +0.000 C 
ATOM     21  S   UNL     1      -1.169  11.320  22.523  0.00  0.00    +0.000 S 
ENDBRANCH   1  21
BRANCH   8  22
ATOM     22  O   UNL     1       1.924   7.166  21.206  0.00  0.00    +0.000 OA
ATOM     23  H   UNL     1       2.063   7.792  21.939  0.00  0.00    +0.000 HD
ENDBRANCH   8  22
TORSDOF 6
ENDMDL
MODEL 6
REMARK VINA RESULT:      -6.1      4.697      8.349
REMARK  Name = 
REMARK  9 active torsions:
REMARK  status: ('A' for Active; 'I' for Inactive)
REMARK    1  A    between atoms: C_1  and  S_2
REMARK    2  A    between atoms: S_2  and  C_3
REMARK    3  A    between atoms: C_9  and  C_10
REMARK    4  A    between atoms: N_12  and  C_13
REMARK    5  A    between atoms: C_13  and  C_14
REMARK    6  A    between atoms: C_14  and  N_15
REMARK    7  A    between atoms: N_15  and  C_16
REMARK    8  A    between atoms: N_15  and  C_17
REMARK    9  A    between atoms: C_18  and  O_19
REMARK                            x       y       z     vdW  Elec       q    Type
REMARK                         _______ _______ _______ _____ _____    ______ ____
ROOT
ATOM      1  C   UNL     1       0.274   9.626  21.448  0.00  0.00    +0.000 A 
ATOM      2  C   UNL     1       0.145  10.580  20.441  0.00  0.00    +0.000 A 
ATOM      3  C   UNL     1       0.766  10.366  19.200  0.00  0.00    +0.000 A 
ATOM      4  C   UNL     1       1.505   9.221  18.937  0.00  0.00    +0.000 A 
ATOM      5  N   UNL     1       2.046   9.072  17.717  0.00  0.00    +0.000 NA
ATOM      6  C   UNL     1       2.734   7.932  17.458  0.00  0.00    +0.000 A 
ATOM      7  C   UNL     1       2.948   6.916  18.375  0.00  0.00    +0.000 A 
ATOM      8  C   UNL     1       2.395   7.088  19.644  0.00  0.00    +0.000 A 
ATOM      9  C   UNL     1       1.644   8.251  19.950  0.00  0.00    +0.000 A 
ATOM     10  C   UNL     1       1.012   8.465  21.196  0.00  0.00    +0.000 A 
ENDROOT
BRANCH   7  11
ATOM     11  C   UNL     1       3.669   5.719  17.885  0.00  0.00    +0.000 C 
ATOM     12  O   UNL     1       3.062   4.659  17.772  0.00  0.00    +0.000 OA
ATOM     13  N   UNL     1       5.008   5.848  17.573  0.00  0.00    +0.000 N 
ATOM     14  H   UNL     1       5.342   6.770  17.312  0.00  0.00    +0.000 HD
BRANCH  13  15
ATOM     15  C   UNL     1       5.741   4.712  17.025  0.00  0.00    +0.000 C 
BRANCH  15  16
ATOM     16  C   UNL     1       6.872   5.135  16.066  0.00  0.00    +0.000 C 
BRANCH  16  17
ATOM     17  N   UNL     1       6.458   5.280  14.651  0.00  0.00    +0.000 NA
ATOM     18  C   UNL     1       7.576   5.082  13.727  0.00  0.00    +0.000 C 
ATOM     19  C   UNL     1       5.402   4.304  14.352  0.00  0.00    +0.000 C 
ENDBRANCH  16  17
ENDBRANCH  15  16
ENDBRANCH  13  15
ENDBRANCH   7  11
BRANCH   1  21
ATOM     20  C   UNL     1      -1.150  11.522  22.845  0.00  0.00    +0.000 C 
ATOM     21  S   UNL     1      -0.524   9.831  23.029  0.00  0.00    +0.000 S 
ENDBRANCH   1  21
BRANCH   8  22
ATOM     22  O   UNL     1       2.521   6.148  20.638  0.00  0.00    +0.000 OA
ATOM     23  H   UNL     1       2.920   6.582  21.414  0.00  0.00    +0.000 HD
ENDBRANCH   8  22
TORSDOF 6
ENDMDL
MODEL 7
REMARK VINA RESULT:      -6.1      5.318      8.546
REMARK  Name = 
REMARK  9 active torsions:
REMARK  status: ('A' for Active; 'I' for Inactive)
REMARK    1  A    between atoms: C_1  and  S_2
REMARK    2  A    between atoms: S_2  and  C_3
REMARK    3  A    between atoms: C_9  and  C_10
REMARK    4  A    between atoms: N_12  and  C_13
REMARK    5  A    between atoms: C_13  and  C_14
REMARK    6  A    between atoms: C_14  and  N_15
REMARK    7  A    between atoms: N_15  and  C_16
REMARK    8  A    between atoms: N_15  and  C_17
REMARK    9  A    between atoms: C_18  and  O_19
REMARK                            x       y       z     vdW  Elec       q    Type
REMARK                         _______ _______ _______ _____ _____    ______ ____
ROOT
ATOM      1  C   UNL     1      -0.205  10.881  21.131  0.00  0.00    +0.000 A 
ATOM      2  C   UNL     1      -0.172  11.655  19.974  0.00  0.00    +0.000 A 
ATOM      3  C   UNL     1       0.513  11.184  18.843  0.00  0.00    +0.000 A 
ATOM      4  C   UNL     1       1.158   9.954  18.835  0.00  0.00    +0.000 A 
ATOM      5  N   UNL     1       1.767   9.556  17.706  0.00  0.00    +0.000 NA
ATOM      6  C   UNL     1       2.362   8.338  17.697  0.00  0.00    +0.000 A 
ATOM      7  C   UNL     1       2.415   7.479  18.784  0.00  0.00    +0.000 A 
ATOM      8  C   UNL     1       1.792   7.909  19.955  0.00  0.00    +0.000 A 
ATOM      9  C   UNL     1       1.133   9.164  20.001  0.00  0.00    +0.000 A 
ATOM     10  C   UNL     1       0.437   9.638  21.136  0.00  0.00    +0.000 A 
ENDROOT
BRANCH   7  11
ATOM     11  C   UNL     1       3.054   6.162  18.560  0.00  0.00    +0.000 C 
ATOM     12  O   UNL     1       2.735   5.214  19.271  0.00  0.00    +0.000 OA
ATOM     13  N   UNL     1       3.990   6.056  17.552  0.00  0.00    +0.000 N 
ATOM     14  H   UNL     1       3.927   6.714  16.782  0.00  0.00    +0.000 HD
BRANCH  13  15
ATOM     15  C   UNL     1       4.596   4.763  17.253  0.00  0.00    +0.000 C 
BRANCH  15  16
ATOM     16  C   UNL     1       5.829   4.461  18.127  0.00  0.00    +0.000 C 
BRANCH  16  17
ATOM     17  N   UNL     1       7.128   4.798  17.497  0.00  0.00    +0.000 NA
ATOM     18  C   UNL     1       7.090   4.645  16.041  0.00  0.00    +0.000 C 
ATOM     19  C   UNL     1       7.484   6.183  17.830  0.00  0.00    +0.000 C 
ENDBRANCH  16  17
ENDBRANCH  15  16
ENDBRANCH  13  15
ENDBRANCH   7  11
BRANCH   1  21
ATOM     20  C   UNL     1      -2.269  12.564  21.822  0.00  0.00    +0.000 C 
ATOM     21  S   UNL     1      -1.091  11.416  22.583  0.00  0.00    +0.000 S 
ENDBRANCH   1  21
BRANCH   8  22
ATOM     22  O   UNL     1       1.759   7.146  21.097  0.00  0.00    +0.000 OA
ATOM     23  H   UNL     1       1.938   7.731  21.856  0.00  0.00    +0.000 HD
ENDBRANCH   8  22
TORSDOF 6
ENDMDL
MODEL 8
REMARK VINA RESULT:      -6.0      5.104      8.411
REMARK  Name = 
REMARK  9 active torsions:
REMARK  status: ('A' for Active; 'I' for Inactive)
REMARK    1  A    between atoms: C_1  and  S_2
REMARK    2  A    between atoms: S_2  and  C_3
REMARK    3  A    between atoms: C_9  and  C_10
REMARK    4  A    between atoms: N_12  and  C_13
REMARK    5  A    between atoms: C_13  and  C_14
REMARK    6  A    between atoms: C_14  and  N_15
REMARK    7  A    between atoms: N_15  and  C_16
REMARK    8  A    between atoms: N_15  and  C_17
REMARK    9  A    between atoms: C_18  and  O_19
REMARK                            x       y       z     vdW  Elec       q    Type
REMARK                         _______ _______ _______ _____ _____    ______ ____
ROOT
ATOM      1  C   UNL     1      -0.117  10.513  21.343  0.00  0.00    +0.000 A 
ATOM      2  C   UNL     1      -0.085  11.279  20.180  0.00  0.00    +0.000 A 
ATOM      3  C   UNL     1       0.601  10.800  19.052  0.00  0.00    +0.000 A 
ATOM      4  C   UNL     1       1.248   9.572  19.054  0.00  0.00    +0.000 A 
ATOM      5  N   UNL     1       1.858   9.166  17.928  0.00  0.00    +0.000 NA
ATOM      6  C   UNL     1       2.455   7.949  17.928  0.00  0.00    +0.000 A 
ATOM      7  C   UNL     1       2.510   7.098  19.021  0.00  0.00    +0.000 A 
ATOM      8  C   UNL     1       1.886   7.536  20.189  0.00  0.00    +0.000 A 
ATOM      9  C   UNL     1       1.225   8.790  20.226  0.00  0.00    +0.000 A 
ATOM     10  C   UNL     1       0.527   9.271  21.357  0.00  0.00    +0.000 A 
ENDROOT
BRANCH   7  11
ATOM     11  C   UNL     1       3.151   5.780  18.808  0.00  0.00    +0.000 C 
ATOM     12  O   UNL     1       3.791   5.271  19.722  0.00  0.00    +0.000 OA
ATOM     13  N   UNL     1       2.999   5.175  17.577  0.00  0.00    +0.000 N 
ATOM     14  H   UNL     1       2.181   5.424  17.029  0.00  0.00    +0.000 HD
BRANCH  13  15
ATOM     15  C   UNL     1       3.557   3.847  17.343  0.00  0.00    +0.000 C 
BRANCH  15  16
ATOM     16  C   UNL     1       5.010   3.888  16.832  0.00  0.00    +0.000 C 
BRANCH  16  17
ATOM     17  N   UNL     1       5.304   5.002  15.899  0.00  0.00    +0.000 NA
ATOM     18  C   UNL     1       6.429   5.821  16.356  0.00  0.00    +0.000 C 
ATOM     19  C   UNL     1       5.609   4.456  14.571  0.00  0.00    +0.000 C 
ENDBRANCH  16  17
ENDBRANCH  15  16
ENDBRANCH  13  15
ENDBRANCH   7  11
BRANCH   1  21
ATOM     20  C   UNL     1      -1.633  12.647  22.189  0.00  0.00    +0.000 C 
ATOM     21  S   UNL     1      -1.003  11.057  22.791  0.00  0.00    +0.000 S 
ENDBRANCH   1  21
BRANCH   8  22
ATOM     22  O   UNL     1       1.854   6.782  21.337  0.00  0.00    +0.000 OA
ATOM     23  H   UNL     1       1.576   5.879  21.097  0.00  0.00    +0.000 HD
ENDBRANCH   8  22
TORSDOF 6
ENDMDL
MODEL 9
REMARK VINA RESULT:      -6.0      5.046      7.706
REMARK  Name = 
REMARK  9 active torsions:
REMARK  status: ('A' for Active; 'I' for Inactive)
REMARK    1  A    between atoms: C_1  and  S_2
REMARK    2  A    between atoms: S_2  and  C_3
REMARK    3  A    between atoms: C_9  and  C_10
REMARK    4  A    between atoms: N_12  and  C_13
REMARK    5  A    between atoms: C_13  and  C_14
REMARK    6  A    between atoms: C_14  and  N_15
REMARK    7  A    between atoms: N_15  and  C_16
REMARK    8  A    between atoms: N_15  and  C_17
REMARK    9  A    between atoms: C_18  and  O_19
REMARK                            x       y       z     vdW  Elec       q    Type
REMARK                         _______ _______ _______ _____ _____    ______ ____
ROOT
ATOM      1  C   UNL     1       0.166  10.576  20.988  0.00  0.00    +0.000 A 
ATOM      2  C   UNL     1       0.259  11.430  19.892  0.00  0.00    +0.000 A 
ATOM      3  C   UNL     1       0.934  11.005  18.737  0.00  0.00    +0.000 A 
ATOM      4  C   UNL     1       1.511   9.745  18.645  0.00  0.00    +0.000 A 
ATOM      5  N   UNL     1       2.114   9.397  17.497  0.00  0.00    +0.000 NA
ATOM      6  C   UNL     1       2.641   8.151  17.405  0.00  0.00    +0.000 A 
ATOM      7  C   UNL     1       2.629   7.213  18.425  0.00  0.00    +0.000 A 
ATOM      8  C   UNL     1       2.013   7.591  19.618  0.00  0.00    +0.000 A 
ATOM      9  C   UNL     1       1.424   8.874  19.750  0.00  0.00    +0.000 A 
ATOM     10  C   UNL     1       0.738   9.301  20.909  0.00  0.00    +0.000 A 
ENDROOT
BRANCH   7  11
ATOM     11  C   UNL     1       3.198   5.882  18.112  0.00  0.00    +0.000 C 
ATOM     12  O   UNL     1       4.416   5.747  18.068  0.00  0.00    +0.000 OA
ATOM     13  N   UNL     1       2.323   4.839  17.881  0.00  0.00    +0.000 N 
ATOM     14  H   UNL     1       1.400   4.900  18.299  0.00  0.00    +0.000 HD
BRANCH  13  15
ATOM     15  C   UNL     1       2.838   3.497  17.634  0.00  0.00    +0.000 C 
BRANCH  15  16
ATOM     16  C   UNL     1       2.501   2.508  18.767  0.00  0.00    +0.000 C 
BRANCH  16  17
ATOM     17  N   UNL     1       2.454   3.113  20.120  0.00  0.00    +0.000 NA
ATOM     18  C   UNL     1       1.136   2.970  20.740  0.00  0.00    +0.000 C 
ATOM     19  C   UNL     1       3.464   2.473  20.973  0.00  0.00    +0.000 C 
ENDBRANCH  16  17
ENDBRANCH  15  16
ENDBRANCH  13  15
ENDBRANCH   7  11
BRANCH   1  21
ATOM     20  C   UNL     1      -0.337   9.626  23.522  0.00  0.00    +0.000 C 
ATOM     21  S   UNL     1      -0.711  11.052  22.466  0.00  0.00    +0.000 S 
ENDBRANCH   1  21
BRANCH   8  22
ATOM     22  O   UNL     1       1.921   6.749  20.699  0.00  0.00    +0.000 OA
ATOM     23  H   UNL     1       2.430   7.142  21.432  0.00  0.00    +0.000 HD
ENDBRANCH   8  22
TORSDOF 6
ENDMDL
