MODEL 1
REMARK VINA RESULT:      -7.8      0.000      0.000
REMARK  Name = 
REMARK  11 active torsions:
REMARK  status: ('A' for Active; 'I' for Inactive)
REMARK    1  A    between atoms: C_1  and  O_2
REMARK    2  A    between atoms: O_2  and  C_3
REMARK    3  A    between atoms: C_5  and  N_6
REMARK    4  A    between atoms: C_7  and  C_8
REMARK    5  A    between atoms: N_10  and  C_11
REMARK    6  A    between atoms: C_11  and  C_12
REMARK    7  A    between atoms: C_12  and  N_13
REMARK    8  A    between atoms: C_19  and  O_20
REMARK    9  A    between atoms: O_20  and  C_21
REMARK   10  A    between atoms: C_29  and  O_30
REMARK   11  A    between atoms: O_30  and  C_31
REMARK                            x       y       z     vdW  Elec       q    Type
REMARK                         _______ _______ _______ _____ _____    ______ ____
ROOT
ATOM      1  C   UNL     1       2.285   5.985  20.048  0.00  0.00    +0.000 C 
ATOM      2  O   UNL     1       1.713   5.219  20.799  0.00  0.00    +0.000 OA
ATOM      3  N   UNL     1       2.202   7.357  20.187  0.00  0.00    +0.000 N 
ATOM      4  H   UNL     1       3.025   7.863  19.867  0.00  0.00    +0.000 HD
ENDROOT
BRANCH   1   8
ATOM      5  C   UNL     1       4.974   4.393  17.134  0.00  0.00    +0.000 A 
ATOM      6  C   UNL     1       3.614   4.047  17.085  0.00  0.00    +0.000 A 
ATOM      7  C   UNL     1       2.680   4.537  17.997  0.00  0.00    +0.000 A 
ATOM      8  C   UNL     1       3.129   5.458  18.960  0.00  0.00    +0.000 A 
ATOM      9  C   UNL     1       4.474   5.832  18.991  0.00  0.00    +0.000 A 
ATOM     10  C   UNL     1       5.409   5.316  18.093  0.00  0.00    +0.000 A 
BRANCH   7  11
ATOM     11  N   UNL     1       1.334   4.166  17.806  0.00  0.00    +0.000 N 
ATOM     12  H   UNL     1       1.201   3.420  17.130  0.00  0.00    +0.000 HD
ATOM     13  H   UNL     1       0.866   3.956  18.689  0.00  0.00    +0.000 HD
ENDBRANCH   7  11
BRANCH   5  15
ATOM     14  C   UNL     1       5.882   4.277  14.952  0.00  0.00    +0.000 C 
ATOM     15  O   UNL     1       5.881   3.802  16.294  0.00  0.00    +0.000 OA
ENDBRANCH   5  15
BRANCH  10  16
ATOM     16  O   UNL     1       6.670   5.816  18.290  0.00  0.00    +0.000 OA
ATOM     17  C   UNL     1       7.100   6.902  17.483  0.00  0.00    +0.000 C 
ENDBRANCH  10  16
ENDBRANCH   1   8
BRANCH   3  18
ATOM     18  C   UNL     1       1.447   7.956  21.278  0.00  0.00    +0.000 C 
BRANCH  18  19
ATOM     19  C   UNL     1       0.263   8.866  20.864  0.00  0.00    +0.000 C 
BRANCH  19  20
ATOM     20  N   UNL     1       0.715  10.256  20.652  0.00  0.00    +0.000 NA
ATOM     21  C   UNL     1      -0.210  11.263  21.219  0.00  0.00    +0.000 C 
ATOM     22  C   UNL     1      -0.101  12.439  20.244  0.00  0.00    +0.000 C 
ATOM     23  C   UNL     1      -1.172  13.506  20.250  0.00  0.00    +0.000 C 
ATOM     24  C   UNL     1      -2.563  12.939  20.014  0.00  0.00    +0.000 C 
ATOM     25  C   UNL     1      -2.666  11.860  18.960  0.00  0.00    +0.000 A 
ATOM     26  C   UNL     1      -3.914  11.376  18.504  0.00  0.00    +0.000 A 
ATOM     27  C   UNL     1      -3.954  10.376  17.521  0.00  0.00    +0.000 A 
ATOM     28  C   UNL     1      -2.790   9.837  16.990  0.00  0.00    +0.000 A 
ATOM     29  C   UNL     1      -1.558  10.302  17.430  0.00  0.00    +0.000 A 
ATOM     30  C   UNL     1      -1.470  11.285  18.432  0.00  0.00    +0.000 A 
ATOM     31  C   UNL     1      -0.079  11.730  18.895  0.00  0.00    +0.000 C 
ATOM     32  C   UNL     1       0.903  10.597  19.229  0.00  0.00    +0.000 C 
BRANCH  26  33
ATOM     33  O   UNL     1      -5.173  11.816  18.818  0.00  0.00    +0.000 OA
ATOM     34  C   UNL     1      -6.309  11.220  18.217  0.00  0.00    +0.000 C 
ENDBRANCH  26  33
ENDBRANCH  19  20
ENDBRANCH  18  19
ENDBRANCH   3  18
TORSDOF 8
ENDMDL
MODEL 2
REMARK VINA RESULT:      -7.7      1.950      2.721
REMARK  Name = 
REMARK  11 active torsions:
REMARK  status: ('A' for Active; 'I' for Inactive)
REMARK    1  A    between atoms: C_1  and  O_2
REMARK    2  A    between atoms: O_2  and  C_3
REMARK    3  A    between atoms: C_5  and  N_6
REMARK    4  A    between atoms: C_7  and  C_8
REMARK    5  A    between atoms: N_10  and  C_11
REMARK    6  A    between atoms: C_11  and  C_12
REMARK    7  A    between atoms: C_12  and  N_13
REMARK    8  A    between atoms: C_19  and  O_20
REMARK    9  A    between atoms: O_20  and  C_21
REMARK   10  A    between atoms: C_29  and  O_30
REMARK   11  A    between atoms: O_30  and  C_31
REMARK                            x       y       z     vdW  Elec       q    Type
REMARK                         _______ _______ _______ _____ _____    ______ ____
ROOT
ATOM      1  C   UNL     1       2.109   7.424  19.703  0.00  0.00    +0.000 C 
ATOM      2  O   UNL     1       2.204   8.377  18.955  0.00  0.00    +0.000 OA
ATOM      3  N   UNL     1       1.705   7.554  21.018  0.00  0.00    +0.000 N 
ATOM      4  H   UNL     1       1.217   6.741  21.390  0.00  0.00    +0.000 HD
ENDROOT
BRANCH   1   8
ATOM      5  C   UNL     1       2.620   3.422  18.296  0.00  0.00    +0.000 A 
ATOM      6  C   UNL     1       3.308   4.471  17.666  0.00  0.00    +0.000 A 
ATOM      7  C   UNL     1       3.195   5.799  18.080  0.00  0.00    +0.000 A 
ATOM      8  C   UNL     1       2.403   6.067  19.209  0.00  0.00    +0.000 A 
ATOM      9  C   UNL     1       1.744   5.021  19.861  0.00  0.00    +0.000 A 
ATOM     10  C   UNL     1       1.838   3.699  19.425  0.00  0.00    +0.000 A 
BRANCH   7  11
ATOM     11  N   UNL     1       3.984   6.754  17.407  0.00  0.00    +0.000 N 
ATOM     12  H   UNL     1       4.184   7.586  17.954  0.00  0.00    +0.000 HD
ATOM     13  H   UNL     1       4.839   6.344  17.027  0.00  0.00    +0.000 HD
ENDBRANCH   7  11
BRANCH   5  15
ATOM     14  C   UNL     1       3.640   1.289  18.366  0.00  0.00    +0.000 C 
ATOM     15  O   UNL     1       2.663   2.149  17.791  0.00  0.00    +0.000 OA
ENDBRANCH   5  15
BRANCH  10  16
ATOM     16  O   UNL     1       1.121   2.829  20.205  0.00  0.00    +0.000 OA
ATOM     17  C   UNL     1       1.540   2.622  21.546  0.00  0.00    +0.000 C 
ENDBRANCH  10  16
ENDBRANCH   1   8
BRANCH   3  18
ATOM     18  C   UNL     1       1.329   8.850  21.563  0.00  0.00    +0.000 C 
BRANCH  18  19
ATOM     19  C   UNL     1       0.107   9.536  20.901  0.00  0.00    +0.000 C 
BRANCH  19  20
ATOM     20  N   UNL     1       0.311  10.996  20.803  0.00  0.00    +0.000 NA
ATOM     21  C   UNL     1      -0.766  11.779  21.451  0.00  0.00    +0.000 C 
ATOM     22  C   UNL     1      -0.874  13.031  20.575  0.00  0.00    +0.000 C 
ATOM     23  C   UNL     1      -2.112  13.894  20.668  0.00  0.00    +0.000 C 
ATOM     24  C   UNL     1      -3.388  13.116  20.387  0.00  0.00    +0.000 C 
ATOM     25  C   UNL     1      -3.318  12.124  19.248  0.00  0.00    +0.000 A 
ATOM     26  C   UNL     1      -4.471  11.471  18.753  0.00  0.00    +0.000 A 
ATOM     27  C   UNL     1      -4.352  10.562  17.691  0.00  0.00    +0.000 A 
ATOM     28  C   UNL     1      -3.120  10.276  17.118  0.00  0.00    +0.000 A 
ATOM     29  C   UNL     1      -1.980  10.910  17.595  0.00  0.00    +0.000 A 
ATOM     30  C   UNL     1      -2.049  11.809  18.675  0.00  0.00    +0.000 A 
ATOM     31  C   UNL     1      -0.749  12.448  19.173  0.00  0.00    +0.000 C 
ATOM     32  C   UNL     1       0.417  11.478  19.413  0.00  0.00    +0.000 C 
BRANCH  26  33
ATOM     33  O   UNL     1      -5.782  11.660  19.101  0.00  0.00    +0.000 OA
ATOM     34  C   UNL     1      -6.809  11.494  18.139  0.00  0.00    +0.000 C 
ENDBRANCH  26  33
ENDBRANCH  19  20
ENDBRANCH  18  19
ENDBRANCH   3  18
TORSDOF 8
ENDMDL
MODEL 3
REMARK VINA RESULT:      -7.7      2.289      3.174
REMARK  Name = 
REMARK  11 active torsions:
REMARK  status: ('A' for Active; 'I' for Inactive)
REMARK    1  A    between atoms: C_1  and  O_2
REMARK    2  A    between atoms: O_2  and  C_3
REMARK    3  A    between atoms: C_5  and  N_6
REMARK    4  A    between atoms: C_7  and  C_8
REMARK    5  A    between atoms: N_10  and  C_11
REMARK    6  A    between atoms: C_11  and  C_12
REMARK    7  A    between atoms: C_12  and  N_13
REMARK    8  A    between atoms: C_19  and  O_20
REMARK    9  A    between atoms: O_20  and  C_21
REMARK   10  A    between atoms: C_29  and  O_30
REMARK   11  A    between atoms: O_30  and  C_31
REMARK                            x       y       z     vdW  Elec       q    Type
REMARK                         _______ _______ _______ _____ _____    ______ ____
ROOT
ATOM      1  C   UNL     1       1.897   7.776  20.063  0.00  0.00    +0.000 C 
ATOM      2  O   UNL     1       1.840   8.697  19.272  0.00  0.00    +0.000 OA
ATOM      3  N   UNL     1       1.735   7.958  21.423  0.00  0.00    +0.000 N 
ATOM      4  H   UNL     1       1.336   7.157  21.910  0.00  0.00    +0.000 HD
ENDROOT
BRANCH   1   8
ATOM      5  C   UNL     1       2.199   3.730  18.720  0.00  0.00    +0.000 A 
ATOM      6  C   UNL     1       2.841   4.750  17.999  0.00  0.00    +0.000 A 
ATOM      7  C   UNL     1       2.792   6.089  18.386  0.00  0.00    +0.000 A 
ATOM      8  C   UNL     1       2.118   6.401  19.579  0.00  0.00    +0.000 A 
ATOM      9  C   UNL     1       1.508   5.385  20.319  0.00  0.00    +0.000 A 
ATOM     10  C   UNL     1       1.536   4.051  19.911  0.00  0.00    +0.000 A 
BRANCH   7  11
ATOM     11  N   UNL     1       3.528   7.011  17.615  0.00  0.00    +0.000 N 
ATOM     12  H   UNL     1       4.533   6.860  17.635  0.00  0.00    +0.000 HD
ATOM     13  H   UNL     1       3.180   7.073  16.657  0.00  0.00    +0.000 HD
ENDBRANCH   7  11
BRANCH   5  15
ATOM     14  C   UNL     1       3.427   1.777  18.198  0.00  0.00    +0.000 C 
ATOM     15  O   UNL     1       2.171   2.444  18.247  0.00  0.00    +0.000 OA
ENDBRANCH   5  15
BRANCH  10  16
ATOM     16  O   UNL     1       0.884   3.214  20.780  0.00  0.00    +0.000 OA
ATOM     17  C   UNL     1       1.647   2.535  21.765  0.00  0.00    +0.000 C 
ENDBRANCH  10  16
ENDBRANCH   1   8
BRANCH   3  18
ATOM     18  C   UNL     1       1.443   9.273  21.975  0.00  0.00    +0.000 C 
BRANCH  18  19
ATOM     19  C   UNL     1      -0.057   9.616  22.155  0.00  0.00    +0.000 C 
BRANCH  19  20
ATOM     20  N   UNL     1      -0.225  10.985  22.682  0.00  0.00    +0.000 NA
ATOM     21  C   UNL     1      -1.633  11.318  22.998  0.00  0.00    +0.000 C 
ATOM     22  C   UNL     1      -1.728  12.813  22.674  0.00  0.00    +0.000 C 
ATOM     23  C   UNL     1      -3.089  13.445  22.492  0.00  0.00    +0.000 C 
ATOM     24  C   UNL     1      -3.908  12.763  21.406  0.00  0.00    +0.000 C 
ATOM     25  C   UNL     1      -3.152  12.372  20.157  0.00  0.00    +0.000 A 
ATOM     26  C   UNL     1      -3.813  11.905  18.998  0.00  0.00    +0.000 A 
ATOM     27  C   UNL     1      -3.065  11.559  17.863  0.00  0.00    +0.000 A 
ATOM     28  C   UNL     1      -1.680  11.651  17.854  0.00  0.00    +0.000 A 
ATOM     29  C   UNL     1      -1.018  12.108  18.986  0.00  0.00    +0.000 A 
ATOM     30  C   UNL     1      -1.725  12.442  20.155  0.00  0.00    +0.000 A 
ATOM     31  C   UNL     1      -0.931  12.907  21.379  0.00  0.00    +0.000 C 
ATOM     32  C   UNL     1       0.269  12.029  21.764  0.00  0.00    +0.000 C 
BRANCH  26  33
ATOM     33  O   UNL     1      -5.159  11.815  18.753  0.00  0.00    +0.000 OA
ATOM     34  C   UNL     1      -5.645  11.825  17.422  0.00  0.00    +0.000 C 
ENDBRANCH  26  33
ENDBRANCH  19  20
ENDBRANCH  18  19
ENDBRANCH   3  18
TORSDOF 8
ENDMDL
MODEL 4
REMARK VINA RESULT:      -7.7      5.409      8.510
REMARK  Name = 
REMARK  11 active torsions:
REMARK  status: ('A' for Active; 'I' for Inactive)
REMARK    1  A    between atoms: C_1  and  O_2
REMARK    2  A    between atoms: O_2  and  C_3
REMARK    3  A    between atoms: C_5  and  N_6
REMARK    4  A    between atoms: C_7  and  C_8
REMARK    5  A    between atoms: N_10  and  C_11
REMARK    6  A    between atoms: C_11  and  C_12
REMARK    7  A    between atoms: C_12  and  N_13
REMARK    8  A    between atoms: C_19  and  O_20
REMARK    9  A    between atoms: O_20  and  C_21
REMARK   10  A    between atoms: C_29  and  O_30
REMARK   11  A    between atoms: O_30  and  C_31
REMARK                            x       y       z     vdW  Elec       q    Type
REMARK                         _______ _______ _______ _____ _____    ______ ____
ROOT
ATOM      1  C   UNL     1       6.628   6.399  16.963  0.00  0.00    +0.000 C 
ATOM      2  O   UNL     1       7.349   6.062  16.044  0.00  0.00    +0.000 OA
ATOM      3  N   UNL     1       6.937   7.459  17.794  0.00  0.00    +0.000 N 
ATOM      4  H   UNL     1       6.127   7.942  18.177  0.00  0.00    +0.000 HD
ENDROOT
BRANCH   1   8
ATOM      5  C   UNL     1       2.785   4.623  17.541  0.00  0.00    +0.000 A 
ATOM      6  C   UNL     1       3.826   3.859  16.989  0.00  0.00    +0.000 A 
ATOM      7  C   UNL     1       5.106   4.372  16.782  0.00  0.00    +0.000 A 
ATOM      8  C   UNL     1       5.359   5.689  17.204  0.00  0.00    +0.000 A 
ATOM      9  C   UNL     1       4.336   6.441  17.786  0.00  0.00    +0.000 A 
ATOM     10  C   UNL     1       3.049   5.932  17.964  0.00  0.00    +0.000 A 
BRANCH   7  11
ATOM     11  N   UNL     1       6.082   3.489  16.279  0.00  0.00    +0.000 N 
ATOM     12  H   UNL     1       5.761   2.530  16.176  0.00  0.00    +0.000 HD
ATOM     13  H   UNL     1       6.502   3.835  15.415  0.00  0.00    +0.000 HD
ENDBRANCH   7  11
BRANCH   5  15
ATOM     14  C   UNL     1       1.361   2.937  18.394  0.00  0.00    +0.000 C 
ATOM     15  O   UNL     1       1.512   4.123  17.622  0.00  0.00    +0.000 OA
ENDBRANCH   5  15
BRANCH  10  16
ATOM     16  O   UNL     1       2.199   6.828  18.557  0.00  0.00    +0.000 OA
ATOM     17  C   UNL     1       2.204   8.171  18.097  0.00  0.00    +0.000 C 
ENDBRANCH  10  16
ENDBRANCH   1   8
BRANCH   3  18
ATOM     18  C   UNL     1       8.136   8.256  17.580  0.00  0.00    +0.000 C 
BRANCH  18  19
ATOM     19  C   UNL     1       8.070   9.725  18.069  0.00  0.00    +0.000 C 
BRANCH  19  20
ATOM     20  N   UNL     1       9.379  10.164  18.594  0.00  0.00    +0.000 NA
ATOM     21  C   UNL     1       9.332  10.564  20.019  0.00  0.00    +0.000 C 
ATOM     22  C   UNL     1      10.360  11.695  20.108  0.00  0.00    +0.000 C 
ATOM     23  C   UNL     1      10.333  12.628  21.298  0.00  0.00    +0.000 C 
ATOM     24  C   UNL     1       8.988  13.317  21.468  0.00  0.00    +0.000 C 
ATOM     25  C   UNL     1       8.326  13.796  20.196  0.00  0.00    +0.000 A 
ATOM     26  C   UNL     1       7.173  14.614  20.215  0.00  0.00    +0.000 A 
ATOM     27  C   UNL     1       6.600  15.035  19.006  0.00  0.00    +0.000 A 
ATOM     28  C   UNL     1       7.133  14.655  17.782  0.00  0.00    +0.000 A 
ATOM     29  C   UNL     1       8.265  13.852  17.749  0.00  0.00    +0.000 A 
ATOM     30  C   UNL     1       8.858  13.385  18.936  0.00  0.00    +0.000 A 
ATOM     31  C   UNL     1      10.085  12.475  18.828  0.00  0.00    +0.000 C 
ATOM     32  C   UNL     1       9.955  11.300  17.847  0.00  0.00    +0.000 C 
BRANCH  26  33
ATOM     33  O   UNL     1       6.534  15.175  21.290  0.00  0.00    +0.000 OA
ATOM     34  C   UNL     1       6.881  16.477  21.728  0.00  0.00    +0.000 C 
ENDBRANCH  26  33
ENDBRANCH  19  20
ENDBRANCH  18  19
ENDBRANCH   3  18
TORSDOF 8
ENDMDL
MODEL 5
REMARK VINA RESULT:      -7.5      1.147      1.266
REMARK  Name = 
REMARK  11 active torsions:
REMARK  status: ('A' for Active; 'I' for Inactive)
REMARK    1  A    between atoms: C_1  and  O_2
REMARK    2  A    between atoms: O_2  and  C_3
REMARK    3  A    between atoms: C_5  and  N_6
REMARK    4  A    between atoms: C_7  and  C_8
REMARK    5  A    between atoms: N_10  and  C_11
REMARK    6  A    between atoms: C_11  and  C_12
REMARK    7  A    between atoms: C_12  and  N_13
REMARK    8  A    between atoms: C_19  and  O_20
REMARK    9  A    between atoms: O_20  and  C_21
REMARK   10  A    between atoms: C_29  and  O_30
REMARK   11  A    between atoms: O_30  and  C_31
REMARK                            x       y       z     vdW  Elec       q    Type
REMARK                         _______ _______ _______ _____ _____    ______ ____
ROOT
ATOM      1  C   UNL     1       2.048   5.796  20.330  0.00  0.00    +0.000 C 
ATOM      2  O   UNL     1       1.186   5.054  20.759  0.00  0.00    +0.000 OA
ATOM      3  N   UNL     1       2.096   7.139  20.651  0.00  0.00    +0.000 N 
ATOM      4  H   UNL     1       3.033   7.536  20.660  0.00  0.00    +0.000 HD
ENDROOT
BRANCH   1   8
ATOM      5  C   UNL     1       5.302   4.550  17.856  0.00  0.00    +0.000 A 
ATOM      6  C   UNL     1       4.726   3.638  18.754  0.00  0.00    +0.000 A 
ATOM      7  C   UNL     1       3.656   3.974  19.584  0.00  0.00    +0.000 A 
ATOM      8  C   UNL     1       3.111   5.264  19.457  0.00  0.00    +0.000 A 
ATOM      9  C   UNL     1       3.659   6.164  18.539  0.00  0.00    +0.000 A 
ATOM     10  C   UNL     1       4.748   5.830  17.733  0.00  0.00    +0.000 A 
BRANCH   7  11
ATOM     11  N   UNL     1       3.124   2.954  20.397  0.00  0.00    +0.000 N 
ATOM     12  H   UNL     1       2.149   3.090  20.649  0.00  0.00    +0.000 HD
ATOM     13  H   UNL     1       3.279   2.027  19.998  0.00  0.00    +0.000 HD
ENDBRANCH   7  11
BRANCH   5  15
ATOM     14  C   UNL     1       7.662   4.636  17.709  0.00  0.00    +0.000 C 
ATOM     15  O   UNL     1       6.425   4.221  17.142  0.00  0.00    +0.000 OA
ENDBRANCH   5  15
BRANCH  10  16
ATOM     16  O   UNL     1       5.126   6.851  16.900  0.00  0.00    +0.000 OA
ATOM     17  C   UNL     1       5.030   6.650  15.498  0.00  0.00    +0.000 C 
ENDBRANCH  10  16
ENDBRANCH   1   8
BRANCH   3  18
ATOM     18  C   UNL     1       1.125   7.727  21.562  0.00  0.00    +0.000 C 
BRANCH  18  19
ATOM     19  C   UNL     1       0.078   8.671  20.921  0.00  0.00    +0.000 C 
BRANCH  19  20
ATOM     20  N   UNL     1       0.647  10.015  20.697  0.00  0.00    +0.000 NA
ATOM     21  C   UNL     1      -0.215  11.106  21.206  0.00  0.00    +0.000 C 
ATOM     22  C   UNL     1       0.024  12.246  20.210  0.00  0.00    +0.000 C 
ATOM     23  C   UNL     1      -0.957  13.394  20.152  0.00  0.00    +0.000 C 
ATOM     24  C   UNL     1      -2.380  12.933  19.874  0.00  0.00    +0.000 C 
ATOM     25  C   UNL     1      -2.529  11.840  18.841  0.00  0.00    +0.000 A 
ATOM     26  C   UNL     1      -3.794  11.446  18.347  0.00  0.00    +0.000 A 
ATOM     27  C   UNL     1      -3.878  10.429  17.384  0.00  0.00    +0.000 A 
ATOM     28  C   UNL     1      -2.742   9.786  16.911  0.00  0.00    +0.000 A 
ATOM     29  C   UNL     1      -1.493  10.163  17.388  0.00  0.00    +0.000 A 
ATOM     30  C   UNL     1      -1.364  11.160  18.372  0.00  0.00    +0.000 A 
ATOM     31  C   UNL     1       0.039  11.504  18.879  0.00  0.00    +0.000 C 
ATOM     32  C   UNL     1       0.914  10.306  19.275  0.00  0.00    +0.000 C 
BRANCH  26  33
ATOM     33  O   UNL     1      -5.025  11.992  18.602  0.00  0.00    +0.000 OA
ATOM     34  C   UNL     1      -6.205  11.267  18.301  0.00  0.00    +0.000 C 
ENDBRANCH  26  33
ENDBRANCH  19  20
ENDBRANCH  18  19
ENDBRANCH   3  18
TORSDOF 8
ENDMDL
MODEL 6
REMARK VINA RESULT:      -7.4      1.217      1.634
REMARK  Name = 
REMARK  11 active torsions:
REMARK  status: ('A' for Active; 'I' for Inactive)
REMARK    1  A    between atoms: C_1  and  O_2
REMARK    2  A    between atoms: O_2  and  C_3
REMARK    3  A    between atoms: C_5  and  N_6
REMARK    4  A    between atoms: C_7  and  C_8
REMARK    5  A    between atoms: N_10  and  C_11
REMARK    6  A    between atoms: C_11  and  C_12
REMARK    7  A    between atoms: C_12  and  N_13
REMARK    8  A    between atoms: C_19  and  O_20
REMARK    9  A    between atoms: O_20  and  C_21
REMARK   10  A    between atoms: C_29  and  O_30
REMARK   11  A    between atoms: O_30  and  C_31
REMARK                            x       y       z     vdW  Elec       q    Type
REMARK                         _______ _______ _______ _____ _____    ______ ____
ROOT
ATOM      1  C   UNL     1       2.000   6.442  20.266  0.00  0.00    +0.000 C 
ATOM      2  O   UNL     1       1.121   5.653  20.554  0.00  0.00    +0.000 OA
ATOM      3  N   UNL     1       2.041   7.724  20.780  0.00  0.00    +0.000 N 
ATOM      4  H   UNL     1       2.979   8.108  20.878  0.00  0.00    +0.000 HD
ENDROOT
BRANCH   1   8
ATOM      5  C   UNL     1       5.045   4.932  17.676  0.00  0.00    +0.000 A 
ATOM      6  C   UNL     1       4.376   6.120  17.341  0.00  0.00    +0.000 A 
ATOM      7  C   UNL     1       3.380   6.674  18.145  0.00  0.00    +0.000 A 
ATOM      8  C   UNL     1       3.091   6.033  19.362  0.00  0.00    +0.000 A 
ATOM      9  C   UNL     1       3.779   4.870  19.717  0.00  0.00    +0.000 A 
ATOM     10  C   UNL     1       4.754   4.305  18.894  0.00  0.00    +0.000 A 
BRANCH   7  11
ATOM     11  N   UNL     1       2.826   7.902  17.732  0.00  0.00    +0.000 N 
ATOM     12  H   UNL     1       3.513   8.587  17.431  0.00  0.00    +0.000 HD
ATOM     13  H   UNL     1       2.095   7.776  17.030  0.00  0.00    +0.000 HD
ENDBRANCH   7  11
BRANCH   5  15
ATOM     14  C   UNL     1       5.473   4.188  15.472  0.00  0.00    +0.000 C 
ATOM     15  O   UNL     1       5.934   4.355  16.807  0.00  0.00    +0.000 OA
ENDBRANCH   5  15
BRANCH  10  16
ATOM     16  O   UNL     1       5.310   3.172  19.429  0.00  0.00    +0.000 OA
ATOM     17  C   UNL     1       4.460   2.252  20.096  0.00  0.00    +0.000 C 
ENDBRANCH  10  16
ENDBRANCH   1   8
BRANCH   3  18
ATOM     18  C   UNL     1       1.041   8.182  21.734  0.00  0.00    +0.000 C 
BRANCH  18  19
ATOM     19  C   UNL     1      -0.102   9.051  21.154  0.00  0.00    +0.000 C 
BRANCH  19  20
ATOM     20  N   UNL     1       0.336  10.451  20.981  0.00  0.00    +0.000 NA
ATOM     21  C   UNL     1      -0.635  11.436  21.509  0.00  0.00    +0.000 C 
ATOM     22  C   UNL     1      -0.496  12.625  20.553  0.00  0.00    +0.000 C 
ATOM     23  C   UNL     1      -1.584  13.674  20.514  0.00  0.00    +0.000 C 
ATOM     24  C   UNL     1      -2.950  13.086  20.200  0.00  0.00    +0.000 C 
ATOM     25  C   UNL     1      -2.978  12.017  19.130  0.00  0.00    +0.000 A 
ATOM     26  C   UNL     1      -4.192  11.518  18.603  0.00  0.00    +0.000 A 
ATOM     27  C   UNL     1      -4.163  10.529  17.609  0.00  0.00    +0.000 A 
ATOM     28  C   UNL     1      -2.963  10.016  17.135  0.00  0.00    +0.000 A 
ATOM     29  C   UNL     1      -1.764  10.497  17.644  0.00  0.00    +0.000 A 
ATOM     30  C   UNL     1      -1.746  11.469  18.660  0.00  0.00    +0.000 A 
ATOM     31  C   UNL     1      -0.390  11.932  19.200  0.00  0.00    +0.000 C 
ATOM     32  C   UNL     1       0.593  10.812  19.573  0.00  0.00    +0.000 C 
BRANCH  26  33
ATOM     33  O   UNL     1      -5.474  11.933  18.855  0.00  0.00    +0.000 OA
ATOM     34  C   UNL     1      -6.553  11.426  18.090  0.00  0.00    +0.000 C 
ENDBRANCH  26  33
ENDBRANCH  19  20
ENDBRANCH  18  19
ENDBRANCH   3  18
TORSDOF 8
ENDMDL
MODEL 7
REMARK VINA RESULT:      -7.3      6.425     10.310
REMARK  Name = 
REMARK  11 active torsions:
REMARK  status: ('A' for Active; 'I' for Inactive)
REMARK    1  A    between atoms: C_1  and  O_2
REMARK    2  A    between atoms: O_2  and  C_3
REMARK    3  A    between atoms: C_5  and  N_6
REMARK    4  A    between atoms: C_7  and  C_8
REMARK    5  A    between atoms: N_10  and  C_11
REMARK    6  A    between atoms: C_11  and  C_12
REMARK    7  A    between atoms: C_12  and  N_13
REMARK    8  A    between atoms: C_19  and  O_20
REMARK    9  A    between atoms: O_20  and  C_21
REMARK   10  A    between atoms: C_29  and  O_30
REMARK   11  A    between atoms: O_30  and  C_31
REMARK                            x       y       z     vdW  Elec       q    Type
REMARK                         _______ _______ _______ _____ _____    ______ ____
ROOT
ATOM      1  C   UNL     1       9.378  10.786  18.642  0.00  0.00    +0.000 C 
ATOM      2  O   UNL     1       9.832  10.389  19.698  0.00  0.00    +0.000 OA
ATOM      3  N   UNL     1       8.543  10.013  17.859  0.00  0.00    +0.000 N 
ATOM      4  H   UNL     1       7.874  10.545  17.305  0.00  0.00    +0.000 HD
ENDROOT
BRANCH   1   8
ATOM      5  C   UNL     1      10.118  14.852  17.557  0.00  0.00    +0.000 A 
ATOM      6  C   UNL     1      11.142  13.901  17.423  0.00  0.00    +0.000 A 
ATOM      7  C   UNL     1      10.967  12.557  17.748  0.00  0.00    +0.000 A 
ATOM      8  C   UNL     1       9.690  12.148  18.171  0.00  0.00    +0.000 A 
ATOM      9  C   UNL     1       8.658  13.083  18.273  0.00  0.00    +0.000 A 
ATOM     10  C   UNL     1       8.848  14.433  17.973  0.00  0.00    +0.000 A 
BRANCH   7  11
ATOM     11  N   UNL     1      12.051  11.688  17.511  0.00  0.00    +0.000 N 
ATOM     12  H   UNL     1      11.846  10.710  17.690  0.00  0.00    +0.000 HD
ATOM     13  H   UNL     1      12.450  11.820  16.580  0.00  0.00    +0.000 HD
ENDBRANCH   7  11
BRANCH   5  15
ATOM     14  C   UNL     1      10.871  16.909  18.451  0.00  0.00    +0.000 C 
ATOM     15  O   UNL     1      10.360  16.183  17.339  0.00  0.00    +0.000 OA
ENDBRANCH   5  15
BRANCH  10  16
ATOM     16  O   UNL     1       7.709  15.179  18.132  0.00  0.00    +0.000 OA
ATOM     17  C   UNL     1       7.408  15.685  19.424  0.00  0.00    +0.000 C 
ENDBRANCH  10  16
ENDBRANCH   1   8
BRANCH   3  18
ATOM     18  C   UNL     1       8.130   8.684  18.288  0.00  0.00    +0.000 C 
BRANCH  18  19
ATOM     19  C   UNL     1       7.115   7.960  17.368  0.00  0.00    +0.000 C 
BRANCH  19  20
ATOM     20  N   UNL     1       7.664   6.676  16.886  0.00  0.00    +0.000 NA
ATOM     21  C   UNL     1       6.844   6.054  15.821  0.00  0.00    +0.000 C 
ATOM     22  C   UNL     1       7.002   4.553  16.078  0.00  0.00    +0.000 C 
ATOM     23  C   UNL     1       6.018   3.588  15.456  0.00  0.00    +0.000 C 
ATOM     24  C   UNL     1       4.578   3.895  15.839  0.00  0.00    +0.000 C 
ATOM     25  C   UNL     1       4.349   4.285  17.281  0.00  0.00    +0.000 A 
ATOM     26  C   UNL     1       3.049   4.414  17.823  0.00  0.00    +0.000 A 
ATOM     27  C   UNL     1       2.890   4.775  19.170  0.00  0.00    +0.000 A 
ATOM     28  C   UNL     1       3.986   5.024  19.985  0.00  0.00    +0.000 A 
ATOM     29  C   UNL     1       5.267   4.901  19.466  0.00  0.00    +0.000 A 
ATOM     30  C   UNL     1       5.473   4.566  18.115  0.00  0.00    +0.000 A 
ATOM     31  C   UNL     1       6.912   4.481  17.598  0.00  0.00    +0.000 C 
ATOM     32  C   UNL     1       7.817   5.669  17.954  0.00  0.00    +0.000 C 
BRANCH  26  33
ATOM     33  O   UNL     1       1.842   4.138  17.237  0.00  0.00    +0.000 OA
ATOM     34  C   UNL     1       0.781   3.595  18.004  0.00  0.00    +0.000 C 
ENDBRANCH  26  33
ENDBRANCH  19  20
ENDBRANCH  18  19
ENDBRANCH   3  18
TORSDOF 8
ENDMDL
MODEL 8
REMARK VINA RESULT:      -7.3      0.918      1.049
REMARK  Name = 
REMARK  11 active torsions:
REMARK  status: ('A' for Active; 'I' for Inactive)
REMARK    1  A    between atoms: C_1  and  O_2
REMARK    2  A    between atoms: O_2  and  C_3
REMARK    3  A    between atoms: C_5  and  N_6
REMARK    4  A    between atoms: C_7  and  C_8
REMARK    5  A    between atoms: N_10  and  C_11
REMARK    6  A    between atoms: C_11  and  C_12
REMARK    7  A    between atoms: C_12  and  N_13
REMARK    8  A    between atoms: C_19  and  O_20
REMARK    9  A    between atoms: O_20  and  C_21
REMARK   10  A    between atoms: C_29  and  O_30
REMARK   11  A    between atoms: O_30  and  C_31
REMARK                            x       y       z     vdW  Elec       q    Type
REMARK                         _______ _______ _______ _____ _____    ______ ____
ROOT
ATOM      1  C   UNL     1       2.145   6.042  19.902  0.00  0.00    +0.000 C 
ATOM      2  O   UNL     1       1.524   5.316  20.653  0.00  0.00    +0.000 OA
ATOM      3  N   UNL     1       2.188   7.413  20.067  0.00  0.00    +0.000 N 
ATOM      4  H   UNL     1       3.046   7.850  19.736  0.00  0.00    +0.000 HD
ENDROOT
BRANCH   1   8
ATOM      5  C   UNL     1       4.659   4.486  16.817  0.00  0.00    +0.000 A 
ATOM      6  C   UNL     1       3.605   3.702  17.314  0.00  0.00    +0.000 A 
ATOM      7  C   UNL     1       2.741   4.151  18.312  0.00  0.00    +0.000 A 
ATOM      8  C   UNL     1       2.913   5.464  18.784  0.00  0.00    +0.000 A 
ATOM      9  C   UNL     1       3.939   6.260  18.268  0.00  0.00    +0.000 A 
ATOM     10  C   UNL     1       4.818   5.795  17.289  0.00  0.00    +0.000 A 
BRANCH   7  11
ATOM     11  N   UNL     1       1.684   3.296  18.683  0.00  0.00    +0.000 N 
ATOM     12  H   UNL     1       1.970   2.503  19.249  0.00  0.00    +0.000 HD
ATOM     13  H   UNL     1       0.915   3.807  19.120  0.00  0.00    +0.000 HD
ENDBRANCH   7  11
BRANCH   5  15
ATOM     14  C   UNL     1       5.461   4.469  14.591  0.00  0.00    +0.000 C 
ATOM     15  O   UNL     1       5.558   3.970  15.920  0.00  0.00    +0.000 OA
ENDBRANCH   5  15
BRANCH  10  16
ATOM     16  O   UNL     1       5.745   6.734  16.917  0.00  0.00    +0.000 OA
ATOM     17  C   UNL     1       7.018   6.713  17.545  0.00  0.00    +0.000 C 
ENDBRANCH  10  16
ENDBRANCH   1   8
BRANCH   3  18
ATOM     18  C   UNL     1       1.515   8.056  21.187  0.00  0.00    +0.000 C 
BRANCH  18  19
ATOM     19  C   UNL     1       0.342   8.999  20.822  0.00  0.00    +0.000 C 
BRANCH  19  20
ATOM     20  N   UNL     1       0.579  10.361  21.343  0.00  0.00    +0.000 NA
ATOM     21  C   UNL     1      -0.567  10.898  22.112  0.00  0.00    +0.000 C 
ATOM     22  C   UNL     1      -0.532  12.398  21.805  0.00  0.00    +0.000 C 
ATOM     23  C   UNL     1      -1.758  13.238  22.083  0.00  0.00    +0.000 C 
ATOM     24  C   UNL     1      -2.993  12.726  21.358  0.00  0.00    +0.000 C 
ATOM     25  C   UNL     1      -2.778  12.262  19.935  0.00  0.00    +0.000 A 
ATOM     26  C   UNL     1      -3.859  11.939  19.082  0.00  0.00    +0.000 A 
ATOM     27  C   UNL     1      -3.605  11.518  17.769  0.00  0.00    +0.000 A 
ATOM     28  C   UNL     1      -2.309  11.395  17.286  0.00  0.00    +0.000 A 
ATOM     29  C   UNL     1      -1.239  11.709  18.114  0.00  0.00    +0.000 A 
ATOM     30  C   UNL     1      -1.445  12.111  19.445  0.00  0.00    +0.000 A 
ATOM     31  C   UNL     1      -0.219  12.409  20.314  0.00  0.00    +0.000 C 
ATOM     32  C   UNL     1       0.887  11.344  20.287  0.00  0.00    +0.000 C 
BRANCH  26  33
ATOM     33  O   UNL     1      -5.204  12.067  19.313  0.00  0.00    +0.000 OA
ATOM     34  C   UNL     1      -6.114  11.126  18.772  0.00  0.00    +0.000 C 
ENDBRANCH  26  33
ENDBRANCH  19  20
ENDBRANCH  18  19
ENDBRANCH   3  18
TORSDOF 8
ENDMDL
MODEL 9
REMARK VINA RESULT:      -7.3      1.914      2.852
REMARK  Name = 
REMARK  11 active torsions:
REMARK  status: ('A' for Active; 'I' for Inactive)
REMARK    1  A    between atoms: C_1  and  O_2
REMARK    2  A    between atoms: O_2  and  C_3
REMARK    3  A    between atoms: C_5  and  N_6
REMARK    4  A    between atoms: C_7  and  C_8
REMARK    5  A    between atoms: N_10  and  C_11
REMARK    6  A    between atoms: C_11  and  C_12
REMARK    7  A    between atoms: C_12  and  N_13
REMARK    8  A    between atoms: C_19  and  O_20
REMARK    9  A    between atoms: O_20  and  C_21
REMARK   10  A    between atoms: C_29  and  O_30
REMARK   11  A    between atoms: O_30  and  C_31
REMARK                            x       y       z     vdW  Elec       q    Type
REMARK                         _______ _______ _______ _____ _____    ______ ____
ROOT
ATOM      1  C   UNL     1       2.382   7.746  18.225  0.00  0.00    +0.000 C 
ATOM      2  O   UNL     1       2.533   8.555  17.331  0.00  0.00    +0.000 OA
ATOM      3  N   UNL     1       1.790   8.076  19.430  0.00  0.00    +0.000 N 
ATOM      4  H   UNL     1       1.297   7.309  19.880  0.00  0.00    +0.000 HD
ENDROOT
BRANCH   1   8
ATOM      5  C   UNL     1       3.327   3.644  17.493  0.00  0.00    +0.000 A 
ATOM      6  C   UNL     1       4.330   4.619  17.369  0.00  0.00    +0.000 A 
ATOM      7  C   UNL     1       4.093   5.974  17.603  0.00  0.00    +0.000 A 
ATOM      8  C   UNL     1       2.809   6.348  18.035  0.00  0.00    +0.000 A 
ATOM      9  C   UNL     1       1.818   5.377  18.193  0.00  0.00    +0.000 A 
ATOM     10  C   UNL     1       2.053   4.027  17.930  0.00  0.00    +0.000 A 
BRANCH   7  11
ATOM     11  N   UNL     1       5.195   6.847  17.507  0.00  0.00    +0.000 N 
ATOM     12  H   UNL     1       4.956   7.829  17.612  0.00  0.00    +0.000 HD
ATOM     13  H   UNL     1       5.952   6.579  18.138  0.00  0.00    +0.000 HD
ENDBRANCH   7  11
BRANCH   5  15
ATOM     14  C   UNL     1       3.873   1.459  18.217  0.00  0.00    +0.000 C 
ATOM     15  O   UNL     1       3.566   2.340  17.143  0.00  0.00    +0.000 OA
ENDBRANCH   5  15
BRANCH  10  16
ATOM     16  O   UNL     1       0.952   3.241  18.154  0.00  0.00    +0.000 OA
ATOM     17  C   UNL     1       0.713   2.772  19.472  0.00  0.00    +0.000 C 
ENDBRANCH  10  16
ENDBRANCH   1   8
BRANCH   3  18
ATOM     18  C   UNL     1       1.277   9.417  19.671  0.00  0.00    +0.000 C 
BRANCH  18  19
ATOM     19  C   UNL     1       0.533   9.628  21.013  0.00  0.00    +0.000 C 
BRANCH  19  20
ATOM     20  N   UNL     1       0.605  11.039  21.441  0.00  0.00    +0.000 NA
ATOM     21  C   UNL     1      -0.602  11.490  22.171  0.00  0.00    +0.000 C 
ATOM     22  C   UNL     1      -0.740  12.960  21.763  0.00  0.00    +0.000 C 
ATOM     23  C   UNL     1      -2.057  13.668  21.982  0.00  0.00    +0.000 C 
ATOM     24  C   UNL     1      -3.218  12.967  21.294  0.00  0.00    +0.000 C 
ATOM     25  C   UNL     1      -2.939  12.436  19.906  0.00  0.00    +0.000 A 
ATOM     26  C   UNL     1      -3.968  11.932  19.077  0.00  0.00    +0.000 A 
ATOM     27  C   UNL     1      -3.656  11.456  17.795  0.00  0.00    +0.000 A 
ATOM     28  C   UNL     1      -2.351  11.453  17.322  0.00  0.00    +0.000 A 
ATOM     29  C   UNL     1      -1.331  11.944  18.126  0.00  0.00    +0.000 A 
ATOM     30  C   UNL     1      -1.594  12.409  19.428  0.00  0.00    +0.000 A 
ATOM     31  C   UNL     1      -0.418  12.906  20.274  0.00  0.00    +0.000 C 
ATOM     32  C   UNL     1       0.805  11.979  20.320  0.00  0.00    +0.000 C 
BRANCH  26  33
ATOM     33  O   UNL     1      -5.320  11.917  19.298  0.00  0.00    +0.000 OA
ATOM     34  C   UNL     1      -6.143  10.976  18.631  0.00  0.00    +0.000 C 
ENDBRANCH  26  33
ENDBRANCH  19  20
ENDBRANCH  18  19
ENDBRANCH   3  18
TORSDOF 8
ENDMDL
