MODEL 1
REMARK VINA RESULT:      -7.6      0.000      0.000
REMARK  Name = 
REMARK  10 active torsions:
REMARK  status: ('A' for Active; 'I' for Inactive)
REMARK    1  A    between atoms: C_1  and  C_2
REMARK    2  A    between atoms: C_2  and  C_3
REMARK    3  A    between atoms: C_3  and  C_4
REMARK    4  A    between atoms: C_3  and  N_19
REMARK    5  A    between atoms: N_14  and  C_15
REMARK    6  A    between atoms: C_15  and  C_16
REMARK    7  A    between atoms: C_16  and  O_17
REMARK    8  A    between atoms: O_17  and  C_18
REMARK    9  A    between atoms: C_21  and  C_22
REMARK   10  A    between atoms: C_24  and  C_25
REMARK                            x       y       z     vdW  Elec       q    Type
REMARK                         _______ _______ _______ _____ _____    ______ ____
ROOT
ATOM      1  C   UNL     1       2.724   6.335  18.469  0.00  0.00    +0.000 A 
ATOM      2  N   UNL     1       2.639   7.487  17.864  0.00  0.00    +0.000 NA
ATOM      3  C   UNL     1       2.081   8.584  18.512  0.00  0.00    +0.000 A 
ATOM      4  C   UNL     1       1.921   9.778  17.805  0.00  0.00    +0.000 A 
ATOM      5  C   UNL     1       1.281  10.875  18.390  0.00  0.00    +0.000 A 
ATOM      6  C   UNL     1       0.795  10.781  19.693  0.00  0.00    +0.000 A 
ATOM      7  C   UNL     1       0.957   9.594  20.405  0.00  0.00    +0.000 A 
ATOM      8  C   UNL     1       1.603   8.502  19.806  0.00  0.00    +0.000 A 
ATOM      9  C   UNL     1       1.744   7.214  20.494  0.00  0.00    +0.000 A 
ATOM     10  O   UNL     1       1.250   7.123  21.620  0.00  0.00    +0.000 OA
ATOM     11  N   UNL     1       2.357   6.149  19.798  0.00  0.00    +0.000 N 
ENDROOT
BRANCH   1  12
ATOM     12  C   UNL     1       3.207   5.195  17.497  0.00  0.00    +0.000 C 
BRANCH  12  13
ATOM     13  N   UNL     1       4.556   4.666  17.837  0.00  0.00    +0.000 NA
ATOM     14  C   UNL     1       5.181   3.904  16.720  0.00  0.00    +0.000 C 
ATOM     15  C   UNL     1       5.653   4.777  15.520  0.00  0.00    +0.000 C 
ATOM     16  C   UNL     1       6.307   3.909  14.445  0.00  0.00    +0.000 C 
ATOM     17  N   UNL     1       6.598   5.823  15.951  0.00  0.00    +0.000 NA
ATOM     18  C   UNL     1       5.995   6.627  17.034  0.00  0.00    +0.000 C 
ATOM     19  C   UNL     1       7.007   7.664  17.513  0.00  0.00    +0.000 C 
ATOM     20  C   UNL     1       5.529   5.729  18.213  0.00  0.00    +0.000 C 
ATOM     21  H   UNL     1       6.835   6.427  15.164  0.00  0.00    +0.000 HD
ENDBRANCH  12  13
BRANCH  12  23
ATOM     22  C   UNL     1       2.616   2.710  17.644  0.00  0.00    +0.000 C 
ATOM     23  C   UNL     1       2.118   4.113  17.311  0.00  0.00    +0.000 C 
ENDBRANCH  12  23
ENDBRANCH   1  12
BRANCH  11  24
ATOM     24  C   UNL     1       2.328   4.874  20.536  0.00  0.00    +0.000 C 
BRANCH  24  25
ATOM     25  C   UNL     1       1.034   4.062  20.611  0.00  0.00    +0.000 C 
BRANCH  25  26
ATOM     26  O   UNL     1       1.267   2.701  20.969  0.00  0.00    +0.000 OA
ATOM     27  C   UNL     1       2.528   2.562  21.619  0.00  0.00    +0.000 C 
ENDBRANCH  25  26
ENDBRANCH  24  25
ENDBRANCH  11  24
TORSDOF 6
ENDMDL
MODEL 2
REMARK VINA RESULT:      -7.2      2.662      6.602
REMARK  Name = 
REMARK  10 active torsions:
REMARK  status: ('A' for Active; 'I' for Inactive)
REMARK    1  A    between atoms: C_1  and  C_2
REMARK    2  A    between atoms: C_2  and  C_3
REMARK    3  A    between atoms: C_3  and  C_4
REMARK    4  A    between atoms: C_3  and  N_19
REMARK    5  A    between atoms: N_14  and  C_15
REMARK    6  A    between atoms: C_15  and  C_16
REMARK    7  A    between atoms: C_16  and  O_17
REMARK    8  A    between atoms: O_17  and  C_18
REMARK    9  A    between atoms: C_21  and  C_22
REMARK   10  A    between atoms: C_24  and  C_25
REMARK                            x       y       z     vdW  Elec       q    Type
REMARK                         _______ _______ _______ _____ _____    ______ ____
ROOT
ATOM      1  C   UNL     1       5.150   4.092  16.681  0.00  0.00    +0.000 A 
ATOM      2  N   UNL     1       5.085   3.489  15.527  0.00  0.00    +0.000 NA
ATOM      3  C   UNL     1       5.916   3.877  14.481  0.00  0.00    +0.000 A 
ATOM      4  C   UNL     1       5.759   3.272  13.232  0.00  0.00    +0.000 A 
ATOM      5  C   UNL     1       6.510   3.698  12.132  0.00  0.00    +0.000 A 
ATOM      6  C   UNL     1       7.428   4.737  12.279  0.00  0.00    +0.000 A 
ATOM      7  C   UNL     1       7.593   5.341  13.525  0.00  0.00    +0.000 A 
ATOM      8  C   UNL     1       6.834   4.902  14.619  0.00  0.00    +0.000 A 
ATOM      9  C   UNL     1       6.930   5.544  15.935  0.00  0.00    +0.000 A 
ATOM     10  O   UNL     1       7.695   6.506  16.034  0.00  0.00    +0.000 OA
ATOM     11  N   UNL     1       6.088   5.078  16.968  0.00  0.00    +0.000 N 
ENDROOT
BRANCH   1  12
ATOM     12  C   UNL     1       4.000   3.628  17.652  0.00  0.00    +0.000 C 
BRANCH  12  13
ATOM     13  N   UNL     1       2.688   4.264  17.353  0.00  0.00    +0.000 NA
ATOM     14  C   UNL     1       1.540   3.555  17.985  0.00  0.00    +0.000 C 
ATOM     15  C   UNL     1       1.445   3.719  19.531  0.00  0.00    +0.000 C 
ATOM     16  C   UNL     1       0.222   2.983  20.078  0.00  0.00    +0.000 C 
ATOM     17  N   UNL     1       1.382   5.138  19.922  0.00  0.00    +0.000 NA
ATOM     18  C   UNL     1       2.530   5.868  19.345  0.00  0.00    +0.000 C 
ATOM     19  C   UNL     1       2.418   7.347  19.704  0.00  0.00    +0.000 C 
ATOM     20  C   UNL     1       2.602   5.681  17.804  0.00  0.00    +0.000 C 
ATOM     21  H   UNL     1       1.396   5.223  20.938  0.00  0.00    +0.000 HD
ENDBRANCH  12  13
BRANCH  12  23
ATOM     22  C   UNL     1       4.297   1.603  19.187  0.00  0.00    +0.000 C 
ATOM     23  C   UNL     1       3.957   2.088  17.780  0.00  0.00    +0.000 C 
ENDBRANCH  12  23
ENDBRANCH   1  12
BRANCH  11  24
ATOM     24  C   UNL     1       6.178   5.878  18.202  0.00  0.00    +0.000 C 
BRANCH  24  25
ATOM     25  C   UNL     1       6.196   5.184  19.566  0.00  0.00    +0.000 C 
BRANCH  25  26
ATOM     26  O   UNL     1       7.423   5.390  20.264  0.00  0.00    +0.000 OA
ATOM     27  C   UNL     1       8.372   6.047  19.427  0.00  0.00    +0.000 C 
ENDBRANCH  25  26
ENDBRANCH  24  25
ENDBRANCH  11  24
TORSDOF 6
ENDMDL
MODEL 3
REMARK VINA RESULT:      -7.0      1.201      1.515
REMARK  Name = 
REMARK  10 active torsions:
REMARK  status: ('A' for Active; 'I' for Inactive)
REMARK    1  A    between atoms: C_1  and  C_2
REMARK    2  A    between atoms: C_2  and  C_3
REMARK    3  A    between atoms: C_3  and  C_4
REMARK    4  A    between atoms: C_3  and  N_19
REMARK    5  A    between atoms: N_14  and  C_15
REMARK    6  A    between atoms: C_15  and  C_16
REMARK    7  A    between atoms: C_16  and  O_17
REMARK    8  A    between atoms: O_17  and  C_18
REMARK    9  A    between atoms: C_21  and  C_22
REMARK   10  A    between atoms: C_24  and  C_25
REMARK                            x       y       z     vdW  Elec       q    Type
REMARK                         _______ _______ _______ _____ _____    ______ ____
ROOT
ATOM      1  C   UNL     1       3.345   5.560  18.316  0.00  0.00    +0.000 A 
ATOM      2  N   UNL     1       2.975   6.769  18.000  0.00  0.00    +0.000 NA
ATOM      3  C   UNL     1       2.302   7.564  18.922  0.00  0.00    +0.000 A 
ATOM      4  C   UNL     1       1.840   8.820  18.523  0.00  0.00    +0.000 A 
ATOM      5  C   UNL     1       1.080   9.611  19.390  0.00  0.00    +0.000 A 
ATOM      6  C   UNL     1       0.778   9.145  20.670  0.00  0.00    +0.000 A 
ATOM      7  C   UNL     1       1.242   7.895  21.075  0.00  0.00    +0.000 A 
ATOM      8  C   UNL     1       2.005   7.114  20.195  0.00  0.00    +0.000 A 
ATOM      9  C   UNL     1       2.465   5.767  20.555  0.00  0.00    +0.000 A 
ATOM     10  O   UNL     1       2.133   5.340  21.663  0.00  0.00    +0.000 OA
ATOM     11  N   UNL     1       3.178   5.025  19.589  0.00  0.00    +0.000 N 
ENDROOT
BRANCH   1  12
ATOM     12  C   UNL     1       3.913   4.776  17.074  0.00  0.00    +0.000 C 
BRANCH  12  13
ATOM     13  N   UNL     1       5.299   4.275  17.281  0.00  0.00    +0.000 NA
ATOM     14  C   UNL     1       5.952   3.829  16.018  0.00  0.00    +0.000 C 
ATOM     15  C   UNL     1       6.344   4.980  15.046  0.00  0.00    +0.000 C 
ATOM     16  C   UNL     1       7.033   4.423  13.800  0.00  0.00    +0.000 C 
ATOM     17  N   UNL     1       7.228   5.962  15.699  0.00  0.00    +0.000 NA
ATOM     18  C   UNL     1       6.595   6.459  16.938  0.00  0.00    +0.000 C 
ATOM     19  C   UNL     1       7.546   7.426  17.637  0.00  0.00    +0.000 C 
ATOM     20  C   UNL     1       6.209   5.289  17.885  0.00  0.00    +0.000 C 
ATOM     21  H   UNL     1       7.410   6.743  15.069  0.00  0.00    +0.000 HD
ENDBRANCH  12  13
BRANCH  12  23
ATOM     22  C   UNL     1       1.484   3.975  17.042  0.00  0.00    +0.000 C 
ATOM     23  C   UNL     1       2.911   3.711  16.571  0.00  0.00    +0.000 C 
ENDBRANCH  12  23
ENDBRANCH   1  12
BRANCH  11  24
ATOM     24  C   UNL     1       3.476   3.646  20.014  0.00  0.00    +0.000 C 
BRANCH  24  25
ATOM     25  C   UNL     1       2.340   2.636  20.185  0.00  0.00    +0.000 C 
BRANCH  25  26
ATOM     26  O   UNL     1       2.406   1.578  19.229  0.00  0.00    +0.000 OA
ATOM     27  C   UNL     1       3.757   1.332  18.846  0.00  0.00    +0.000 C 
ENDBRANCH  25  26
ENDBRANCH  24  25
ENDBRANCH  11  24
TORSDOF 6
ENDMDL
MODEL 4
REMARK VINA RESULT:      -7.0      1.089      1.339
REMARK  Name = 
REMARK  10 active torsions:
REMARK  status: ('A' for Active; 'I' for Inactive)
REMARK    1  A    between atoms: C_1  and  C_2
REMARK    2  A    between atoms: C_2  and  C_3
REMARK    3  A    between atoms: C_3  and  C_4
REMARK    4  A    between atoms: C_3  and  N_19
REMARK    5  A    between atoms: N_14  and  C_15
REMARK    6  A    between atoms: C_15  and  C_16
REMARK    7  A    between atoms: C_16  and  O_17
REMARK    8  A    between atoms: O_17  and  C_18
REMARK    9  A    between atoms: C_21  and  C_22
REMARK   10  A    between atoms: C_24  and  C_25
REMARK                            x       y       z     vdW  Elec       q    Type
REMARK                         _______ _______ _______ _____ _____    ______ ____
ROOT
ATOM      1  C   UNL     1       3.435   5.419  18.140  0.00  0.00    +0.000 A 
ATOM      2  N   UNL     1       3.092   6.572  17.639  0.00  0.00    +0.000 NA
ATOM      3  C   UNL     1       2.449   7.520  18.430  0.00  0.00    +0.000 A 
ATOM      4  C   UNL     1       2.013   8.709  17.841  0.00  0.00    +0.000 A 
ATOM      5  C   UNL     1       1.282   9.646  18.577  0.00  0.00    +0.000 A 
ATOM      6  C   UNL     1       0.984   9.396  19.916  0.00  0.00    +0.000 A 
ATOM      7  C   UNL     1       1.422   8.214  20.511  0.00  0.00    +0.000 A 
ATOM      8  C   UNL     1       2.155   7.284  19.760  0.00  0.00    +0.000 A 
ATOM      9  C   UNL     1       2.586   6.000  20.325  0.00  0.00    +0.000 A 
ATOM     10  O   UNL     1       2.257   5.762  21.489  0.00  0.00    +0.000 OA
ATOM     11  N   UNL     1       3.271   5.096  19.483  0.00  0.00    +0.000 N 
ENDROOT
BRANCH   1  12
ATOM     12  C   UNL     1       3.970   4.434  17.033  0.00  0.00    +0.000 C 
BRANCH  12  13
ATOM     13  N   UNL     1       5.399   4.063  17.220  0.00  0.00    +0.000 NA
ATOM     14  C   UNL     1       6.075   3.690  15.946  0.00  0.00    +0.000 C 
ATOM     15  C   UNL     1       6.348   4.881  14.981  0.00  0.00    +0.000 C 
ATOM     16  C   UNL     1       7.070   4.402  13.722  0.00  0.00    +0.000 C 
ATOM     17  N   UNL     1       7.144   5.936  15.634  0.00  0.00    +0.000 NA
ATOM     18  C   UNL     1       6.482   6.361  16.885  0.00  0.00    +0.000 C 
ATOM     19  C   UNL     1       7.348   7.405  17.583  0.00  0.00    +0.000 C 
ATOM     20  C   UNL     1       6.218   5.151  17.824  0.00  0.00    +0.000 C 
ATOM     21  H   UNL     1       7.246   6.735  15.011  0.00  0.00    +0.000 HD
ENDBRANCH  12  13
BRANCH  12  23
ATOM     22  C   UNL     1       3.549   1.944  17.442  0.00  0.00    +0.000 C 
ATOM     23  C   UNL     1       3.013   3.237  16.833  0.00  0.00    +0.000 C 
ENDBRANCH  12  23
ENDBRANCH   1  12
BRANCH  11  24
ATOM     24  C   UNL     1       3.540   3.794  20.118  0.00  0.00    +0.000 C 
BRANCH  24  25
ATOM     25  C   UNL     1       2.436   3.084  20.905  0.00  0.00    +0.000 C 
BRANCH  25  26
ATOM     26  O   UNL     1       1.676   2.193  20.089  0.00  0.00    +0.000 OA
ATOM     27  C   UNL     1       0.558   2.867  19.518  0.00  0.00    +0.000 C 
ENDBRANCH  25  26
ENDBRANCH  24  25
ENDBRANCH  11  24
TORSDOF 6
ENDMDL
MODEL 5
REMARK VINA RESULT:      -6.9      3.169      7.158
REMARK  Name = 
REMARK  10 active torsions:
REMARK  status: ('A' for Active; 'I' for Inactive)
REMARK    1  A    between atoms: C_1  and  C_2
REMARK    2  A    between atoms: C_2  and  C_3
REMARK    3  A    between atoms: C_3  and  C_4
REMARK    4  A    between atoms: C_3  and  N_19
REMARK    5  A    between atoms: N_14  and  C_15
REMARK    6  A    between atoms: C_15  and  C_16
REMARK    7  A    between atoms: C_16  and  O_17
REMARK    8  A    between atoms: O_17  and  C_18
REMARK    9  A    between atoms: C_21  and  C_22
REMARK   10  A    between atoms: C_24  and  C_25
REMARK                            x       y       z     vdW  Elec       q    Type
REMARK                         _______ _______ _______ _____ _____    ______ ____
ROOT
ATOM      1  C   UNL     1       5.116   5.161  16.534  0.00  0.00    +0.000 A 
ATOM      2  N   UNL     1       4.580   4.516  15.535  0.00  0.00    +0.000 NA
ATOM      3  C   UNL     1       5.327   4.237  14.395  0.00  0.00    +0.000 A 
ATOM      4  C   UNL     1       4.698   3.626  13.307  0.00  0.00    +0.000 A 
ATOM      5  C   UNL     1       5.388   3.412  12.111  0.00  0.00    +0.000 A 
ATOM      6  C   UNL     1       6.719   3.810  11.996  0.00  0.00    +0.000 A 
ATOM      7  C   UNL     1       7.353   4.414  13.080  0.00  0.00    +0.000 A 
ATOM      8  C   UNL     1       6.649   4.621  14.275  0.00  0.00    +0.000 A 
ATOM      9  C   UNL     1       7.256   5.306  15.422  0.00  0.00    +0.000 A 
ATOM     10  O   UNL     1       8.411   5.714  15.284  0.00  0.00    +0.000 OA
ATOM     11  N   UNL     1       6.459   5.525  16.567  0.00  0.00    +0.000 N 
ENDROOT
BRANCH   1  12
ATOM     12  C   UNL     1       4.051   5.536  17.631  0.00  0.00    +0.000 C 
BRANCH  12  13
ATOM     13  N   UNL     1       4.316   4.897  18.948  0.00  0.00    +0.000 NA
ATOM     14  C   UNL     1       3.166   5.003  19.889  0.00  0.00    +0.000 C 
ATOM     15  C   UNL     1       1.944   4.110  19.525  0.00  0.00    +0.000 C 
ATOM     16  C   UNL     1       0.833   4.265  20.564  0.00  0.00    +0.000 C 
ATOM     17  N   UNL     1       2.323   2.690  19.420  0.00  0.00    +0.000 NA
ATOM     18  C   UNL     1       3.439   2.540  18.462  0.00  0.00    +0.000 C 
ATOM     19  C   UNL     1       3.864   1.075  18.410  0.00  0.00    +0.000 C 
ATOM     20  C   UNL     1       4.640   3.447  18.847  0.00  0.00    +0.000 C 
ATOM     21  H   UNL     1       1.526   2.136  19.108  0.00  0.00    +0.000 HD
ENDBRANCH  12  13
BRANCH  12  23
ATOM     22  C   UNL     1       2.339   7.427  17.829  0.00  0.00    +0.000 C 
ATOM     23  C   UNL     1       3.815   7.063  17.689  0.00  0.00    +0.000 C 
ENDBRANCH  12  23
ENDBRANCH   1  12
BRANCH  11  24
ATOM     24  C   UNL     1       7.129   6.331  17.602  0.00  0.00    +0.000 C 
BRANCH  24  25
ATOM     25  C   UNL     1       7.435   7.808  17.342  0.00  0.00    +0.000 C 
BRANCH  25  26
ATOM     26  O   UNL     1       8.377   8.339  18.273  0.00  0.00    +0.000 OA
ATOM     27  C   UNL     1       8.436   9.759  18.172  0.00  0.00    +0.000 C 
ENDBRANCH  25  26
ENDBRANCH  24  25
ENDBRANCH  11  24
TORSDOF 6
ENDMDL
MODEL 6
REMARK VINA RESULT:      -6.8      2.555      5.582
REMARK  Name = 
REMARK  10 active torsions:
REMARK  status: ('A' for Active; 'I' for Inactive)
REMARK    1  A    between atoms: C_1  and  C_2
REMARK    2  A    between atoms: C_2  and  C_3
REMARK    3  A    between atoms: C_3  and  C_4
REMARK    4  A    between atoms: C_3  and  N_19
REMARK    5  A    between atoms: N_14  and  C_15
REMARK    6  A    between atoms: C_15  and  C_16
REMARK    7  A    between atoms: C_16  and  O_17
REMARK    8  A    between atoms: O_17  and  C_18
REMARK    9  A    between atoms: C_21  and  C_22
REMARK   10  A    between atoms: C_24  and  C_25
REMARK                            x       y       z     vdW  Elec       q    Type
REMARK                         _______ _______ _______ _____ _____    ______ ____
ROOT
ATOM      1  C   UNL     1       4.321   5.178  18.157  0.00  0.00    +0.000 A 
ATOM      2  N   UNL     1       3.907   5.209  19.392  0.00  0.00    +0.000 NA
ATOM      3  C   UNL     1       3.058   4.218  19.875  0.00  0.00    +0.000 A 
ATOM      4  C   UNL     1       2.559   4.329  21.175  0.00  0.00    +0.000 A 
ATOM      5  C   UNL     1       1.632   3.405  21.666  0.00  0.00    +0.000 A 
ATOM      6  C   UNL     1       1.197   2.359  20.854  0.00  0.00    +0.000 A 
ATOM      7  C   UNL     1       1.696   2.240  19.558  0.00  0.00    +0.000 A 
ATOM      8  C   UNL     1       2.627   3.173  19.079  0.00  0.00    +0.000 A 
ATOM      9  C   UNL     1       3.136   3.123  17.703  0.00  0.00    +0.000 A 
ATOM     10  O   UNL     1       2.691   2.234  16.975  0.00  0.00    +0.000 OA
ATOM     11  N   UNL     1       4.027   4.135  17.284  0.00  0.00    +0.000 N 
ENDROOT
BRANCH   1  12
ATOM     12  C   UNL     1       5.109   6.485  17.768  0.00  0.00    +0.000 C 
BRANCH  12  13
ATOM     13  N   UNL     1       6.464   6.211  17.217  0.00  0.00    +0.000 NA
ATOM     14  C   UNL     1       7.250   7.451  16.961  0.00  0.00    +0.000 C 
ATOM     15  C   UNL     1       7.747   8.182  18.243  0.00  0.00    +0.000 C 
ATOM     16  C   UNL     1       8.567   9.419  17.875  0.00  0.00    +0.000 C 
ATOM     17  N   UNL     1       8.555   7.293  19.096  0.00  0.00    +0.000 NA
ATOM     18  C   UNL     1       7.790   6.066  19.405  0.00  0.00    +0.000 C 
ATOM     19  C   UNL     1       8.661   5.126  20.234  0.00  0.00    +0.000 C 
ATOM     20  C   UNL     1       7.303   5.362  18.109  0.00  0.00    +0.000 C 
ATOM     21  H   UNL     1       8.805   7.769  19.961  0.00  0.00    +0.000 HD
ENDBRANCH  12  13
BRANCH  12  23
ATOM     22  C   UNL     1       3.017   7.953  17.654  0.00  0.00    +0.000 C 
ATOM     23  C   UNL     1       4.242   7.432  16.908  0.00  0.00    +0.000 C 
ENDBRANCH  12  23
ENDBRANCH   1  12
BRANCH  11  24
ATOM     24  C   UNL     1       4.369   4.057  15.853  0.00  0.00    +0.000 C 
BRANCH  24  25
ATOM     25  C   UNL     1       5.755   3.574  15.423  0.00  0.00    +0.000 C 
BRANCH  25  26
ATOM     26  O   UNL     1       6.292   4.350  14.352  0.00  0.00    +0.000 OA
ATOM     27  C   UNL     1       6.119   3.676  13.108  0.00  0.00    +0.000 C 
ENDBRANCH  25  26
ENDBRANCH  24  25
ENDBRANCH  11  24
TORSDOF 6
ENDMDL
MODEL 7
REMARK VINA RESULT:      -6.6      6.533      9.987
REMARK  Name = 
REMARK  10 active torsions:
REMARK  status: ('A' for Active; 'I' for Inactive)
REMARK    1  A    between atoms: C_1  and  C_2
REMARK    2  A    between atoms: C_2  and  C_3
REMARK    3  A    between atoms: C_3  and  C_4
REMARK    4  A    between atoms: C_3  and  N_19
REMARK    5  A    between atoms: N_14  and  C_15
REMARK    6  A    between atoms: C_15  and  C_16
REMARK    7  A    between atoms: C_16  and  O_17
REMARK    8  A    between atoms: O_17  and  C_18
REMARK    9  A    between atoms: C_21  and  C_22
REMARK   10  A    between atoms: C_24  and  C_25
REMARK                            x       y       z     vdW  Elec       q    Type
REMARK                         _______ _______ _______ _____ _____    ______ ____
ROOT
ATOM      1  C   UNL     1      -2.471  12.204  20.412  0.00  0.00    +0.000 A 
ATOM      2  N   UNL     1      -3.333  12.239  19.436  0.00  0.00    +0.000 NA
ATOM      3  C   UNL     1      -3.146  11.455  18.302  0.00  0.00    +0.000 A 
ATOM      4  C   UNL     1      -4.039  11.583  17.235  0.00  0.00    +0.000 A 
ATOM      5  C   UNL     1      -3.834  10.883  16.043  0.00  0.00    +0.000 A 
ATOM      6  C   UNL     1      -2.728  10.045  15.911  0.00  0.00    +0.000 A 
ATOM      7  C   UNL     1      -1.836   9.909  16.974  0.00  0.00    +0.000 A 
ATOM      8  C   UNL     1      -2.056  10.616  18.165  0.00  0.00    +0.000 A 
ATOM      9  C   UNL     1      -1.114  10.551  19.289  0.00  0.00    +0.000 A 
ATOM     10  O   UNL     1      -0.105   9.860  19.134  0.00  0.00    +0.000 OA
ATOM     11  N   UNL     1      -1.381  11.339  20.430  0.00  0.00    +0.000 N 
ENDROOT
BRANCH   1  12
ATOM     12  C   UNL     1      -2.771  13.301  21.501  0.00  0.00    +0.000 C 
BRANCH  12  13
ATOM     13  N   UNL     1      -2.757  14.686  20.958  0.00  0.00    +0.000 NA
ATOM     14  C   UNL     1      -3.129  15.713  21.972  0.00  0.00    +0.000 C 
ATOM     15  C   UNL     1      -2.053  15.963  23.069  0.00  0.00    +0.000 C 
ATOM     16  C   UNL     1      -2.514  17.052  24.039  0.00  0.00    +0.000 C 
ATOM     17  N   UNL     1      -0.758  16.346  22.480  0.00  0.00    +0.000 NA
ATOM     18  C   UNL     1      -0.335  15.328  21.496  0.00  0.00    +0.000 C 
ATOM     19  C   UNL     1       0.974  15.767  20.848  0.00  0.00    +0.000 C 
ATOM     20  C   UNL     1      -1.430  15.095  20.418  0.00  0.00    +0.000 C 
ATOM     21  H   UNL     1      -0.052  16.431  23.211  0.00  0.00    +0.000 HD
ENDBRANCH  12  13
BRANCH  12  23
ATOM     22  C   UNL     1      -3.693  12.497  23.749  0.00  0.00    +0.000 C 
ATOM     23  C   UNL     1      -4.028  12.945  22.329  0.00  0.00    +0.000 C 
ENDBRANCH  12  23
ENDBRANCH   1  12
BRANCH  11  24
ATOM     24  C   UNL     1      -0.307  11.293  21.437  0.00  0.00    +0.000 C 
BRANCH  24  25
ATOM     25  C   UNL     1      -0.565  10.650  22.802  0.00  0.00    +0.000 C 
BRANCH  25  26
ATOM     26  O   UNL     1       0.567   9.925  23.282  0.00  0.00    +0.000 OA
ATOM     27  C   UNL     1       1.146   9.149  22.236  0.00  0.00    +0.000 C 
ENDBRANCH  25  26
ENDBRANCH  24  25
ENDBRANCH  11  24
TORSDOF 6
ENDMDL
MODEL 8
REMARK VINA RESULT:      -6.5      6.768     10.292
REMARK  Name = 
REMARK  10 active torsions:
REMARK  status: ('A' for Active; 'I' for Inactive)
REMARK    1  A    between atoms: C_1  and  C_2
REMARK    2  A    between atoms: C_2  and  C_3
REMARK    3  A    between atoms: C_3  and  C_4
REMARK    4  A    between atoms: C_3  and  N_19
REMARK    5  A    between atoms: N_14  and  C_15
REMARK    6  A    between atoms: C_15  and  C_16
REMARK    7  A    between atoms: C_16  and  O_17
REMARK    8  A    between atoms: O_17  and  C_18
REMARK    9  A    between atoms: C_21  and  C_22
REMARK   10  A    between atoms: C_24  and  C_25
REMARK                            x       y       z     vdW  Elec       q    Type
REMARK                         _______ _______ _______ _____ _____    ______ ____
ROOT
ATOM      1  C   UNL     1      -1.882  12.380  20.234  0.00  0.00    +0.000 A 
ATOM      2  N   UNL     1      -2.990  12.377  19.547  0.00  0.00    +0.000 NA
ATOM      3  C   UNL     1      -3.107  11.596  18.402  0.00  0.00    +0.000 A 
ATOM      4  C   UNL     1      -4.274  11.685  17.638  0.00  0.00    +0.000 A 
ATOM      5  C   UNL     1      -4.394  10.988  16.433  0.00  0.00    +0.000 A 
ATOM      6  C   UNL     1      -3.341  10.193  15.982  0.00  0.00    +0.000 A 
ATOM      7  C   UNL     1      -2.177  10.095  16.743  0.00  0.00    +0.000 A 
ATOM      8  C   UNL     1      -2.071  10.799  17.952  0.00  0.00    +0.000 A 
ATOM      9  C   UNL     1      -0.844  10.775  18.757  0.00  0.00    +0.000 A 
ATOM     10  O   UNL     1       0.103  10.123  18.313  0.00  0.00    +0.000 OA
ATOM     11  N   UNL     1      -0.801  11.558  19.931  0.00  0.00    +0.000 N 
ENDROOT
BRANCH   1  12
ATOM     12  C   UNL     1      -1.898  13.468  21.371  0.00  0.00    +0.000 C 
BRANCH  12  13
ATOM     13  N   UNL     1      -1.899  12.886  22.741  0.00  0.00    +0.000 NA
ATOM     14  C   UNL     1      -1.492  13.863  23.789  0.00  0.00    +0.000 C 
ATOM     15  C   UNL     1      -2.543  14.972  24.089  0.00  0.00    +0.000 C 
ATOM     16  C   UNL     1      -2.046  15.901  25.197  0.00  0.00    +0.000 C 
ATOM     17  N   UNL     1      -3.843  14.395  24.477  0.00  0.00    +0.000 NA
ATOM     18  C   UNL     1      -4.300  13.448  23.438  0.00  0.00    +0.000 C 
ATOM     19  C   UNL     1      -5.614  12.811  23.882  0.00  0.00    +0.000 C 
ATOM     20  C   UNL     1      -3.229  12.358  23.156  0.00  0.00    +0.000 C 
ATOM     21  H   UNL     1      -4.533  15.135  24.595  0.00  0.00    +0.000 HD
ENDBRANCH  12  13
BRANCH  12  23
ATOM     22  C   UNL     1      -1.207  15.536  20.032  0.00  0.00    +0.000 C 
ATOM     23  C   UNL     1      -0.820  14.551  21.131  0.00  0.00    +0.000 C 
ENDBRANCH  12  23
ENDBRANCH   1  12
BRANCH  11  24
ATOM     24  C   UNL     1       0.519  11.557  20.586  0.00  0.00    +0.000 C 
BRANCH  24  25
ATOM     25  C   UNL     1       0.888  10.438  21.563  0.00  0.00    +0.000 C 
BRANCH  25  26
ATOM     26  O   UNL     1       0.285  10.616  22.844  0.00  0.00    +0.000 OA
ATOM     27  C   UNL     1      -0.217   9.377  23.338  0.00  0.00    +0.000 C 
ENDBRANCH  25  26
ENDBRANCH  24  25
ENDBRANCH  11  24
TORSDOF 6
ENDMDL
MODEL 9
REMARK VINA RESULT:      -6.5      7.051     10.643
REMARK  Name = 
REMARK  10 active torsions:
REMARK  status: ('A' for Active; 'I' for Inactive)
REMARK    1  A    between atoms: C_1  and  C_2
REMARK    2  A    between atoms: C_2  and  C_3
REMARK    3  A    between atoms: C_3  and  C_4
REMARK    4  A    between atoms: C_3  and  N_19
REMARK    5  A    between atoms: N_14  and  C_15
REMARK    6  A    between atoms: C_15  and  C_16
REMARK    7  A    between atoms: C_16  and  O_17
REMARK    8  A    between atoms: O_17  and  C_18
REMARK    9  A    between atoms: C_21  and  C_22
REMARK   10  A    between atoms: C_24  and  C_25
REMARK                            x       y       z     vdW  Elec       q    Type
REMARK                         _______ _______ _______ _____ _____    ______ ____
ROOT
ATOM      1  C   UNL     1      -1.906  12.463  20.449  0.00  0.00    +0.000 A 
ATOM      2  N   UNL     1      -2.974  12.405  19.704  0.00  0.00    +0.000 NA
ATOM      3  C   UNL     1      -3.011  11.574  18.589  0.00  0.00    +0.000 A 
ATOM      4  C   UNL     1      -4.136  11.602  17.761  0.00  0.00    +0.000 A 
ATOM      5  C   UNL     1      -4.175  10.852  16.582  0.00  0.00    +0.000 A 
ATOM      6  C   UNL     1      -3.081  10.064  16.224  0.00  0.00    +0.000 A 
ATOM      7  C   UNL     1      -1.958  10.028  17.049  0.00  0.00    +0.000 A 
ATOM      8  C   UNL     1      -1.935  10.784  18.230  0.00  0.00    +0.000 A 
ATOM      9  C   UNL     1      -0.753  10.824  19.100  0.00  0.00    +0.000 A 
ATOM     10  O   UNL     1       0.231  10.178  18.737  0.00  0.00    +0.000 OA
ATOM     11  N   UNL     1      -0.792  11.656  20.240  0.00  0.00    +0.000 N 
ENDROOT
BRANCH   1  12
ATOM     12  C   UNL     1      -2.008  13.599  21.535  0.00  0.00    +0.000 C 
BRANCH  12  13
ATOM     13  N   UNL     1      -1.639  13.138  22.901  0.00  0.00    +0.000 NA
ATOM     14  C   UNL     1      -1.335  14.261  23.832  0.00  0.00    +0.000 C 
ATOM     15  C   UNL     1      -2.575  15.091  24.276  0.00  0.00    +0.000 C 
ATOM     16  C   UNL     1      -2.164  16.195  25.251  0.00  0.00    +0.000 C 
ATOM     17  N   UNL     1      -3.601  14.239  24.902  0.00  0.00    +0.000 NA
ATOM     18  C   UNL     1      -3.959  13.133  23.989  0.00  0.00    +0.000 C 
ATOM     19  C   UNL     1      -4.974  12.223  24.674  0.00  0.00    +0.000 C 
ATOM     20  C   UNL     1      -2.702  12.327  23.558  0.00  0.00    +0.000 C 
ATOM     21  H   UNL     1      -4.432  14.790  25.116  0.00  0.00    +0.000 HD
ENDBRANCH  12  13
BRANCH  12  23
ATOM     22  C   UNL     1      -2.264  15.986  20.651  0.00  0.00    +0.000 C 
ATOM     23  C   UNL     1      -1.291  14.888  21.073  0.00  0.00    +0.000 C 
ENDBRANCH  12  23
ENDBRANCH   1  12
BRANCH  11  24
ATOM     24  C   UNL     1       0.490  11.716  20.965  0.00  0.00    +0.000 C 
BRANCH  24  25
ATOM     25  C   UNL     1       1.594  12.662  20.490  0.00  0.00    +0.000 C 
BRANCH  25  26
ATOM     26  O   UNL     1       2.167  13.409  21.563  0.00  0.00    +0.000 OA
ATOM     27  C   UNL     1       3.307  14.136  21.115  0.00  0.00    +0.000 C 
ENDBRANCH  25  26
ENDBRANCH  24  25
ENDBRANCH  11  24
TORSDOF 6
ENDMDL
