MODEL 1
REMARK VINA RESULT:      -7.0      0.000      0.000
REMARK  Name = 
REMARK  2 active torsions:
REMARK  status: ('A' for Active; 'I' for Inactive)
REMARK    1  A    between atoms: C_1  and  C_2
REMARK    2  A    between atoms: C_4  and  O_5
REMARK                            x       y       z     vdW  Elec       q    Type
REMARK                         _______ _______ _______ _____ _____    ______ ____
ROOT
ATOM      1  C   UNL     1       1.121   2.815  21.713  0.00  0.00    +0.000 C 
ATOM      2  C   UNL     1       2.220   3.304  20.821  0.00  0.00    +0.000 A 
ATOM      3  N   UNL     1       3.293   2.505  20.674  0.00  0.00    +0.000 NA
ATOM      4  C   UNL     1       4.269   2.925  19.864  0.00  0.00    +0.000 A 
ATOM      5  C   UNL     1       4.204   4.138  19.182  0.00  0.00    +0.000 A 
ATOM      6  C   UNL     1       5.057   4.824  18.241  0.00  0.00    +0.000 A 
ATOM      7  C   UNL     1       4.492   6.021  17.826  0.00  0.00    +0.000 A 
ATOM      8  S   UNL     1       2.995   6.331  18.583  0.00  0.00    +0.000 S 
ATOM      9  C   UNL     1       3.048   4.859  19.432  0.00  0.00    +0.000 A 
ATOM     10  N   UNL     1       2.034   4.496  20.235  0.00  0.00    +0.000 NA
ATOM     11  C   UNL     1       5.042   6.967  16.802  0.00  0.00    +0.000 C 
ATOM     12  C   UNL     1       5.186   6.283  15.438  0.00  0.00    +0.000 C 
ATOM     13  C   UNL     1       6.375   5.319  15.333  0.00  0.00    +0.000 C 
ATOM     14  C   UNL     1       6.286   4.053  16.192  0.00  0.00    +0.000 C 
ATOM     15  C   UNL     1       6.362   4.318  17.698  0.00  0.00    +0.000 C 
ENDROOT
BRANCH   4  16
ATOM     16  O   UNL     1       5.317   2.056  19.761  0.00  0.00    +0.000 OA
ATOM     17  H   UNL     1       5.536   1.937  20.702  0.00  0.00    +0.000 HD
ENDBRANCH   4  16
TORSDOF 1
ENDMDL
MODEL 2
REMARK VINA RESULT:      -6.8      1.945      2.582
REMARK  Name = 
REMARK  2 active torsions:
REMARK  status: ('A' for Active; 'I' for Inactive)
REMARK    1  A    between atoms: C_1  and  C_2
REMARK    2  A    between atoms: C_4  and  O_5
REMARK                            x       y       z     vdW  Elec       q    Type
REMARK                         _______ _______ _______ _____ _____    ______ ____
ROOT
ATOM      1  C   UNL     1       1.240   2.630  21.928  0.00  0.00    +0.000 C 
ATOM      2  C   UNL     1       1.969   3.343  20.831  0.00  0.00    +0.000 A 
ATOM      3  N   UNL     1       2.072   4.682  20.932  0.00  0.00    +0.000 NA
ATOM      4  C   UNL     1       2.738   5.323  19.967  0.00  0.00    +0.000 A 
ATOM      5  C   UNL     1       3.320   4.658  18.891  0.00  0.00    +0.000 A 
ATOM      6  C   UNL     1       4.108   5.060  17.749  0.00  0.00    +0.000 A 
ATOM      7  C   UNL     1       4.477   3.967  16.980  0.00  0.00    +0.000 A 
ATOM      8  S   UNL     1       3.856   2.500  17.591  0.00  0.00    +0.000 S 
ATOM      9  C   UNL     1       3.131   3.285  18.914  0.00  0.00    +0.000 A 
ATOM     10  N   UNL     1       2.471   2.582  19.848  0.00  0.00    +0.000 NA
ATOM     11  C   UNL     1       5.357   3.979  15.767  0.00  0.00    +0.000 C 
ATOM     12  C   UNL     1       6.750   4.522  16.099  0.00  0.00    +0.000 C 
ATOM     13  C   UNL     1       6.812   6.044  16.283  0.00  0.00    +0.000 C 
ATOM     14  C   UNL     1       6.075   6.599  17.507  0.00  0.00    +0.000 C 
ATOM     15  C   UNL     1       4.553   6.457  17.432  0.00  0.00    +0.000 C 
ENDROOT
BRANCH   4  16
ATOM     16  O   UNL     1       2.805   6.676  20.144  0.00  0.00    +0.000 OA
ATOM     17  H   UNL     1       3.567   6.886  19.576  0.00  0.00    +0.000 HD
ENDBRANCH   4  16
TORSDOF 1
ENDMDL
MODEL 3
REMARK VINA RESULT:      -6.7      2.819      4.907
REMARK  Name = 
REMARK  2 active torsions:
REMARK  status: ('A' for Active; 'I' for Inactive)
REMARK    1  A    between atoms: C_1  and  C_2
REMARK    2  A    between atoms: C_4  and  O_5
REMARK                            x       y       z     vdW  Elec       q    Type
REMARK                         _______ _______ _______ _____ _____    ______ ____
ROOT
ATOM      1  C   UNL     1       7.874   8.165  17.478  0.00  0.00    +0.000 C 
ATOM      2  C   UNL     1       6.861   7.065  17.409  0.00  0.00    +0.000 A 
ATOM      3  N   UNL     1       7.305   5.843  17.060  0.00  0.00    +0.000 NA
ATOM      4  C   UNL     1       6.410   4.851  17.016  0.00  0.00    +0.000 A 
ATOM      5  C   UNL     1       5.065   5.044  17.320  0.00  0.00    +0.000 A 
ATOM      6  C   UNL     1       3.904   4.189  17.393  0.00  0.00    +0.000 A 
ATOM      7  C   UNL     1       2.778   4.896  17.789  0.00  0.00    +0.000 A 
ATOM      8  S   UNL     1       3.102   6.555  18.025  0.00  0.00    +0.000 S 
ATOM      9  C   UNL     1       4.749   6.350  17.656  0.00  0.00    +0.000 A 
ATOM     10  N   UNL     1       5.597   7.391  17.716  0.00  0.00    +0.000 NA
ATOM     11  C   UNL     1       1.413   4.338  18.050  0.00  0.00    +0.000 C 
ATOM     12  C   UNL     1       1.447   3.292  19.170  0.00  0.00    +0.000 C 
ATOM     13  C   UNL     1       2.032   1.936  18.755  0.00  0.00    +0.000 C 
ATOM     14  C   UNL     1       3.527   1.929  18.417  0.00  0.00    +0.000 C 
ATOM     15  C   UNL     1       3.881   2.708  17.148  0.00  0.00    +0.000 C 
ENDROOT
BRANCH   4  16
ATOM     16  O   UNL     1       6.939   3.643  16.663  0.00  0.00    +0.000 OA
ATOM     17  H   UNL     1       7.243   3.845  15.760  0.00  0.00    +0.000 HD
ENDBRANCH   4  16
TORSDOF 1
ENDMDL
MODEL 4
REMARK VINA RESULT:      -6.5      0.960      1.009
REMARK  Name = 
REMARK  2 active torsions:
REMARK  status: ('A' for Active; 'I' for Inactive)
REMARK    1  A    between atoms: C_1  and  C_2
REMARK    2  A    between atoms: C_4  and  O_5
REMARK                            x       y       z     vdW  Elec       q    Type
REMARK                         _______ _______ _______ _____ _____    ______ ____
ROOT
ATOM      1  C   UNL     1       1.279   2.690  21.548  0.00  0.00    +0.000 C 
ATOM      2  C   UNL     1       2.288   3.059  20.504  0.00  0.00    +0.000 A 
ATOM      3  N   UNL     1       2.820   2.055  19.783  0.00  0.00    +0.000 NA
ATOM      4  C   UNL     1       3.706   2.377  18.836  0.00  0.00    +0.000 A 
ATOM      5  C   UNL     1       4.080   3.695  18.580  0.00  0.00    +0.000 A 
ATOM      6  C   UNL     1       4.957   4.339  17.631  0.00  0.00    +0.000 A 
ATOM      7  C   UNL     1       4.941   5.718  17.783  0.00  0.00    +0.000 A 
ATOM      8  S   UNL     1       3.930   6.220  19.063  0.00  0.00    +0.000 S 
ATOM      9  C   UNL     1       3.458   4.622  19.401  0.00  0.00    +0.000 A 
ATOM     10  N   UNL     1       2.564   4.364  20.370  0.00  0.00    +0.000 NA
ATOM     11  C   UNL     1       5.659   6.723  16.935  0.00  0.00    +0.000 C 
ATOM     12  C   UNL     1       5.208   6.636  15.473  0.00  0.00    +0.000 C 
ATOM     13  C   UNL     1       5.773   5.435  14.704  0.00  0.00    +0.000 C 
ATOM     14  C   UNL     1       5.275   4.058  15.157  0.00  0.00    +0.000 C 
ATOM     15  C   UNL     1       5.750   3.656  16.556  0.00  0.00    +0.000 C 
ENDROOT
BRANCH   4  16
ATOM     16  O   UNL     1       4.194   1.306  18.144  0.00  0.00    +0.000 OA
ATOM     17  H   UNL     1       5.111   1.599  17.998  0.00  0.00    +0.000 HD
ENDBRANCH   4  16
TORSDOF 1
ENDMDL
MODEL 5
REMARK VINA RESULT:      -6.3      2.958      5.532
REMARK  Name = 
REMARK  2 active torsions:
REMARK  status: ('A' for Active; 'I' for Inactive)
REMARK    1  A    between atoms: C_1  and  C_2
REMARK    2  A    between atoms: C_4  and  O_5
REMARK                            x       y       z     vdW  Elec       q    Type
REMARK                         _______ _______ _______ _____ _____    ______ ____
ROOT
ATOM      1  C   UNL     1       6.674   4.490  13.799  0.00  0.00    +0.000 C 
ATOM      2  C   UNL     1       5.994   4.631  15.126  0.00  0.00    +0.000 A 
ATOM      3  N   UNL     1       6.034   5.842  15.712  0.00  0.00    +0.000 NA
ATOM      4  C   UNL     1       5.413   5.980  16.886  0.00  0.00    +0.000 A 
ATOM      5  C   UNL     1       4.735   4.930  17.502  0.00  0.00    +0.000 A 
ATOM      6  C   UNL     1       3.963   4.787  18.714  0.00  0.00    +0.000 A 
ATOM      7  C   UNL     1       3.461   3.500  18.844  0.00  0.00    +0.000 A 
ATOM      8  S   UNL     1       3.943   2.481  17.563  0.00  0.00    +0.000 S 
ATOM      9  C   UNL     1       4.780   3.742  16.790  0.00  0.00    +0.000 A 
ATOM     10  N   UNL     1       5.389   3.536  15.610  0.00  0.00    +0.000 NA
ATOM     11  C   UNL     1       2.555   2.996  19.925  0.00  0.00    +0.000 C 
ATOM     12  C   UNL     1       1.235   3.774  19.949  0.00  0.00    +0.000 C 
ATOM     13  C   UNL     1       1.337   5.180  20.553  0.00  0.00    +0.000 C 
ATOM     14  C   UNL     1       2.161   6.193  19.750  0.00  0.00    +0.000 C 
ATOM     15  C   UNL     1       3.658   5.875  19.700  0.00  0.00    +0.000 C 
ENDROOT
BRANCH   4  16
ATOM     16  O   UNL     1       5.492   7.238  17.411  0.00  0.00    +0.000 OA
ATOM     17  H   UNL     1       6.325   7.541  17.007  0.00  0.00    +0.000 HD
ENDBRANCH   4  16
TORSDOF 1
ENDMDL
MODEL 6
REMARK VINA RESULT:      -6.2      3.489      5.464
REMARK  Name = 
REMARK  2 active torsions:
REMARK  status: ('A' for Active; 'I' for Inactive)
REMARK    1  A    between atoms: C_1  and  C_2
REMARK    2  A    between atoms: C_4  and  O_5
REMARK                            x       y       z     vdW  Elec       q    Type
REMARK                         _______ _______ _______ _____ _____    ______ ____
ROOT
ATOM      1  C   UNL     1       1.945  10.500  17.828  0.00  0.00    +0.000 C 
ATOM      2  C   UNL     1       2.113   9.146  18.445  0.00  0.00    +0.000 A 
ATOM      3  N   UNL     1       1.539   8.944  19.646  0.00  0.00    +0.000 NA
ATOM      4  C   UNL     1       1.667   7.732  20.195  0.00  0.00    +0.000 A 
ATOM      5  C   UNL     1       2.358   6.697  19.569  0.00  0.00    +0.000 A 
ATOM      6  C   UNL     1       2.629   5.314  19.885  0.00  0.00    +0.000 A 
ATOM      7  C   UNL     1       3.353   4.697  18.876  0.00  0.00    +0.000 A 
ATOM      8  S   UNL     1       3.734   5.766  17.601  0.00  0.00    +0.000 S 
ATOM      9  C   UNL     1       2.901   7.048  18.343  0.00  0.00    +0.000 A 
ATOM     10  N   UNL     1       2.812   8.245  17.739  0.00  0.00    +0.000 NA
ATOM     11  C   UNL     1       3.752   3.254  18.811  0.00  0.00    +0.000 C 
ATOM     12  C   UNL     1       2.523   2.339  18.821  0.00  0.00    +0.000 C 
ATOM     13  C   UNL     1       1.849   2.195  20.191  0.00  0.00    +0.000 C 
ATOM     14  C   UNL     1       1.173   3.457  20.739  0.00  0.00    +0.000 C 
ATOM     15  C   UNL     1       2.151   4.577  21.102  0.00  0.00    +0.000 C 
ENDROOT
BRANCH   4  16
ATOM     16  O   UNL     1       1.052   7.604  21.407  0.00  0.00    +0.000 OA
ATOM     17  H   UNL     1       0.966   8.541  21.657  0.00  0.00    +0.000 HD
ENDBRANCH   4  16
TORSDOF 1
ENDMDL
MODEL 7
REMARK VINA RESULT:      -6.1      2.601      5.333
REMARK  Name = 
REMARK  2 active torsions:
REMARK  status: ('A' for Active; 'I' for Inactive)
REMARK    1  A    between atoms: C_1  and  C_2
REMARK    2  A    between atoms: C_4  and  O_5
REMARK                            x       y       z     vdW  Elec       q    Type
REMARK                         _______ _______ _______ _____ _____    ______ ____
ROOT
ATOM      1  C   UNL     1       7.128   5.156  15.093  0.00  0.00    +0.000 C 
ATOM      2  C   UNL     1       6.280   4.669  16.227  0.00  0.00    +0.000 A 
ATOM      3  N   UNL     1       6.687   4.977  17.473  0.00  0.00    +0.000 NA
ATOM      4  C   UNL     1       5.925   4.563  18.490  0.00  0.00    +0.000 A 
ATOM      5  C   UNL     1       4.748   3.845  18.299  0.00  0.00    +0.000 A 
ATOM      6  C   UNL     1       3.728   3.308  19.169  0.00  0.00    +0.000 A 
ATOM      7  C   UNL     1       2.718   2.692  18.445  0.00  0.00    +0.000 A 
ATOM      8  S   UNL     1       3.012   2.721  16.764  0.00  0.00    +0.000 S 
ATOM      9  C   UNL     1       4.455   3.595  16.967  0.00  0.00    +0.000 A 
ATOM     10  N   UNL     1       5.178   3.978  15.902  0.00  0.00    +0.000 NA
ATOM     11  C   UNL     1       1.459   2.091  18.992  0.00  0.00    +0.000 C 
ATOM     12  C   UNL     1       0.621   3.139  19.731  0.00  0.00    +0.000 C 
ATOM     13  C   UNL     1       1.159   3.522  21.116  0.00  0.00    +0.000 C 
ATOM     14  C   UNL     1       2.493   4.276  21.128  0.00  0.00    +0.000 C 
ATOM     15  C   UNL     1       3.686   3.436  20.663  0.00  0.00    +0.000 C 
ENDROOT
BRANCH   4  16
ATOM     16  O   UNL     1       6.400   4.921  19.720  0.00  0.00    +0.000 OA
ATOM     17  H   UNL     1       7.301   5.202  19.482  0.00  0.00    +0.000 HD
ENDBRANCH   4  16
TORSDOF 1
ENDMDL
MODEL 8
REMARK VINA RESULT:      -6.1      3.179      5.124
REMARK  Name = 
REMARK  2 active torsions:
REMARK  status: ('A' for Active; 'I' for Inactive)
REMARK    1  A    between atoms: C_1  and  C_2
REMARK    2  A    between atoms: C_4  and  O_5
REMARK                            x       y       z     vdW  Elec       q    Type
REMARK                         _______ _______ _______ _____ _____    ______ ____
ROOT
ATOM      1  C   UNL     1       8.575   8.917  17.649  0.00  0.00    +0.000 C 
ATOM      2  C   UNL     1       7.731   7.696  17.848  0.00  0.00    +0.000 A 
ATOM      3  N   UNL     1       7.985   6.945  18.936  0.00  0.00    +0.000 NA
ATOM      4  C   UNL     1       7.223   5.865  19.131  0.00  0.00    +0.000 A 
ATOM      5  C   UNL     1       6.195   5.508  18.261  0.00  0.00    +0.000 A 
ATOM      6  C   UNL     1       5.209   4.453  18.226  0.00  0.00    +0.000 A 
ATOM      7  C   UNL     1       4.371   4.580  17.128  0.00  0.00    +0.000 A 
ATOM      8  S   UNL     1       4.787   5.909  16.143  0.00  0.00    +0.000 S 
ATOM      9  C   UNL     1       6.051   6.367  17.183  0.00  0.00    +0.000 A 
ATOM     10  N   UNL     1       6.783   7.464  16.928  0.00  0.00    +0.000 NA
ATOM     11  C   UNL     1       3.187   3.723  16.799  0.00  0.00    +0.000 C 
ATOM     12  C   UNL     1       2.136   3.779  17.913  0.00  0.00    +0.000 C 
ATOM     13  C   UNL     1       2.496   2.974  19.168  0.00  0.00    +0.000 C 
ATOM     14  C   UNL     1       3.687   3.498  19.978  0.00  0.00    +0.000 C 
ATOM     15  C   UNL     1       5.031   3.376  19.256  0.00  0.00    +0.000 C 
ENDROOT
BRANCH   4  16
ATOM     16  O   UNL     1       7.536   5.161  20.258  0.00  0.00    +0.000 OA
ATOM     17  H   UNL     1       6.760   4.576  20.317  0.00  0.00    +0.000 HD
ENDBRANCH   4  16
TORSDOF 1
ENDMDL
MODEL 9
REMARK VINA RESULT:      -6.1      3.184      4.168
REMARK  Name = 
REMARK  2 active torsions:
REMARK  status: ('A' for Active; 'I' for Inactive)
REMARK    1  A    between atoms: C_1  and  C_2
REMARK    2  A    between atoms: C_4  and  O_5
REMARK                            x       y       z     vdW  Elec       q    Type
REMARK                         _______ _______ _______ _____ _____    ______ ____
ROOT
ATOM      1  C   UNL     1       0.146   8.704  21.467  0.00  0.00    +0.000 C 
ATOM      2  C   UNL     1       1.088   8.114  20.464  0.00  0.00    +0.000 A 
ATOM      3  N   UNL     1       1.385   8.863  19.386  0.00  0.00    +0.000 NA
ATOM      4  C   UNL     1       2.241   8.352  18.496  0.00  0.00    +0.000 A 
ATOM      5  C   UNL     1       2.823   7.096  18.655  0.00  0.00    +0.000 A 
ATOM      6  C   UNL     1       3.779   6.314  17.907  0.00  0.00    +0.000 A 
ATOM      7  C   UNL     1       4.053   5.111  18.539  0.00  0.00    +0.000 A 
ATOM      8  S   UNL     1       3.152   4.909  19.974  0.00  0.00    +0.000 S 
ATOM      9  C   UNL     1       2.423   6.436  19.805  0.00  0.00    +0.000 A 
ATOM     10  N   UNL     1       1.566   6.891  20.735  0.00  0.00    +0.000 NA
ATOM     11  C   UNL     1       5.047   4.076  18.108  0.00  0.00    +0.000 C 
ATOM     12  C   UNL     1       6.465   4.655  18.063  0.00  0.00    +0.000 C 
ATOM     13  C   UNL     1       6.743   5.567  16.862  0.00  0.00    +0.000 C 
ATOM     14  C   UNL     1       5.976   6.894  16.840  0.00  0.00    +0.000 C 
ATOM     15  C   UNL     1       4.466   6.735  16.641  0.00  0.00    +0.000 C 
ENDROOT
BRANCH   4  16
ATOM     16  O   UNL     1       2.497   9.174  17.437  0.00  0.00    +0.000 OA
ATOM     17  H   UNL     1       3.244   8.701  17.028  0.00  0.00    +0.000 HD
ENDBRANCH   4  16
TORSDOF 1
ENDMDL
