MODEL 1
REMARK VINA RESULT:      -7.7      0.000      0.000
REMARK  Name = 
REMARK  5 active torsions:
REMARK  status: ('A' for Active; 'I' for Inactive)
REMARK    1  A    between atoms: C_1  and  C_2
REMARK    2  A    between atoms: C_2  and  C_4
REMARK    3  A    between atoms: C_4  and  C_5
REMARK    4  A    between atoms: C_5  and  C_6
REMARK    5  A    between atoms: C_7  and  C_8
REMARK                            x       y       z     vdW  Elec       q    Type
REMARK                         _______ _______ _______ _____ _____    ______ ____
ROOT
ATOM      1  C   UNL     1       4.945   3.918  17.325  0.00  0.00    +0.000 C 
ATOM      2  C   UNL     1       5.031   4.996  18.141  0.00  0.00    +0.000 C 
ATOM      3  C   UNL     1       4.034   5.213  19.245  0.00  0.00    +0.000 C 
ATOM      4  O   UNL     1       4.152   6.094  20.091  0.00  0.00    +0.000 OA
ATOM      5  C   UNL     1       2.847   4.348  19.298  0.00  0.00    +0.000 A 
ATOM      6  C   UNL     1       1.796   4.638  20.179  0.00  0.00    +0.000 A 
ATOM      7  C   UNL     1       0.672   3.809  20.228  0.00  0.00    +0.000 A 
ATOM      8  C   UNL     1       0.595   2.690  19.403  0.00  0.00    +0.000 A 
ATOM      9  C   UNL     1       1.646   2.396  18.535  0.00  0.00    +0.000 A 
ATOM     10  C   UNL     1       2.773   3.230  18.489  0.00  0.00    +0.000 A 
ATOM     11  C   UNL     1       3.890   2.892  17.603  0.00  0.00    +0.000 C 
ATOM     12  O   UNL     1       3.922   1.767  17.117  0.00  0.00    +0.000 OA
ENDROOT
BRANCH   2  13
ATOM     13  C   UNL     1       6.100   5.954  18.015  0.00  0.00    +0.000 A 
ATOM     14  C   UNL     1       6.224   7.055  17.165  0.00  0.00    +0.000 A 
ATOM     15  C   UNL     1       7.459   7.692  17.428  0.00  0.00    +0.000 A 
ATOM     16  C   UNL     1       8.042   6.966  18.431  0.00  0.00    +0.000 A 
ATOM     17  O   UNL     1       7.238   5.944  18.802  0.00  0.00    +0.000 OA
ENDBRANCH   2  13
BRANCH   1  18
ATOM     18  C   UNL     1       5.870   3.618  16.140  0.00  0.00    +0.000 C 
BRANCH  18  19
ATOM     19  C   UNL     1       5.501   4.282  14.808  0.00  0.00    +0.000 C 
BRANCH  19  21
ATOM     20  C   UNL     1       6.688   3.900  12.580  0.00  0.00    +0.000 C 
ATOM     21  C   UNL     1       6.694   4.586  13.925  0.00  0.00    +0.000 C 
ATOM     22  O   UNL     1       7.608   5.335  14.261  0.00  0.00    +0.000 OA
ENDBRANCH  19  21
ENDBRANCH  18  19
ENDBRANCH   1  18
TORSDOF 4
ENDMDL
MODEL 2
REMARK VINA RESULT:      -7.3      3.040      4.782
REMARK  Name = 
REMARK  5 active torsions:
REMARK  status: ('A' for Active; 'I' for Inactive)
REMARK    1  A    between atoms: C_1  and  C_2
REMARK    2  A    between atoms: C_2  and  C_4
REMARK    3  A    between atoms: C_4  and  C_5
REMARK    4  A    between atoms: C_5  and  C_6
REMARK    5  A    between atoms: C_7  and  C_8
REMARK                            x       y       z     vdW  Elec       q    Type
REMARK                         _______ _______ _______ _____ _____    ______ ____
ROOT
ATOM      1  C   UNL     1       3.123   6.845  18.082  0.00  0.00    +0.000 C 
ATOM      2  C   UNL     1       2.802   5.942  19.041  0.00  0.00    +0.000 C 
ATOM      3  C   UNL     1       1.868   6.302  20.162  0.00  0.00    +0.000 C 
ATOM      4  O   UNL     1       1.441   5.482  20.968  0.00  0.00    +0.000 OA
ATOM      5  C   UNL     1       1.467   7.708  20.316  0.00  0.00    +0.000 A 
ATOM      6  C   UNL     1       0.766   8.125  21.456  0.00  0.00    +0.000 A 
ATOM      7  C   UNL     1       0.384   9.462  21.595  0.00  0.00    +0.000 A 
ATOM      8  C   UNL     1       0.697  10.384  20.600  0.00  0.00    +0.000 A 
ATOM      9  C   UNL     1       1.385   9.965  19.461  0.00  0.00    +0.000 A 
ATOM     10  C   UNL     1       1.766   8.623  19.324  0.00  0.00    +0.000 A 
ATOM     11  C   UNL     1       2.454   8.184  18.107  0.00  0.00    +0.000 C 
ATOM     12  O   UNL     1       2.454   8.938  17.140  0.00  0.00    +0.000 OA
ENDROOT
BRANCH   2  13
ATOM     13  C   UNL     1       3.306   4.593  19.005  0.00  0.00    +0.000 A 
ATOM     14  C   UNL     1       2.833   3.475  18.315  0.00  0.00    +0.000 A 
ATOM     15  C   UNL     1       3.678   2.377  18.598  0.00  0.00    +0.000 A 
ATOM     16  C   UNL     1       4.640   2.861  19.444  0.00  0.00    +0.000 A 
ATOM     17  O   UNL     1       4.442   4.179  19.678  0.00  0.00    +0.000 OA
ENDBRANCH   2  13
BRANCH   1  18
ATOM     18  C   UNL     1       4.099   6.610  16.924  0.00  0.00    +0.000 C 
BRANCH  18  19
ATOM     19  C   UNL     1       5.591   6.709  17.264  0.00  0.00    +0.000 C 
BRANCH  19  21
ATOM     20  C   UNL     1       5.954   4.356  16.343  0.00  0.00    +0.000 C 
ATOM     21  C   UNL     1       6.466   5.771  16.458  0.00  0.00    +0.000 C 
ATOM     22  O   UNL     1       7.518   6.120  15.927  0.00  0.00    +0.000 OA
ENDBRANCH  19  21
ENDBRANCH  18  19
ENDBRANCH   1  18
TORSDOF 4
ENDMDL
MODEL 3
REMARK VINA RESULT:      -7.2      1.328      3.701
REMARK  Name = 
REMARK  5 active torsions:
REMARK  status: ('A' for Active; 'I' for Inactive)
REMARK    1  A    between atoms: C_1  and  C_2
REMARK    2  A    between atoms: C_2  and  C_4
REMARK    3  A    between atoms: C_4  and  C_5
REMARK    4  A    between atoms: C_5  and  C_6
REMARK    5  A    between atoms: C_7  and  C_8
REMARK                            x       y       z     vdW  Elec       q    Type
REMARK                         _______ _______ _______ _____ _____    ______ ____
ROOT
ATOM      1  C   UNL     1       4.059   5.782  17.483  0.00  0.00    +0.000 C 
ATOM      2  C   UNL     1       4.319   4.539  17.008  0.00  0.00    +0.000 C 
ATOM      3  C   UNL     1       3.673   3.327  17.620  0.00  0.00    +0.000 C 
ATOM      4  O   UNL     1       3.768   2.203  17.138  0.00  0.00    +0.000 OA
ATOM      5  C   UNL     1       2.915   3.491  18.868  0.00  0.00    +0.000 A 
ATOM      6  C   UNL     1       2.470   2.369  19.580  0.00  0.00    +0.000 A 
ATOM      7  C   UNL     1       1.746   2.531  20.764  0.00  0.00    +0.000 A 
ATOM      8  C   UNL     1       1.463   3.808  21.240  0.00  0.00    +0.000 A 
ATOM      9  C   UNL     1       1.897   4.924  20.524  0.00  0.00    +0.000 A 
ATOM     10  C   UNL     1       2.623   4.758  19.336  0.00  0.00    +0.000 A 
ATOM     11  C   UNL     1       3.041   5.936  18.570  0.00  0.00    +0.000 C 
ATOM     12  O   UNL     1       2.535   7.016  18.850  0.00  0.00    +0.000 OA
ENDROOT
BRANCH   2  13
ATOM     13  C   UNL     1       5.186   4.330  15.877  0.00  0.00    +0.000 A 
ATOM     14  C   UNL     1       4.898   4.337  14.511  0.00  0.00    +0.000 A 
ATOM     15  C   UNL     1       6.093   4.087  13.796  0.00  0.00    +0.000 A 
ATOM     16  C   UNL     1       7.068   3.942  14.746  0.00  0.00    +0.000 A 
ATOM     17  O   UNL     1       6.547   4.103  15.985  0.00  0.00    +0.000 OA
ENDBRANCH   2  13
BRANCH   1  18
ATOM     18  C   UNL     1       4.692   7.082  16.975  0.00  0.00    +0.000 C 
BRANCH  18  19
ATOM     19  C   UNL     1       5.856   7.639  17.805  0.00  0.00    +0.000 C 
BRANCH  19  21
ATOM     20  C   UNL     1       7.679   6.098  18.711  0.00  0.00    +0.000 C 
ATOM     21  C   UNL     1       7.174   6.935  17.560  0.00  0.00    +0.000 C 
ATOM     22  O   UNL     1       7.801   7.025  16.507  0.00  0.00    +0.000 OA
ENDBRANCH  19  21
ENDBRANCH  18  19
ENDBRANCH   1  18
TORSDOF 4
ENDMDL
MODEL 4
REMARK VINA RESULT:      -7.1      3.752      6.355
REMARK  Name = 
REMARK  5 active torsions:
REMARK  status: ('A' for Active; 'I' for Inactive)
REMARK    1  A    between atoms: C_1  and  C_2
REMARK    2  A    between atoms: C_2  and  C_4
REMARK    3  A    between atoms: C_4  and  C_5
REMARK    4  A    between atoms: C_5  and  C_6
REMARK    5  A    between atoms: C_7  and  C_8
REMARK                            x       y       z     vdW  Elec       q    Type
REMARK                         _______ _______ _______ _____ _____    ______ ____
ROOT
ATOM      1  C   UNL     1       2.104   6.701  20.067  0.00  0.00    +0.000 C 
ATOM      2  C   UNL     1       2.612   6.905  18.827  0.00  0.00    +0.000 C 
ATOM      3  C   UNL     1       2.417   8.215  18.116  0.00  0.00    +0.000 C 
ATOM      4  O   UNL     1       2.973   8.493  17.059  0.00  0.00    +0.000 OA
ATOM      5  C   UNL     1       1.496   9.200  18.701  0.00  0.00    +0.000 A 
ATOM      6  C   UNL     1       1.127  10.343  17.978  0.00  0.00    +0.000 A 
ATOM      7  C   UNL     1       0.254  11.278  18.542  0.00  0.00    +0.000 A 
ATOM      8  C   UNL     1      -0.251  11.076  19.823  0.00  0.00    +0.000 A 
ATOM      9  C   UNL     1       0.126   9.944  20.545  0.00  0.00    +0.000 A 
ATOM     10  C   UNL     1       1.002   9.008  19.978  0.00  0.00    +0.000 A 
ATOM     11  C   UNL     1       1.423   7.842  20.758  0.00  0.00    +0.000 C 
ATOM     12  O   UNL     1       1.202   7.842  21.964  0.00  0.00    +0.000 OA
ENDROOT
BRANCH   2  13
ATOM     13  C   UNL     1       3.392   5.896  18.156  0.00  0.00    +0.000 A 
ATOM     14  C   UNL     1       2.981   4.759  17.458  0.00  0.00    +0.000 A 
ATOM     15  C   UNL     1       4.128   4.088  16.973  0.00  0.00    +0.000 A 
ATOM     16  C   UNL     1       5.196   4.838  17.384  0.00  0.00    +0.000 A 
ATOM     17  O   UNL     1       4.773   5.925  18.070  0.00  0.00    +0.000 OA
ENDBRANCH   2  13
BRANCH   1  18
ATOM     18  C   UNL     1       2.196   5.397  20.866  0.00  0.00    +0.000 C 
BRANCH  18  19
ATOM     19  C   UNL     1       1.086   4.368  20.615  0.00  0.00    +0.000 C 
BRANCH  19  21
ATOM     20  C   UNL     1       1.815   2.096  19.708  0.00  0.00    +0.000 C 
ATOM     21  C   UNL     1       1.494   2.941  20.917  0.00  0.00    +0.000 C 
ATOM     22  O   UNL     1       1.567   2.488  22.056  0.00  0.00    +0.000 OA
ENDBRANCH  19  21
ENDBRANCH  18  19
ENDBRANCH   1  18
TORSDOF 4
ENDMDL
MODEL 5
REMARK VINA RESULT:      -7.1      2.488      6.237
REMARK  Name = 
REMARK  5 active torsions:
REMARK  status: ('A' for Active; 'I' for Inactive)
REMARK    1  A    between atoms: C_1  and  C_2
REMARK    2  A    between atoms: C_2  and  C_4
REMARK    3  A    between atoms: C_4  and  C_5
REMARK    4  A    between atoms: C_5  and  C_6
REMARK    5  A    between atoms: C_7  and  C_8
REMARK                            x       y       z     vdW  Elec       q    Type
REMARK                         _______ _______ _______ _____ _____    ______ ____
ROOT
ATOM      1  C   UNL     1       3.440   5.934  18.223  0.00  0.00    +0.000 C 
ATOM      2  C   UNL     1       3.341   4.597  18.422  0.00  0.00    +0.000 C 
ATOM      3  C   UNL     1       4.167   3.631  17.618  0.00  0.00    +0.000 C 
ATOM      4  O   UNL     1       4.214   2.430  17.857  0.00  0.00    +0.000 OA
ATOM      5  C   UNL     1       4.933   4.147  16.475  0.00  0.00    +0.000 A 
ATOM      6  C   UNL     1       5.551   3.264  15.579  0.00  0.00    +0.000 A 
ATOM      7  C   UNL     1       6.283   3.760  14.496  0.00  0.00    +0.000 A 
ATOM      8  C   UNL     1       6.400   5.134  14.305  0.00  0.00    +0.000 A 
ATOM      9  C   UNL     1       5.794   6.012  15.204  0.00  0.00    +0.000 A 
ATOM     10  C   UNL     1       5.061   5.511  16.290  0.00  0.00    +0.000 A 
ATOM     11  C   UNL     1       4.461   6.440  17.250  0.00  0.00    +0.000 C 
ATOM     12  O   UNL     1       4.821   7.611  17.224  0.00  0.00    +0.000 OA
ENDROOT
BRANCH   2  13
ATOM     13  C   UNL     1       2.477   4.047  19.435  0.00  0.00    +0.000 A 
ATOM     14  C   UNL     1       1.157   3.602  19.344  0.00  0.00    +0.000 A 
ATOM     15  C   UNL     1       0.746   3.142  20.617  0.00  0.00    +0.000 A 
ATOM     16  C   UNL     1       1.828   3.314  21.438  0.00  0.00    +0.000 A 
ATOM     17  O   UNL     1       2.868   3.832  20.744  0.00  0.00    +0.000 OA
ENDBRANCH   2  13
BRANCH   1  18
ATOM     18  C   UNL     1       2.618   7.008  18.944  0.00  0.00    +0.000 C 
BRANCH  18  19
ATOM     19  C   UNL     1       1.635   7.805  18.076  0.00  0.00    +0.000 C 
BRANCH  19  21
ATOM     20  C   UNL     1       0.920   9.782  19.525  0.00  0.00    +0.000 C 
ATOM     21  C   UNL     1       1.683   9.300  18.314  0.00  0.00    +0.000 C 
ATOM     22  O   UNL     1       2.293  10.079  17.587  0.00  0.00    +0.000 OA
ENDBRANCH  19  21
ENDBRANCH  18  19
ENDBRANCH   1  18
TORSDOF 4
ENDMDL
MODEL 6
REMARK VINA RESULT:      -7.0      2.165      4.426
REMARK  Name = 
REMARK  5 active torsions:
REMARK  status: ('A' for Active; 'I' for Inactive)
REMARK    1  A    between atoms: C_1  and  C_2
REMARK    2  A    between atoms: C_2  and  C_4
REMARK    3  A    between atoms: C_4  and  C_5
REMARK    4  A    between atoms: C_5  and  C_6
REMARK    5  A    between atoms: C_7  and  C_8
REMARK                            x       y       z     vdW  Elec       q    Type
REMARK                         _______ _______ _______ _____ _____    ______ ____
ROOT
ATOM      1  C   UNL     1       3.959   4.458  18.857  0.00  0.00    +0.000 C 
ATOM      2  C   UNL     1       4.337   5.248  17.823  0.00  0.00    +0.000 C 
ATOM      3  C   UNL     1       3.882   6.678  17.734  0.00  0.00    +0.000 C 
ATOM      4  O   UNL     1       4.309   7.466  16.897  0.00  0.00    +0.000 OA
ATOM      5  C   UNL     1       2.859   7.148  18.679  0.00  0.00    +0.000 A 
ATOM      6  C   UNL     1       2.260   8.403  18.509  0.00  0.00    +0.000 A 
ATOM      7  C   UNL     1       1.290   8.847  19.413  0.00  0.00    +0.000 A 
ATOM      8  C   UNL     1       0.918   8.042  20.487  0.00  0.00    +0.000 A 
ATOM      9  C   UNL     1       1.524   6.798  20.661  0.00  0.00    +0.000 A 
ATOM     10  C   UNL     1       2.496   6.356  19.753  0.00  0.00    +0.000 A 
ATOM     11  C   UNL     1       3.155   5.065  19.966  0.00  0.00    +0.000 C 
ATOM     12  O   UNL     1       3.024   4.522  21.057  0.00  0.00    +0.000 OA
ENDROOT
BRANCH   2  13
ATOM     13  C   UNL     1       5.219   4.767  16.790  0.00  0.00    +0.000 A 
ATOM     14  C   UNL     1       4.924   4.223  15.539  0.00  0.00    +0.000 A 
ATOM     15  C   UNL     1       6.139   3.910  14.885  0.00  0.00    +0.000 A 
ATOM     16  C   UNL     1       7.131   4.279  15.753  0.00  0.00    +0.000 A 
ATOM     17  O   UNL     1       6.599   4.807  16.879  0.00  0.00    +0.000 OA
ENDBRANCH   2  13
BRANCH   1  18
ATOM     18  C   UNL     1       4.317   2.978  19.028  0.00  0.00    +0.000 C 
BRANCH  18  19
ATOM     19  C   UNL     1       3.257   1.967  18.574  0.00  0.00    +0.000 C 
BRANCH  19  21
ATOM     20  C   UNL     1       0.800   2.562  18.929  0.00  0.00    +0.000 C 
ATOM     21  C   UNL     1       2.001   2.605  18.016  0.00  0.00    +0.000 C 
ATOM     22  O   UNL     1       1.947   3.127  16.905  0.00  0.00    +0.000 OA
ENDBRANCH  19  21
ENDBRANCH  18  19
ENDBRANCH   1  18
TORSDOF 4
ENDMDL
MODEL 7
REMARK VINA RESULT:      -7.0      2.672      4.690
REMARK  Name = 
REMARK  5 active torsions:
REMARK  status: ('A' for Active; 'I' for Inactive)
REMARK    1  A    between atoms: C_1  and  C_2
REMARK    2  A    between atoms: C_2  and  C_4
REMARK    3  A    between atoms: C_4  and  C_5
REMARK    4  A    between atoms: C_5  and  C_6
REMARK    5  A    between atoms: C_7  and  C_8
REMARK                            x       y       z     vdW  Elec       q    Type
REMARK                         _______ _______ _______ _____ _____    ______ ____
ROOT
ATOM      1  C   UNL     1       3.406   6.056  18.103  0.00  0.00    +0.000 C 
ATOM      2  C   UNL     1       2.930   5.182  19.023  0.00  0.00    +0.000 C 
ATOM      3  C   UNL     1       1.925   5.614  20.055  0.00  0.00    +0.000 C 
ATOM      4  O   UNL     1       1.365   4.830  20.814  0.00  0.00    +0.000 OA
ATOM      5  C   UNL     1       1.620   7.046  20.179  0.00  0.00    +0.000 A 
ATOM      6  C   UNL     1       0.850   7.517  21.251  0.00  0.00    +0.000 A 
ATOM      7  C   UNL     1       0.559   8.880  21.362  0.00  0.00    +0.000 A 
ATOM      8  C   UNL     1       1.032   9.773  20.405  0.00  0.00    +0.000 A 
ATOM      9  C   UNL     1       1.789   9.302  19.332  0.00  0.00    +0.000 A 
ATOM     10  C   UNL     1       2.079   7.934  19.224  0.00  0.00    +0.000 A 
ATOM     11  C   UNL     1       2.840   7.442  18.073  0.00  0.00    +0.000 C 
ATOM     12  O   UNL     1       2.988   8.192  17.114  0.00  0.00    +0.000 OA
ENDROOT
BRANCH   2  13
ATOM     13  C   UNL     1       3.331   3.798  19.027  0.00  0.00    +0.000 A 
ATOM     14  C   UNL     1       2.892   2.733  18.238  0.00  0.00    +0.000 A 
ATOM     15  C   UNL     1       3.598   1.568  18.618  0.00  0.00    +0.000 A 
ATOM     16  C   UNL     1       4.445   1.960  19.619  0.00  0.00    +0.000 A 
ATOM     17  O   UNL     1       4.311   3.285  19.858  0.00  0.00    +0.000 OA
ENDBRANCH   2  13
BRANCH   1  18
ATOM     18  C   UNL     1       4.464   5.745  17.039  0.00  0.00    +0.000 C 
BRANCH  18  19
ATOM     19  C   UNL     1       5.878   5.450  17.555  0.00  0.00    +0.000 C 
BRANCH  19  21
ATOM     20  C   UNL     1       7.500   7.421  17.553  0.00  0.00    +0.000 C 
ATOM     21  C   UNL     1       6.967   6.210  16.826  0.00  0.00    +0.000 C 
ATOM     22  O   UNL     1       7.398   5.880  15.724  0.00  0.00    +0.000 OA
ENDBRANCH  19  21
ENDBRANCH  18  19
ENDBRANCH   1  18
TORSDOF 4
ENDMDL
MODEL 8
REMARK VINA RESULT:      -7.0      2.302      5.721
REMARK  Name = 
REMARK  5 active torsions:
REMARK  status: ('A' for Active; 'I' for Inactive)
REMARK    1  A    between atoms: C_1  and  C_2
REMARK    2  A    between atoms: C_2  and  C_4
REMARK    3  A    between atoms: C_4  and  C_5
REMARK    4  A    between atoms: C_5  and  C_6
REMARK    5  A    between atoms: C_7  and  C_8
REMARK                            x       y       z     vdW  Elec       q    Type
REMARK                         _______ _______ _______ _____ _____    ______ ____
ROOT
ATOM      1  C   UNL     1       2.296   4.856  18.433  0.00  0.00    +0.000 C 
ATOM      2  C   UNL     1       2.745   6.129  18.557  0.00  0.00    +0.000 C 
ATOM      3  C   UNL     1       3.902   6.626  17.735  0.00  0.00    +0.000 C 
ATOM      4  O   UNL     1       4.251   7.801  17.712  0.00  0.00    +0.000 OA
ATOM      5  C   UNL     1       4.668   5.653  16.943  0.00  0.00    +0.000 A 
ATOM      6  C   UNL     1       5.868   6.029  16.326  0.00  0.00    +0.000 A 
ATOM      7  C   UNL     1       6.590   5.101  15.570  0.00  0.00    +0.000 A 
ATOM      8  C   UNL     1       6.117   3.799  15.428  0.00  0.00    +0.000 A 
ATOM      9  C   UNL     1       4.916   3.429  16.033  0.00  0.00    +0.000 A 
ATOM     10  C   UNL     1       4.194   4.363  16.790  0.00  0.00    +0.000 A 
ATOM     11  C   UNL     1       2.914   3.977  17.390  0.00  0.00    +0.000 C 
ATOM     12  O   UNL     1       2.388   2.937  17.011  0.00  0.00    +0.000 OA
ENDROOT
BRANCH   2  13
ATOM     13  C   UNL     1       2.111   7.069  19.446  0.00  0.00    +0.000 A 
ATOM     14  C   UNL     1       1.820   6.963  20.808  0.00  0.00    +0.000 A 
ATOM     15  C   UNL     1       1.198   8.160  21.232  0.00  0.00    +0.000 A 
ATOM     16  C   UNL     1       1.135   8.957  20.121  0.00  0.00    +0.000 A 
ATOM     17  O   UNL     1       1.691   8.329  19.059  0.00  0.00    +0.000 OA
ENDBRANCH   2  13
BRANCH   1  18
ATOM     18  C   UNL     1       1.162   4.225  19.249  0.00  0.00    +0.000 C 
BRANCH  18  19
ATOM     19  C   UNL     1       1.471   2.874  19.906  0.00  0.00    +0.000 C 
BRANCH  19  21
ATOM     20  C   UNL     1       3.897   2.471  20.594  0.00  0.00    +0.000 C 
ATOM     21  C   UNL     1       2.522   2.949  20.995  0.00  0.00    +0.000 C 
ATOM     22  O   UNL     1       2.291   3.367  22.127  0.00  0.00    +0.000 OA
ENDBRANCH  19  21
ENDBRANCH  18  19
ENDBRANCH   1  18
TORSDOF 4
ENDMDL
MODEL 9
REMARK VINA RESULT:      -7.0      3.582      6.145
REMARK  Name = 
REMARK  5 active torsions:
REMARK  status: ('A' for Active; 'I' for Inactive)
REMARK    1  A    between atoms: C_1  and  C_2
REMARK    2  A    between atoms: C_2  and  C_4
REMARK    3  A    between atoms: C_4  and  C_5
REMARK    4  A    between atoms: C_5  and  C_6
REMARK    5  A    between atoms: C_7  and  C_8
REMARK                            x       y       z     vdW  Elec       q    Type
REMARK                         _______ _______ _______ _____ _____    ______ ____
ROOT
ATOM      1  C   UNL     1       2.115   6.504  20.026  0.00  0.00    +0.000 C 
ATOM      2  C   UNL     1       2.710   6.705  18.824  0.00  0.00    +0.000 C 
ATOM      3  C   UNL     1       2.614   8.033  18.125  0.00  0.00    +0.000 C 
ATOM      4  O   UNL     1       3.247   8.303  17.111  0.00  0.00    +0.000 OA
ATOM      5  C   UNL     1       1.696   9.045  18.668  0.00  0.00    +0.000 A 
ATOM      6  C   UNL     1       1.421  10.213  17.943  0.00  0.00    +0.000 A 
ATOM      7  C   UNL     1       0.552  11.175  18.466  0.00  0.00    +0.000 A 
ATOM      8  C   UNL     1      -0.042  10.975  19.709  0.00  0.00    +0.000 A 
ATOM      9  C   UNL     1       0.241   9.818  20.434  0.00  0.00    +0.000 A 
ATOM     10  C   UNL     1       1.115   8.855  19.907  0.00  0.00    +0.000 A 
ATOM     11  C   UNL     1       1.437   7.661  20.692  0.00  0.00    +0.000 C 
ATOM     12  O   UNL     1       1.139   7.653  21.881  0.00  0.00    +0.000 OA
ENDROOT
BRANCH   2  13
ATOM     13  C   UNL     1       3.491   5.675  18.187  0.00  0.00    +0.000 A 
ATOM     14  C   UNL     1       4.852   5.386  18.293  0.00  0.00    +0.000 A 
ATOM     15  C   UNL     1       5.142   4.270  17.474  0.00  0.00    +0.000 A 
ATOM     16  C   UNL     1       3.950   3.912  16.903  0.00  0.00    +0.000 A 
ATOM     17  O   UNL     1       2.958   4.726  17.333  0.00  0.00    +0.000 OA
ENDBRANCH   2  13
BRANCH   1  18
ATOM     18  C   UNL     1       2.103   5.186  20.807  0.00  0.00    +0.000 C 
BRANCH  18  19
ATOM     19  C   UNL     1       0.968   4.209  20.471  0.00  0.00    +0.000 C 
BRANCH  19  21
ATOM     20  C   UNL     1       2.813   2.479  20.121  0.00  0.00    +0.000 C 
ATOM     21  C   UNL     1       1.430   2.958  19.752  0.00  0.00    +0.000 C 
ATOM     22  O   UNL     1       0.743   2.363  18.926  0.00  0.00    +0.000 OA
ENDBRANCH  19  21
ENDBRANCH  18  19
ENDBRANCH   1  18
TORSDOF 4
ENDMDL
