MODEL 1
REMARK VINA RESULT:      -8.1      0.000      0.000
REMARK  Name = 
REMARK  6 active torsions:
REMARK  status: ('A' for Active; 'I' for Inactive)
REMARK    1  A    between atoms: C_2  and  O_3
REMARK    2  A    between atoms: C_2  and  C_4
REMARK    3  A    between atoms: C_4  and  C_5
REMARK    4  A    between atoms: C_5  and  C_6
REMARK    5  A    between atoms: C_6  and  N_7
REMARK    6  A    between atoms: C_9  and  C_10
REMARK                            x       y       z     vdW  Elec       q    Type
REMARK                         _______ _______ _______ _____ _____    ______ ____
ROOT
ATOM      1  N   UNL     1       4.774   5.632  16.643  0.00  0.00    +0.000 N 
ATOM      2  N   UNL     1       4.019   6.619  17.246  0.00  0.00    +0.000 NA
ATOM      3  C   UNL     1       3.013   6.282  18.010  0.00  0.00    +0.000 A 
ATOM      4  C   UNL     1       2.584   4.861  18.181  0.00  0.00    +0.000 A 
ATOM      5  C   UNL     1       1.386   4.466  18.798  0.00  0.00    +0.000 A 
ATOM      6  C   UNL     1       1.072   3.110  18.945  0.00  0.00    +0.000 A 
ATOM      7  C   UNL     1       1.927   2.135  18.445  0.00  0.00    +0.000 A 
ATOM      8  C   UNL     1       3.091   2.518  17.782  0.00  0.00    +0.000 A 
ATOM      9  C   UNL     1       3.408   3.879  17.644  0.00  0.00    +0.000 A 
ATOM     10  C   UNL     1       4.583   4.268  16.850  0.00  0.00    +0.000 A 
ATOM     11  O   UNL     1       5.303   3.395  16.373  0.00  0.00    +0.000 OA
ENDROOT
BRANCH   3  12
ATOM     12  C   UNL     1       2.293   7.391  18.708  0.00  0.00    +0.000 A 
ATOM     13  C   UNL     1       1.836   8.498  17.991  0.00  0.00    +0.000 A 
ATOM     14  C   UNL     1       1.155   9.521  18.651  0.00  0.00    +0.000 A 
ATOM     15  C   UNL     1       0.942   9.400  20.013  0.00  0.00    +0.000 A 
ATOM     16  N   UNL     1       1.398   8.362  20.748  0.00  0.00    +0.000 NA
ATOM     17  C   UNL     1       2.090   7.403  20.085  0.00  0.00    +0.000 A 
ENDBRANCH   3  12
BRANCH   1  18
ATOM     18  C   UNL     1       5.831   6.060  15.728  0.00  0.00    +0.000 C 
BRANCH  18  19
ATOM     19  C   UNL     1       7.220   6.005  16.371  0.00  0.00    +0.000 C 
BRANCH  19  20
ATOM     20  C   UNL     1       7.303   6.497  17.815  0.00  0.00    +0.000 C 
BRANCH  20  22
ATOM     21  O   UNL     1       7.503   5.561  20.023  0.00  0.00    +0.000 OA
ATOM     22  C   UNL     1       7.505   5.390  18.816  0.00  0.00    +0.000 C 
BRANCH  22  23
ATOM     23  O   UNL     1       7.663   4.169  18.259  0.00  0.00    +0.000 OA
ATOM     24  H   UNL     1       6.905   3.557  18.423  0.00  0.00    +0.000 HD
ENDBRANCH  22  23
ENDBRANCH  20  22
ENDBRANCH  19  20
ENDBRANCH  18  19
ENDBRANCH   1  18
TORSDOF 6
ENDMDL
MODEL 2
REMARK VINA RESULT:      -8.0      0.574      1.027
REMARK  Name = 
REMARK  6 active torsions:
REMARK  status: ('A' for Active; 'I' for Inactive)
REMARK    1  A    between atoms: C_2  and  O_3
REMARK    2  A    between atoms: C_2  and  C_4
REMARK    3  A    between atoms: C_4  and  C_5
REMARK    4  A    between atoms: C_5  and  C_6
REMARK    5  A    between atoms: C_6  and  N_7
REMARK    6  A    between atoms: C_9  and  C_10
REMARK                            x       y       z     vdW  Elec       q    Type
REMARK                         _______ _______ _______ _____ _____    ______ ____
ROOT
ATOM      1  N   UNL     1       4.685   5.791  16.795  0.00  0.00    +0.000 N 
ATOM      2  N   UNL     1       3.927   6.729  17.470  0.00  0.00    +0.000 NA
ATOM      3  C   UNL     1       2.949   6.331  18.240  0.00  0.00    +0.000 A 
ATOM      4  C   UNL     1       2.552   4.894  18.345  0.00  0.00    +0.000 A 
ATOM      5  C   UNL     1       1.380   4.441  18.970  0.00  0.00    +0.000 A 
ATOM      6  C   UNL     1       1.095   3.073  19.052  0.00  0.00    +0.000 A 
ATOM      7  C   UNL     1       1.955   2.144  18.478  0.00  0.00    +0.000 A 
ATOM      8  C   UNL     1       3.093   2.587  17.806  0.00  0.00    +0.000 A 
ATOM      9  C   UNL     1       3.381   3.960  17.734  0.00  0.00    +0.000 A 
ATOM     10  C   UNL     1       4.525   4.414  16.932  0.00  0.00    +0.000 A 
ATOM     11  O   UNL     1       5.249   3.583  16.390  0.00  0.00    +0.000 OA
ENDROOT
BRANCH   3  12
ATOM     12  C   UNL     1       2.227   7.386  19.016  0.00  0.00    +0.000 A 
ATOM     13  C   UNL     1       1.974   7.213  20.377  0.00  0.00    +0.000 A 
ATOM     14  C   UNL     1       1.311   8.209  21.093  0.00  0.00    +0.000 A 
ATOM     15  C   UNL     1       0.928   9.358  20.424  0.00  0.00    +0.000 A 
ATOM     16  N   UNL     1       1.124   9.550  19.101  0.00  0.00    +0.000 NA
ATOM     17  C   UNL     1       1.736   8.547  18.424  0.00  0.00    +0.000 A 
ENDBRANCH   3  12
BRANCH   1  18
ATOM     18  C   UNL     1       5.708   6.290  15.877  0.00  0.00    +0.000 C 
BRANCH  18  19
ATOM     19  C   UNL     1       7.126   6.117  16.431  0.00  0.00    +0.000 C 
BRANCH  19  20
ATOM     20  C   UNL     1       7.328   6.548  17.882  0.00  0.00    +0.000 C 
BRANCH  20  22
ATOM     21  O   UNL     1       7.527   5.500  20.039  0.00  0.00    +0.000 OA
ATOM     22  C   UNL     1       7.559   5.396  18.824  0.00  0.00    +0.000 C 
BRANCH  22  23
ATOM     23  O   UNL     1       7.779   4.216  18.205  0.00  0.00    +0.000 OA
ATOM     24  H   UNL     1       8.629   3.785  18.463  0.00  0.00    +0.000 HD
ENDBRANCH  22  23
ENDBRANCH  20  22
ENDBRANCH  19  20
ENDBRANCH  18  19
ENDBRANCH   1  18
TORSDOF 6
ENDMDL
MODEL 3
REMARK VINA RESULT:      -8.0      1.787      2.485
REMARK  Name = 
REMARK  6 active torsions:
REMARK  status: ('A' for Active; 'I' for Inactive)
REMARK    1  A    between atoms: C_2  and  O_3
REMARK    2  A    between atoms: C_2  and  C_4
REMARK    3  A    between atoms: C_4  and  C_5
REMARK    4  A    between atoms: C_5  and  C_6
REMARK    5  A    between atoms: C_6  and  N_7
REMARK    6  A    between atoms: C_9  and  C_10
REMARK                            x       y       z     vdW  Elec       q    Type
REMARK                         _______ _______ _______ _____ _____    ______ ____
ROOT
ATOM      1  N   UNL     1       5.045   5.094  18.491  0.00  0.00    +0.000 N 
ATOM      2  N   UNL     1       4.237   6.214  18.479  0.00  0.00    +0.000 NA
ATOM      3  C   UNL     1       3.086   6.183  19.098  0.00  0.00    +0.000 A 
ATOM      4  C   UNL     1       2.562   4.941  19.742  0.00  0.00    +0.000 A 
ATOM      5  C   UNL     1       1.248   4.790  20.215  0.00  0.00    +0.000 A 
ATOM      6  C   UNL     1       0.843   3.601  20.834  0.00  0.00    +0.000 A 
ATOM      7  C   UNL     1       1.730   2.537  20.952  0.00  0.00    +0.000 A 
ATOM      8  C   UNL     1       3.018   2.657  20.435  0.00  0.00    +0.000 A 
ATOM      9  C   UNL     1       3.424   3.854  19.824  0.00  0.00    +0.000 A 
ATOM     10  C   UNL     1       4.749   3.926  19.190  0.00  0.00    +0.000 A 
ATOM     11  O   UNL     1       5.504   2.960  19.261  0.00  0.00    +0.000 OA
ENDROOT
BRANCH   3  12
ATOM     12  C   UNL     1       2.301   7.455  19.129  0.00  0.00    +0.000 A 
ATOM     13  C   UNL     1       2.155   8.223  17.973  0.00  0.00    +0.000 A 
ATOM     14  C   UNL     1       1.409   9.401  18.011  0.00  0.00    +0.000 A 
ATOM     15  C   UNL     1       0.821   9.772  19.207  0.00  0.00    +0.000 A 
ATOM     16  N   UNL     1       0.967   9.075  20.356  0.00  0.00    +0.000 NA
ATOM     17  C   UNL     1       1.729   7.955  20.296  0.00  0.00    +0.000 A 
ENDBRANCH   3  12
BRANCH   1  18
ATOM     18  C   UNL     1       6.280   5.149  17.710  0.00  0.00    +0.000 C 
BRANCH  18  19
ATOM     19  C   UNL     1       6.179   6.114  16.524  0.00  0.00    +0.000 C 
BRANCH  19  20
ATOM     20  C   UNL     1       5.660   5.511  15.220  0.00  0.00    +0.000 C 
BRANCH  20  22
ATOM     21  O   UNL     1       7.751   5.356  14.040  0.00  0.00    +0.000 OA
ATOM     22  C   UNL     1       6.725   4.814  14.415  0.00  0.00    +0.000 C 
BRANCH  22  23
ATOM     23  O   UNL     1       6.460   3.514  14.162  0.00  0.00    +0.000 OA
ATOM     24  H   UNL     1       6.918   3.164  13.360  0.00  0.00    +0.000 HD
ENDBRANCH  22  23
ENDBRANCH  20  22
ENDBRANCH  19  20
ENDBRANCH  18  19
ENDBRANCH   1  18
TORSDOF 6
ENDMDL
MODEL 4
REMARK VINA RESULT:      -7.8      3.334      5.760
REMARK  Name = 
REMARK  6 active torsions:
REMARK  status: ('A' for Active; 'I' for Inactive)
REMARK    1  A    between atoms: C_2  and  O_3
REMARK    2  A    between atoms: C_2  and  C_4
REMARK    3  A    between atoms: C_4  and  C_5
REMARK    4  A    between atoms: C_5  and  C_6
REMARK    5  A    between atoms: C_6  and  N_7
REMARK    6  A    between atoms: C_9  and  C_10
REMARK                            x       y       z     vdW  Elec       q    Type
REMARK                         _______ _______ _______ _____ _____    ______ ____
ROOT
ATOM      1  N   UNL     1       6.057   4.240  14.749  0.00  0.00    +0.000 N 
ATOM      2  N   UNL     1       4.984   3.698  15.431  0.00  0.00    +0.000 NA
ATOM      3  C   UNL     1       4.831   3.964  16.701  0.00  0.00    +0.000 A 
ATOM      4  C   UNL     1       5.832   4.758  17.475  0.00  0.00    +0.000 A 
ATOM      5  C   UNL     1       5.834   4.879  18.874  0.00  0.00    +0.000 A 
ATOM      6  C   UNL     1       6.792   5.668  19.522  0.00  0.00    +0.000 A 
ATOM      7  C   UNL     1       7.780   6.314  18.788  0.00  0.00    +0.000 A 
ATOM      8  C   UNL     1       7.820   6.154  17.404  0.00  0.00    +0.000 A 
ATOM      9  C   UNL     1       6.852   5.370  16.756  0.00  0.00    +0.000 A 
ATOM     10  C   UNL     1       6.972   5.127  15.311  0.00  0.00    +0.000 A 
ATOM     11  O   UNL     1       7.880   5.665  14.683  0.00  0.00    +0.000 OA
ENDROOT
BRANCH   3  12
ATOM     12  C   UNL     1       3.601   3.426  17.360  0.00  0.00    +0.000 A 
ATOM     13  C   UNL     1       2.463   4.223  17.489  0.00  0.00    +0.000 A 
ATOM     14  C   UNL     1       1.317   3.707  18.094  0.00  0.00    +0.000 A 
ATOM     15  C   UNL     1       1.343   2.399  18.546  0.00  0.00    +0.000 A 
ATOM     16  N   UNL     1       2.434   1.606  18.471  0.00  0.00    +0.000 NA
ATOM     17  C   UNL     1       3.544   2.149  17.912  0.00  0.00    +0.000 A 
ENDBRANCH   3  12
BRANCH   1  18
ATOM     18  C   UNL     1       6.236   3.841  13.353  0.00  0.00    +0.000 C 
BRANCH  18  19
ATOM     19  C   UNL     1       4.967   3.225  12.754  0.00  0.00    +0.000 C 
BRANCH  19  20
ATOM     20  C   UNL     1       5.128   2.579  11.379  0.00  0.00    +0.000 C 
BRANCH  20  22
ATOM     21  O   UNL     1       7.440   1.984  11.077  0.00  0.00    +0.000 OA
ATOM     22  C   UNL     1       6.294   1.630  11.295  0.00  0.00    +0.000 C 
BRANCH  22  23
ATOM     23  O   UNL     1       5.966   0.338  11.514  0.00  0.00    +0.000 OA
ATOM     24  H   UNL     1       4.995   0.186  11.616  0.00  0.00    +0.000 HD
ENDBRANCH  22  23
ENDBRANCH  20  22
ENDBRANCH  19  20
ENDBRANCH  18  19
ENDBRANCH   1  18
TORSDOF 6
ENDMDL
MODEL 5
REMARK VINA RESULT:      -7.8      2.182      4.323
REMARK  Name = 
REMARK  6 active torsions:
REMARK  status: ('A' for Active; 'I' for Inactive)
REMARK    1  A    between atoms: C_2  and  O_3
REMARK    2  A    between atoms: C_2  and  C_4
REMARK    3  A    between atoms: C_4  and  C_5
REMARK    4  A    between atoms: C_5  and  C_6
REMARK    5  A    between atoms: C_6  and  N_7
REMARK    6  A    between atoms: C_9  and  C_10
REMARK                            x       y       z     vdW  Elec       q    Type
REMARK                         _______ _______ _______ _____ _____    ______ ____
ROOT
ATOM      1  N   UNL     1       2.660   3.821  18.130  0.00  0.00    +0.000 N 
ATOM      2  N   UNL     1       2.200   5.074  18.486  0.00  0.00    +0.000 NA
ATOM      3  C   UNL     1       2.945   6.122  18.252  0.00  0.00    +0.000 A 
ATOM      4  C   UNL     1       4.328   6.008  17.698  0.00  0.00    +0.000 A 
ATOM      5  C   UNL     1       5.247   7.068  17.642  0.00  0.00    +0.000 A 
ATOM      6  C   UNL     1       6.516   6.885  17.080  0.00  0.00    +0.000 A 
ATOM      7  C   UNL     1       6.897   5.636  16.603  0.00  0.00    +0.000 A 
ATOM      8  C   UNL     1       6.013   4.565  16.706  0.00  0.00    +0.000 A 
ATOM      9  C   UNL     1       4.737   4.753  17.262  0.00  0.00    +0.000 A 
ATOM     10  C   UNL     1       3.859   3.591  17.460  0.00  0.00    +0.000 A 
ATOM     11  O   UNL     1       4.230   2.484  17.077  0.00  0.00    +0.000 OA
ENDROOT
BRANCH   3  12
ATOM     12  C   UNL     1       2.354   7.457  18.573  0.00  0.00    +0.000 A 
ATOM     13  C   UNL     1       2.265   8.445  17.592  0.00  0.00    +0.000 A 
ATOM     14  C   UNL     1       1.701   9.682  17.899  0.00  0.00    +0.000 A 
ATOM     15  C   UNL     1       1.230   9.891  19.184  0.00  0.00    +0.000 A 
ATOM     16  N   UNL     1       1.328   8.974  20.171  0.00  0.00    +0.000 NA
ATOM     17  C   UNL     1       1.917   7.795  19.851  0.00  0.00    +0.000 A 
ENDBRANCH   3  12
BRANCH   1  18
ATOM     18  C   UNL     1       1.830   2.673  18.494  0.00  0.00    +0.000 C 
BRANCH  18  19
ATOM     19  C   UNL     1       0.717   3.045  19.480  0.00  0.00    +0.000 C 
BRANCH  19  20
ATOM     20  C   UNL     1       0.940   2.607  20.926  0.00  0.00    +0.000 C 
BRANCH  20  22
ATOM     21  O   UNL     1       3.088   2.427  21.996  0.00  0.00    +0.000 OA
ATOM     22  C   UNL     1       2.216   3.138  21.525  0.00  0.00    +0.000 C 
BRANCH  22  23
ATOM     23  O   UNL     1       2.329   4.483  21.471  0.00  0.00    +0.000 OA
ATOM     24  H   UNL     1       2.965   4.854  22.129  0.00  0.00    +0.000 HD
ENDBRANCH  22  23
ENDBRANCH  20  22
ENDBRANCH  19  20
ENDBRANCH  18  19
ENDBRANCH   1  18
TORSDOF 6
ENDMDL
MODEL 6
REMARK VINA RESULT:      -7.7      1.872      2.689
REMARK  Name = 
REMARK  6 active torsions:
REMARK  status: ('A' for Active; 'I' for Inactive)
REMARK    1  A    between atoms: C_2  and  O_3
REMARK    2  A    between atoms: C_2  and  C_4
REMARK    3  A    between atoms: C_4  and  C_5
REMARK    4  A    between atoms: C_5  and  C_6
REMARK    5  A    between atoms: C_6  and  N_7
REMARK    6  A    between atoms: C_9  and  C_10
REMARK                            x       y       z     vdW  Elec       q    Type
REMARK                         _______ _______ _______ _____ _____    ______ ____
ROOT
ATOM      1  N   UNL     1       5.164   5.124  18.703  0.00  0.00    +0.000 N 
ATOM      2  N   UNL     1       4.381   6.257  18.588  0.00  0.00    +0.000 NA
ATOM      3  C   UNL     1       3.153   6.236  19.035  0.00  0.00    +0.000 A 
ATOM      4  C   UNL     1       2.525   4.996  19.582  0.00  0.00    +0.000 A 
ATOM      5  C   UNL     1       1.156   4.860  19.861  0.00  0.00    +0.000 A 
ATOM      6  C   UNL     1       0.650   3.672  20.402  0.00  0.00    +0.000 A 
ATOM      7  C   UNL     1       1.497   2.594  20.634  0.00  0.00    +0.000 A 
ATOM      8  C   UNL     1       2.847   2.700  20.308  0.00  0.00    +0.000 A 
ATOM      9  C   UNL     1       3.353   3.896  19.775  0.00  0.00    +0.000 A 
ATOM     10  C   UNL     1       4.755   3.954  19.339  0.00  0.00    +0.000 A 
ATOM     11  O   UNL     1       5.479   2.976  19.506  0.00  0.00    +0.000 OA
ENDROOT
BRANCH   3  12
ATOM     12  C   UNL     1       2.389   7.520  18.967  0.00  0.00    +0.000 A 
ATOM     13  C   UNL     1       1.757   8.026  20.104  0.00  0.00    +0.000 A 
ATOM     14  C   UNL     1       1.056   9.230  20.032  0.00  0.00    +0.000 A 
ATOM     15  C   UNL     1       1.018   9.899  18.821  0.00  0.00    +0.000 A 
ATOM     16  N   UNL     1       1.587   9.426  17.691  0.00  0.00    +0.000 NA
ATOM     17  C   UNL     1       2.227   8.234  17.783  0.00  0.00    +0.000 A 
ENDBRANCH   3  12
BRANCH   1  18
ATOM     18  C   UNL     1       6.499   5.168  18.107  0.00  0.00    +0.000 C 
BRANCH  18  19
ATOM     19  C   UNL     1       6.488   5.750  16.690  0.00  0.00    +0.000 C 
BRANCH  19  20
ATOM     20  C   UNL     1       5.836   4.876  15.619  0.00  0.00    +0.000 C 
BRANCH  20  22
ATOM     21  O   UNL     1       7.660   5.341  14.119  0.00  0.00    +0.000 OA
ATOM     22  C   UNL     1       6.722   4.625  14.428  0.00  0.00    +0.000 C 
BRANCH  22  23
ATOM     23  O   UNL     1       6.407   3.509  13.735  0.00  0.00    +0.000 OA
ATOM     24  H   UNL     1       5.464   3.475  13.445  0.00  0.00    +0.000 HD
ENDBRANCH  22  23
ENDBRANCH  20  22
ENDBRANCH  19  20
ENDBRANCH  18  19
ENDBRANCH   1  18
TORSDOF 6
ENDMDL
MODEL 7
REMARK VINA RESULT:      -7.7      3.277      5.829
REMARK  Name = 
REMARK  6 active torsions:
REMARK  status: ('A' for Active; 'I' for Inactive)
REMARK    1  A    between atoms: C_2  and  O_3
REMARK    2  A    between atoms: C_2  and  C_4
REMARK    3  A    between atoms: C_4  and  C_5
REMARK    4  A    between atoms: C_5  and  C_6
REMARK    5  A    between atoms: C_6  and  N_7
REMARK    6  A    between atoms: C_9  and  C_10
REMARK                            x       y       z     vdW  Elec       q    Type
REMARK                         _______ _______ _______ _____ _____    ______ ____
ROOT
ATOM      1  N   UNL     1       6.031   4.284  14.754  0.00  0.00    +0.000 N 
ATOM      2  N   UNL     1       4.950   3.729  15.412  0.00  0.00    +0.000 NA
ATOM      3  C   UNL     1       4.789   3.957  16.688  0.00  0.00    +0.000 A 
ATOM      4  C   UNL     1       5.788   4.722  17.493  0.00  0.00    +0.000 A 
ATOM      5  C   UNL     1       5.781   4.800  18.895  0.00  0.00    +0.000 A 
ATOM      6  C   UNL     1       6.737   5.564  19.574  0.00  0.00    +0.000 A 
ATOM      7  C   UNL     1       7.735   6.225  18.866  0.00  0.00    +0.000 A 
ATOM      8  C   UNL     1       7.784   6.107  17.479  0.00  0.00    +0.000 A 
ATOM      9  C   UNL     1       6.817   5.348  16.800  0.00  0.00    +0.000 A 
ATOM     10  C   UNL     1       6.947   5.148  15.350  0.00  0.00    +0.000 A 
ATOM     11  O   UNL     1       7.862   5.700  14.745  0.00  0.00    +0.000 OA
ENDROOT
BRANCH   3  12
ATOM     12  C   UNL     1       3.551   3.407  17.321  0.00  0.00    +0.000 A 
ATOM     13  C   UNL     1       3.577   2.171  17.967  0.00  0.00    +0.000 A 
ATOM     14  C   UNL     1       2.419   1.673  18.565  0.00  0.00    +0.000 A 
ATOM     15  C   UNL     1       1.267   2.437  18.507  0.00  0.00    +0.000 A 
ATOM     16  N   UNL     1       1.191   3.623  17.863  0.00  0.00    +0.000 NA
ATOM     17  C   UNL     1       2.323   4.061  17.258  0.00  0.00    +0.000 A 
ENDBRANCH   3  12
BRANCH   1  18
ATOM     18  C   UNL     1       6.218   3.925  13.349  0.00  0.00    +0.000 C 
BRANCH  18  19
ATOM     19  C   UNL     1       5.121   2.988  12.833  0.00  0.00    +0.000 C 
BRANCH  19  20
ATOM     20  C   UNL     1       5.285   2.503  11.394  0.00  0.00    +0.000 C 
BRANCH  20  22
ATOM     21  O   UNL     1       7.552   1.804  10.989  0.00  0.00    +0.000 OA
ATOM     22  C   UNL     1       6.395   1.499  11.222  0.00  0.00    +0.000 C 
BRANCH  22  23
ATOM     23  O   UNL     1       6.002   0.216  11.377  0.00  0.00    +0.000 OA
ATOM     24  H   UNL     1       6.731  -0.440  11.255  0.00  0.00    +0.000 HD
ENDBRANCH  22  23
ENDBRANCH  20  22
ENDBRANCH  19  20
ENDBRANCH  18  19
ENDBRANCH   1  18
TORSDOF 6
ENDMDL
MODEL 8
REMARK VINA RESULT:      -7.7      2.273      4.421
REMARK  Name = 
REMARK  6 active torsions:
REMARK  status: ('A' for Active; 'I' for Inactive)
REMARK    1  A    between atoms: C_2  and  O_3
REMARK    2  A    between atoms: C_2  and  C_4
REMARK    3  A    between atoms: C_4  and  C_5
REMARK    4  A    between atoms: C_5  and  C_6
REMARK    5  A    between atoms: C_6  and  N_7
REMARK    6  A    between atoms: C_9  and  C_10
REMARK                            x       y       z     vdW  Elec       q    Type
REMARK                         _______ _______ _______ _____ _____    ______ ____
ROOT
ATOM      1  N   UNL     1       2.606   3.825  18.192  0.00  0.00    +0.000 N 
ATOM      2  N   UNL     1       2.174   5.102  18.496  0.00  0.00    +0.000 NA
ATOM      3  C   UNL     1       2.943   6.122  18.220  0.00  0.00    +0.000 A 
ATOM      4  C   UNL     1       4.323   5.955  17.673  0.00  0.00    +0.000 A 
ATOM      5  C   UNL     1       5.266   6.991  17.574  0.00  0.00    +0.000 A 
ATOM      6  C   UNL     1       6.530   6.757  17.020  0.00  0.00    +0.000 A 
ATOM      7  C   UNL     1       6.883   5.482  16.596  0.00  0.00    +0.000 A 
ATOM      8  C   UNL     1       5.975   4.435  16.742  0.00  0.00    +0.000 A 
ATOM      9  C   UNL     1       4.703   4.675  17.289  0.00  0.00    +0.000 A 
ATOM     10  C   UNL     1       3.800   3.542  17.533  0.00  0.00    +0.000 A 
ATOM     11  O   UNL     1       4.145   2.412  17.197  0.00  0.00    +0.000 OA
ENDROOT
BRANCH   3  12
ATOM     12  C   UNL     1       2.382   7.483  18.486  0.00  0.00    +0.000 A 
ATOM     13  C   UNL     1       1.871   7.803  19.744  0.00  0.00    +0.000 A 
ATOM     14  C   UNL     1       1.361   9.078  19.984  0.00  0.00    +0.000 A 
ATOM     15  C   UNL     1       1.387  10.003  18.955  0.00  0.00    +0.000 A 
ATOM     16  N   UNL     1       1.841   9.724  17.714  0.00  0.00    +0.000 NA
ATOM     17  C   UNL     1       2.295   8.463  17.501  0.00  0.00    +0.000 A 
ENDBRANCH   3  12
BRANCH   1  18
ATOM     18  C   UNL     1       1.750   2.713  18.602  0.00  0.00    +0.000 C 
BRANCH  18  19
ATOM     19  C   UNL     1       0.676   3.141  19.608  0.00  0.00    +0.000 C 
BRANCH  19  20
ATOM     20  C   UNL     1       0.946   2.770  21.065  0.00  0.00    +0.000 C 
BRANCH  20  22
ATOM     21  O   UNL     1       3.168   2.473  21.941  0.00  0.00    +0.000 OA
ATOM     22  C   UNL     1       2.290   3.231  21.563  0.00  0.00    +0.000 C 
BRANCH  22  23
ATOM     23  O   UNL     1       2.457   4.571  21.529  0.00  0.00    +0.000 OA
ATOM     24  H   UNL     1       2.643   4.971  22.413  0.00  0.00    +0.000 HD
ENDBRANCH  22  23
ENDBRANCH  20  22
ENDBRANCH  19  20
ENDBRANCH  18  19
ENDBRANCH   1  18
TORSDOF 6
ENDMDL
MODEL 9
REMARK VINA RESULT:      -7.6      2.637      5.987
REMARK  Name = 
REMARK  6 active torsions:
REMARK  status: ('A' for Active; 'I' for Inactive)
REMARK    1  A    between atoms: C_2  and  O_3
REMARK    2  A    between atoms: C_2  and  C_4
REMARK    3  A    between atoms: C_4  and  C_5
REMARK    4  A    between atoms: C_5  and  C_6
REMARK    5  A    between atoms: C_6  and  N_7
REMARK    6  A    between atoms: C_9  and  C_10
REMARK                            x       y       z     vdW  Elec       q    Type
REMARK                         _______ _______ _______ _____ _____    ______ ____
ROOT
ATOM      1  N   UNL     1       3.808   3.817  19.698  0.00  0.00    +0.000 N 
ATOM      2  N   UNL     1       4.570   3.857  18.546  0.00  0.00    +0.000 NA
ATOM      3  C   UNL     1       4.581   4.944  17.821  0.00  0.00    +0.000 A 
ATOM      4  C   UNL     1       3.720   6.122  18.139  0.00  0.00    +0.000 A 
ATOM      5  C   UNL     1       3.523   7.213  17.278  0.00  0.00    +0.000 A 
ATOM      6  C   UNL     1       2.721   8.294  17.664  0.00  0.00    +0.000 A 
ATOM      7  C   UNL     1       2.076   8.282  18.895  0.00  0.00    +0.000 A 
ATOM      8  C   UNL     1       2.220   7.179  19.733  0.00  0.00    +0.000 A 
ATOM      9  C   UNL     1       3.033   6.100  19.347  0.00  0.00    +0.000 A 
ATOM     10  C   UNL     1       3.088   4.900  20.195  0.00  0.00    +0.000 A 
ATOM     11  O   UNL     1       2.473   4.885  21.258  0.00  0.00    +0.000 OA
ENDROOT
BRANCH   3  12
ATOM     12  C   UNL     1       5.497   4.959  16.639  0.00  0.00    +0.000 A 
ATOM     13  C   UNL     1       5.171   4.247  15.484  0.00  0.00    +0.000 A 
ATOM     14  C   UNL     1       6.026   4.277  14.383  0.00  0.00    +0.000 A 
ATOM     15  C   UNL     1       7.183   5.031  14.468  0.00  0.00    +0.000 A 
ATOM     16  N   UNL     1       7.552   5.707  15.579  0.00  0.00    +0.000 NA
ATOM     17  C   UNL     1       6.719   5.626  16.646  0.00  0.00    +0.000 A 
ENDBRANCH   3  12
BRANCH   1  18
ATOM     18  C   UNL     1       3.758   2.549  20.426  0.00  0.00    +0.000 C 
BRANCH  18  19
ATOM     19  C   UNL     1       2.473   1.763  20.143  0.00  0.00    +0.000 C 
BRANCH  19  20
ATOM     20  C   UNL     1       1.909   1.901  18.730  0.00  0.00    +0.000 C 
BRANCH  20  22
ATOM     21  O   UNL     1       0.851   3.725  17.569  0.00  0.00    +0.000 OA
ATOM     22  C   UNL     1       0.943   3.047  18.579  0.00  0.00    +0.000 C 
BRANCH  22  23
ATOM     23  O   UNL     1       0.157   3.248  19.659  0.00  0.00    +0.000 OA
ATOM     24  H   UNL     1      -0.790   3.417  19.434  0.00  0.00    +0.000 HD
ENDBRANCH  22  23
ENDBRANCH  20  22
ENDBRANCH  19  20
ENDBRANCH  18  19
ENDBRANCH   1  18
TORSDOF 6
ENDMDL
