MODEL 1
REMARK VINA RESULT:      -7.7      0.000      0.000
REMARK  Name = 
REMARK  5 active torsions:
REMARK  status: ('A' for Active; 'I' for Inactive)
REMARK    1  A    between atoms: C_1  and  C_2
REMARK    2  A    between atoms: C_5  and  S_6
REMARK    3  A    between atoms: S_6  and  N_9
REMARK    4  A    between atoms: C_13  and  C_14
REMARK    5  A    between atoms: C_14  and  N_15
REMARK                            x       y       z     vdW  Elec       q    Type
REMARK                         _______ _______ _______ _____ _____    ______ ____
ROOT
ATOM      1  N   UNL     1       3.989   4.964  18.156  0.00  0.00    +0.000 NA
ATOM      2  C   UNL     1       2.923   4.005  17.733  0.00  0.00    +0.000 C 
ATOM      3  C   UNL     1       1.539   4.544  18.074  0.00  0.00    +0.000 C 
ATOM      4  C   UNL     1       1.440   4.903  19.552  0.00  0.00    +0.000 C 
ATOM      5  C   UNL     1       2.516   5.920  19.952  0.00  0.00    +0.000 C 
ATOM      6  C   UNL     1       3.903   5.357  19.599  0.00  0.00    +0.000 C 
ENDROOT
BRANCH   1   7
ATOM      7  S   UNL     1       5.581   4.427  17.722  0.00  0.00    +0.000 S 
ATOM      8  O   UNL     1       5.528   3.989  16.344  0.00  0.00    +0.000 OA
ATOM      9  O   UNL     1       6.069   3.558  18.775  0.00  0.00    +0.000 OA
BRANCH   7  14
ATOM     10  C   UNL     1       8.653   9.641  18.180  0.00  0.00    +0.000 C 
ATOM     11  C   UNL     1       7.918   8.340  18.035  0.00  0.00    +0.000 A 
ATOM     12  C   UNL     1       6.814   8.230  17.179  0.00  0.00    +0.000 A 
ATOM     13  C   UNL     1       6.122   7.024  17.073  0.00  0.00    +0.000 A 
ATOM     14  C   UNL     1       6.537   5.920  17.819  0.00  0.00    +0.000 A 
ATOM     15  C   UNL     1       7.636   6.009  18.677  0.00  0.00    +0.000 A 
ATOM     16  C   UNL     1       8.322   7.222  18.782  0.00  0.00    +0.000 A 
ENDBRANCH   7  14
ENDBRANCH   1   7
BRANCH   5  17
ATOM     17  C   UNL     1       2.320   7.317  19.328  0.00  0.00    +0.000 C 
BRANCH  17  18
ATOM     18  N   UNL     1       1.610   8.253  20.178  0.00  0.00    +0.000 N 
ATOM     19  C   UNL     1       1.502   8.190  21.542  0.00  0.00    +0.000 A 
ATOM     20  N   UNL     1       0.717   9.133  22.020  0.00  0.00    +0.000 NA
ATOM     21  C   UNL     1       0.306   9.840  20.917  0.00  0.00    +0.000 A 
ATOM     22  C   UNL     1      -0.542  10.946  20.796  0.00  0.00    +0.000 A 
ATOM     23  C   UNL     1      -0.746  11.453  19.511  0.00  0.00    +0.000 A 
ATOM     24  C   UNL     1      -0.115  10.841  18.431  0.00  0.00    +0.000 A 
ATOM     25  N   UNL     1       0.702   9.759  18.492  0.00  0.00    +0.000 NA
ATOM     26  C   UNL     1       0.865   9.318  19.755  0.00  0.00    +0.000 A 
ENDBRANCH  17  18
ENDBRANCH   5  17
TORSDOF 4
ENDMDL
MODEL 2
REMARK VINA RESULT:      -7.5      0.747      1.211
REMARK  Name = 
REMARK  5 active torsions:
REMARK  status: ('A' for Active; 'I' for Inactive)
REMARK    1  A    between atoms: C_1  and  C_2
REMARK    2  A    between atoms: C_5  and  S_6
REMARK    3  A    between atoms: S_6  and  N_9
REMARK    4  A    between atoms: C_13  and  C_14
REMARK    5  A    between atoms: C_14  and  N_15
REMARK                            x       y       z     vdW  Elec       q    Type
REMARK                         _______ _______ _______ _____ _____    ______ ____
ROOT
ATOM      1  N   UNL     1       3.443   4.541  18.718  0.00  0.00    +0.000 NA
ATOM      2  C   UNL     1       2.391   3.480  18.693  0.00  0.00    +0.000 C 
ATOM      3  C   UNL     1       1.046   4.034  19.150  0.00  0.00    +0.000 C 
ATOM      4  C   UNL     1       1.165   4.699  20.517  0.00  0.00    +0.000 C 
ATOM      5  C   UNL     1       2.220   5.812  20.506  0.00  0.00    +0.000 C 
ATOM      6  C   UNL     1       3.566   5.232  20.041  0.00  0.00    +0.000 C 
ENDROOT
BRANCH   1   7
ATOM      7  S   UNL     1       4.976   3.976  18.134  0.00  0.00    +0.000 S 
ATOM      8  O   UNL     1       4.772   3.488  16.787  0.00  0.00    +0.000 OA
ATOM      9  O   UNL     1       5.572   3.142  19.159  0.00  0.00    +0.000 OA
BRANCH   7  14
ATOM     10  C   UNL     1       8.458   8.935  17.787  0.00  0.00    +0.000 C 
ATOM     11  C   UNL     1       7.577   7.725  17.906  0.00  0.00    +0.000 A 
ATOM     12  C   UNL     1       7.948   6.642  18.715  0.00  0.00    +0.000 A 
ATOM     13  C   UNL     1       7.135   5.512  18.796  0.00  0.00    +0.000 A 
ATOM     14  C   UNL     1       5.943   5.464  18.071  0.00  0.00    +0.000 A 
ATOM     15  C   UNL     1       5.555   6.533  17.261  0.00  0.00    +0.000 A 
ATOM     16  C   UNL     1       6.377   7.660  17.181  0.00  0.00    +0.000 A 
ENDBRANCH   7  14
ENDBRANCH   1   7
BRANCH   5  17
ATOM     17  C   UNL     1       1.829   7.036  19.651  0.00  0.00    +0.000 C 
BRANCH  17  18
ATOM     18  N   UNL     1       1.502   8.219  20.422  0.00  0.00    +0.000 N 
ATOM     19  C   UNL     1       1.604   8.357  21.781  0.00  0.00    +0.000 A 
ATOM     20  N   UNL     1       1.145   9.519  22.197  0.00  0.00    +0.000 NA
ATOM     21  C   UNL     1       0.736  10.163  21.056  0.00  0.00    +0.000 A 
ATOM     22  C   UNL     1       0.158  11.422  20.866  0.00  0.00    +0.000 A 
ATOM     23  C   UNL     1      -0.129  11.800  19.552  0.00  0.00    +0.000 A 
ATOM     24  C   UNL     1       0.160  10.918  18.513  0.00  0.00    +0.000 A 
ATOM     25  N   UNL     1       0.705   9.682  18.644  0.00  0.00    +0.000 NA
ATOM     26  C   UNL     1       0.964   9.376  19.931  0.00  0.00    +0.000 A 
ENDBRANCH  17  18
ENDBRANCH   5  17
TORSDOF 4
ENDMDL
MODEL 3
REMARK VINA RESULT:      -7.1      1.161      1.798
REMARK  Name = 
REMARK  5 active torsions:
REMARK  status: ('A' for Active; 'I' for Inactive)
REMARK    1  A    between atoms: C_1  and  C_2
REMARK    2  A    between atoms: C_5  and  S_6
REMARK    3  A    between atoms: S_6  and  N_9
REMARK    4  A    between atoms: C_13  and  C_14
REMARK    5  A    between atoms: C_14  and  N_15
REMARK                            x       y       z     vdW  Elec       q    Type
REMARK                         _______ _______ _______ _____ _____    ______ ____
ROOT
ATOM      1  N   UNL     1       3.427   4.605  18.816  0.00  0.00    +0.000 NA
ATOM      2  C   UNL     1       2.492   3.629  19.452  0.00  0.00    +0.000 C 
ATOM      3  C   UNL     1       1.171   4.295  19.816  0.00  0.00    +0.000 C 
ATOM      4  C   UNL     1       1.400   5.527  20.685  0.00  0.00    +0.000 C 
ATOM      5  C   UNL     1       2.328   6.533  19.992  0.00  0.00    +0.000 C 
ATOM      6  C   UNL     1       3.653   5.839  19.634  0.00  0.00    +0.000 C 
ENDROOT
BRANCH   1   7
ATOM      7  S   UNL     1       4.920   3.874  18.316  0.00  0.00    +0.000 S 
ATOM      8  O   UNL     1       4.690   3.265  17.023  0.00  0.00    +0.000 OA
ATOM      9  O   UNL     1       5.445   3.111  19.431  0.00  0.00    +0.000 OA
BRANCH   7  14
ATOM     10  C   UNL     1       8.409   8.806  17.743  0.00  0.00    +0.000 C 
ATOM     11  C   UNL     1       7.568   7.567  17.854  0.00  0.00    +0.000 A 
ATOM     12  C   UNL     1       6.420   7.405  17.068  0.00  0.00    +0.000 A 
ATOM     13  C   UNL     1       5.631   6.263  17.200  0.00  0.00    +0.000 A 
ATOM     14  C   UNL     1       5.993   5.274  18.116  0.00  0.00    +0.000 A 
ATOM     15  C   UNL     1       7.135   5.416  18.908  0.00  0.00    +0.000 A 
ATOM     16  C   UNL     1       7.918   6.566  18.774  0.00  0.00    +0.000 A 
ENDBRANCH   7  14
ENDBRANCH   1   7
BRANCH   5  17
ATOM     17  C   UNL     1       1.708   7.201  18.748  0.00  0.00    +0.000 C 
BRANCH  17  18
ATOM     18  N   UNL     1       1.525   8.634  18.872  0.00  0.00    +0.000 N 
ATOM     19  C   UNL     1       1.965   9.588  17.993  0.00  0.00    +0.000 A 
ATOM     20  N   UNL     1       1.726  10.808  18.426  0.00  0.00    +0.000 NA
ATOM     21  C   UNL     1       1.097  10.635  19.634  0.00  0.00    +0.000 A 
ATOM     22  C   UNL     1       0.612  11.563  20.561  0.00  0.00    +0.000 A 
ATOM     23  C   UNL     1      -0.007  11.055  21.706  0.00  0.00    +0.000 A 
ATOM     24  C   UNL     1      -0.102   9.675  21.871  0.00  0.00    +0.000 A 
ATOM     25  N   UNL     1       0.365   8.734  21.011  0.00  0.00    +0.000 NA
ATOM     26  C   UNL     1       0.946   9.283  19.927  0.00  0.00    +0.000 A 
ENDBRANCH  17  18
ENDBRANCH   5  17
TORSDOF 4
ENDMDL
MODEL 4
REMARK VINA RESULT:      -7.0      1.334      1.782
REMARK  Name = 
REMARK  5 active torsions:
REMARK  status: ('A' for Active; 'I' for Inactive)
REMARK    1  A    between atoms: C_1  and  C_2
REMARK    2  A    between atoms: C_5  and  S_6
REMARK    3  A    between atoms: S_6  and  N_9
REMARK    4  A    between atoms: C_13  and  C_14
REMARK    5  A    between atoms: C_14  and  N_15
REMARK                            x       y       z     vdW  Elec       q    Type
REMARK                         _______ _______ _______ _____ _____    ______ ____
ROOT
ATOM      1  N   UNL     1       5.392   4.953  17.359  0.00  0.00    +0.000 NA
ATOM      2  C   UNL     1       4.733   3.701  16.874  0.00  0.00    +0.000 C 
ATOM      3  C   UNL     1       3.233   3.734  17.145  0.00  0.00    +0.000 C 
ATOM      4  C   UNL     1       2.950   4.003  18.619  0.00  0.00    +0.000 C 
ATOM      5  C   UNL     1       3.600   5.313  19.082  0.00  0.00    +0.000 C 
ATOM      6  C   UNL     1       5.110   5.259  18.797  0.00  0.00    +0.000 C 
ENDROOT
BRANCH   1   7
ATOM      7  S   UNL     1       7.090   4.994  17.004  0.00  0.00    +0.000 S 
ATOM      8  O   UNL     1       7.230   5.000  15.564  0.00  0.00    +0.000 OA
ATOM      9  O   UNL     1       7.748   3.998  17.826  0.00  0.00    +0.000 OA
BRANCH   7  14
ATOM     10  C   UNL     1       9.017  10.341  19.132  0.00  0.00    +0.000 C 
ATOM     11  C   UNL     1       8.505   9.023  18.627  0.00  0.00    +0.000 A 
ATOM     12  C   UNL     1       8.741   7.840  19.339  0.00  0.00    +0.000 A 
ATOM     13  C   UNL     1       8.284   6.618  18.847  0.00  0.00    +0.000 A 
ATOM     14  C   UNL     1       7.583   6.577  17.641  0.00  0.00    +0.000 A 
ATOM     15  C   UNL     1       7.335   7.746  16.917  0.00  0.00    +0.000 A 
ATOM     16  C   UNL     1       7.800   8.966  17.414  0.00  0.00    +0.000 A 
ENDBRANCH   7  14
ENDBRANCH   1   7
BRANCH   5  17
ATOM     17  C   UNL     1       2.972   6.577  18.458  0.00  0.00    +0.000 C 
BRANCH  17  18
ATOM     18  N   UNL     1       2.221   7.391  19.393  0.00  0.00    +0.000 N 
ATOM     19  C   UNL     1       1.758   6.999  20.621  0.00  0.00    +0.000 A 
ATOM     20  N   UNL     1       1.031   7.934  21.197  0.00  0.00    +0.000 NA
ATOM     21  C   UNL     1       1.032   8.978  20.306  0.00  0.00    +0.000 A 
ATOM     22  C   UNL     1       0.425  10.237  20.362  0.00  0.00    +0.000 A 
ATOM     23  C   UNL     1       0.640  11.096  19.281  0.00  0.00    +0.000 A 
ATOM     24  C   UNL     1       1.425  10.663  18.215  0.00  0.00    +0.000 A 
ATOM     25  N   UNL     1       2.022   9.449  18.105  0.00  0.00    +0.000 NA
ATOM     26  C   UNL     1       1.784   8.668  19.177  0.00  0.00    +0.000 A 
ENDBRANCH  17  18
ENDBRANCH   5  17
TORSDOF 4
ENDMDL
MODEL 5
REMARK VINA RESULT:      -6.9      1.917      2.599
REMARK  Name = 
REMARK  5 active torsions:
REMARK  status: ('A' for Active; 'I' for Inactive)
REMARK    1  A    between atoms: C_1  and  C_2
REMARK    2  A    between atoms: C_5  and  S_6
REMARK    3  A    between atoms: S_6  and  N_9
REMARK    4  A    between atoms: C_13  and  C_14
REMARK    5  A    between atoms: C_14  and  N_15
REMARK                            x       y       z     vdW  Elec       q    Type
REMARK                         _______ _______ _______ _____ _____    ______ ____
ROOT
ATOM      1  N   UNL     1       3.760   4.784  19.075  0.00  0.00    +0.000 NA
ATOM      2  C   UNL     1       2.791   3.766  18.564  0.00  0.00    +0.000 C 
ATOM      3  C   UNL     1       1.368   4.312  18.576  0.00  0.00    +0.000 C 
ATOM      4  C   UNL     1       0.991   4.825  19.961  0.00  0.00    +0.000 C 
ATOM      5  C   UNL     1       1.974   5.898  20.446  0.00  0.00    +0.000 C 
ATOM      6  C   UNL     1       3.402   5.326  20.424  0.00  0.00    +0.000 C 
ENDROOT
BRANCH   1   7
ATOM      7  S   UNL     1       5.404   4.234  19.010  0.00  0.00    +0.000 S 
ATOM      8  O   UNL     1       5.402   2.828  19.353  0.00  0.00    +0.000 OA
ATOM      9  O   UNL     1       6.229   5.187  19.726  0.00  0.00    +0.000 OA
BRANCH   7  14
ATOM     10  C   UNL     1       6.936   4.638  13.152  0.00  0.00    +0.000 C 
ATOM     11  C   UNL     1       6.545   4.578  14.600  0.00  0.00    +0.000 A 
ATOM     12  C   UNL     1       7.463   4.906  15.607  0.00  0.00    +0.000 A 
ATOM     13  C   UNL     1       7.097   4.820  16.949  0.00  0.00    +0.000 A 
ATOM     14  C   UNL     1       5.808   4.411  17.290  0.00  0.00    +0.000 A 
ATOM     15  C   UNL     1       4.877   4.082  16.302  0.00  0.00    +0.000 A 
ATOM     16  C   UNL     1       5.252   4.166  14.958  0.00  0.00    +0.000 A 
ENDBRANCH   7  14
ENDBRANCH   1   7
BRANCH   5  17
ATOM     17  C   UNL     1       1.902   7.217  19.649  0.00  0.00    +0.000 C 
BRANCH  17  18
ATOM     18  N   UNL     1       1.459   8.358  20.426  0.00  0.00    +0.000 N 
ATOM     19  C   UNL     1       1.565   8.506  21.783  0.00  0.00    +0.000 A 
ATOM     20  N   UNL     1       0.988   9.611  22.207  0.00  0.00    +0.000 NA
ATOM     21  C   UNL     1       0.496  10.208  21.073  0.00  0.00    +0.000 A 
ATOM     22  C   UNL     1      -0.218  11.396  20.893  0.00  0.00    +0.000 A 
ATOM     23  C   UNL     1      -0.563  11.740  19.584  0.00  0.00    +0.000 A 
ATOM     24  C   UNL     1      -0.194  10.895  18.540  0.00  0.00    +0.000 A 
ATOM     25  N   UNL     1       0.484   9.726  18.661  0.00  0.00    +0.000 NA
ATOM     26  C   UNL     1       0.792   9.450  19.944  0.00  0.00    +0.000 A 
ENDBRANCH  17  18
ENDBRANCH   5  17
TORSDOF 4
ENDMDL
MODEL 6
REMARK VINA RESULT:      -6.9      6.661     10.094
REMARK  Name = 
REMARK  5 active torsions:
REMARK  status: ('A' for Active; 'I' for Inactive)
REMARK    1  A    between atoms: C_1  and  C_2
REMARK    2  A    between atoms: C_5  and  S_6
REMARK    3  A    between atoms: S_6  and  N_9
REMARK    4  A    between atoms: C_13  and  C_14
REMARK    5  A    between atoms: C_14  and  N_15
REMARK                            x       y       z     vdW  Elec       q    Type
REMARK                         _______ _______ _______ _____ _____    ______ ____
ROOT
ATOM      1  N   UNL     1      -3.919  13.471  21.571  0.00  0.00    +0.000 NA
ATOM      2  C   UNL     1      -4.047  14.884  22.040  0.00  0.00    +0.000 C 
ATOM      3  C   UNL     1      -2.791  15.330  22.779  0.00  0.00    +0.000 C 
ATOM      4  C   UNL     1      -2.456  14.371  23.916  0.00  0.00    +0.000 C 
ATOM      5  C   UNL     1      -2.287  12.936  23.403  0.00  0.00    +0.000 C 
ATOM      6  C   UNL     1      -3.564  12.508  22.661  0.00  0.00    +0.000 C 
ENDROOT
BRANCH   1   7
ATOM      7  S   UNL     1      -5.297  12.942  20.658  0.00  0.00    +0.000 S 
ATOM      8  O   UNL     1      -6.073  14.118  20.328  0.00  0.00    +0.000 OA
ATOM      9  O   UNL     1      -5.889  11.812  21.346  0.00  0.00    +0.000 OA
BRANCH   7  14
ATOM     10  C   UNL     1      -2.745  10.520  15.713  0.00  0.00    +0.000 C 
ATOM     11  C   UNL     1      -3.367  11.157  16.922  0.00  0.00    +0.000 A 
ATOM     12  C   UNL     1      -2.599  11.451  18.056  0.00  0.00    +0.000 A 
ATOM     13  C   UNL     1      -3.193  12.018  19.182  0.00  0.00    +0.000 A 
ATOM     14  C   UNL     1      -4.560  12.299  19.176  0.00  0.00    +0.000 A 
ATOM     15  C   UNL     1      -5.343  12.016  18.054  0.00  0.00    +0.000 A 
ATOM     16  C   UNL     1      -4.742  11.443  16.931  0.00  0.00    +0.000 A 
ENDBRANCH   7  14
ENDBRANCH   1   7
BRANCH   5  17
ATOM     17  C   UNL     1      -1.044  12.732  22.513  0.00  0.00    +0.000 C 
BRANCH  17  18
ATOM     18  N   UNL     1      -0.674  11.344  22.317  0.00  0.00    +0.000 N 
ATOM     19  C   UNL     1      -0.843  10.324  23.215  0.00  0.00    +0.000 A 
ATOM     20  N   UNL     1      -0.323   9.193  22.785  0.00  0.00    +0.000 NA
ATOM     21  C   UNL     1       0.196   9.494  21.550  0.00  0.00    +0.000 A 
ATOM     22  C   UNL     1       0.875   8.702  20.619  0.00  0.00    +0.000 A 
ATOM     23  C   UNL     1       1.263   9.314  19.425  0.00  0.00    +0.000 A 
ATOM     24  C   UNL     1       0.968  10.661  19.225  0.00  0.00    +0.000 A 
ATOM     25  N   UNL     1       0.327  11.476  20.100  0.00  0.00    +0.000 NA
ATOM     26  C   UNL     1      -0.025  10.830  21.229  0.00  0.00    +0.000 A 
ENDBRANCH  17  18
ENDBRANCH   5  17
TORSDOF 4
ENDMDL
MODEL 7
REMARK VINA RESULT:      -6.9      2.552      3.648
REMARK  Name = 
REMARK  5 active torsions:
REMARK  status: ('A' for Active; 'I' for Inactive)
REMARK    1  A    between atoms: C_1  and  C_2
REMARK    2  A    between atoms: C_5  and  S_6
REMARK    3  A    between atoms: S_6  and  N_9
REMARK    4  A    between atoms: C_13  and  C_14
REMARK    5  A    between atoms: C_14  and  N_15
REMARK                            x       y       z     vdW  Elec       q    Type
REMARK                         _______ _______ _______ _____ _____    ______ ____
ROOT
ATOM      1  N   UNL     1       5.072   5.010  18.323  0.00  0.00    +0.000 NA
ATOM      2  C   UNL     1       4.889   3.607  18.804  0.00  0.00    +0.000 C 
ATOM      3  C   UNL     1       3.469   3.384  19.310  0.00  0.00    +0.000 C 
ATOM      4  C   UNL     1       3.099   4.413  20.372  0.00  0.00    +0.000 C 
ATOM      5  C   UNL     1       3.253   5.843  19.841  0.00  0.00    +0.000 C 
ATOM      6  C   UNL     1       4.691   6.045  19.336  0.00  0.00    +0.000 C 
ENDROOT
BRANCH   1   7
ATOM      7  S   UNL     1       6.654   5.291  17.668  0.00  0.00    +0.000 S 
ATOM      8  O   UNL     1       7.561   4.371  18.319  0.00  0.00    +0.000 OA
ATOM      9  O   UNL     1       6.896   6.720  17.667  0.00  0.00    +0.000 OA
BRANCH   7  14
ATOM     10  C   UNL     1       6.183   3.479  11.895  0.00  0.00    +0.000 C 
ATOM     11  C   UNL     1       6.282   3.964  13.312  0.00  0.00    +0.000 A 
ATOM     12  C   UNL     1       7.411   4.666  13.755  0.00  0.00    +0.000 A 
ATOM     13  C   UNL     1       7.505   5.087  15.080  0.00  0.00    +0.000 A 
ATOM     14  C   UNL     1       6.464   4.813  15.968  0.00  0.00    +0.000 A 
ATOM     15  C   UNL     1       5.328   4.116  15.547  0.00  0.00    +0.000 A 
ATOM     16  C   UNL     1       5.244   3.693  14.218  0.00  0.00    +0.000 A 
ENDBRANCH   7  14
ENDBRANCH   1   7
BRANCH   5  17
ATOM     17  C   UNL     1       2.232   6.217  18.746  0.00  0.00    +0.000 C 
BRANCH  17  18
ATOM     18  N   UNL     1       1.976   7.640  18.633  0.00  0.00    +0.000 N 
ATOM     19  C   UNL     1       2.265   8.434  17.555  0.00  0.00    +0.000 A 
ATOM     20  N   UNL     1       1.998   9.702  17.788  0.00  0.00    +0.000 NA
ATOM     21  C   UNL     1       1.508   9.727  19.071  0.00  0.00    +0.000 A 
ATOM     22  C   UNL     1       1.065  10.788  19.866  0.00  0.00    +0.000 A 
ATOM     23  C   UNL     1       0.599  10.473  21.145  0.00  0.00    +0.000 A 
ATOM     24  C   UNL     1       0.605   9.144  21.562  0.00  0.00    +0.000 A 
ATOM     25  N   UNL     1       1.037   8.082  20.837  0.00  0.00    +0.000 NA
ATOM     26  C   UNL     1       1.470   8.446  19.614  0.00  0.00    +0.000 A 
ENDBRANCH  17  18
ENDBRANCH   5  17
TORSDOF 4
ENDMDL
MODEL 8
REMARK VINA RESULT:      -6.8      4.520      8.624
REMARK  Name = 
REMARK  5 active torsions:
REMARK  status: ('A' for Active; 'I' for Inactive)
REMARK    1  A    between atoms: C_1  and  C_2
REMARK    2  A    between atoms: C_5  and  S_6
REMARK    3  A    between atoms: S_6  and  N_9
REMARK    4  A    between atoms: C_13  and  C_14
REMARK    5  A    between atoms: C_14  and  N_15
REMARK                            x       y       z     vdW  Elec       q    Type
REMARK                         _______ _______ _______ _____ _____    ______ ____
ROOT
ATOM      1  N   UNL     1       0.137  11.030  20.888  0.00  0.00    +0.000 NA
ATOM      2  C   UNL     1      -0.411  11.149  22.274  0.00  0.00    +0.000 C 
ATOM      3  C   UNL     1      -0.081   9.911  23.100  0.00  0.00    +0.000 C 
ATOM      4  C   UNL     1      -0.553   8.643  22.397  0.00  0.00    +0.000 C 
ATOM      5  C   UNL     1       0.057   8.522  20.995  0.00  0.00    +0.000 C 
ATOM      6  C   UNL     1      -0.288   9.781  20.181  0.00  0.00    +0.000 C 
ENDROOT
BRANCH   1   7
ATOM      7  S   UNL     1      -0.150  12.450  19.932  0.00  0.00    +0.000 S 
ATOM      8  O   UNL     1       0.830  12.458  18.868  0.00  0.00    +0.000 OA
ATOM      9  O   UNL     1      -0.304  13.577  20.830  0.00  0.00    +0.000 OA
BRANCH   7  14
ATOM     10  C   UNL     1      -5.669  11.628  17.545  0.00  0.00    +0.000 C 
ATOM     11  C   UNL     1      -4.306  11.793  18.152  0.00  0.00    +0.000 A 
ATOM     12  C   UNL     1      -4.153  12.301  19.449  0.00  0.00    +0.000 A 
ATOM     13  C   UNL     1      -2.880  12.476  19.992  0.00  0.00    +0.000 A 
ATOM     14  C   UNL     1      -1.755  12.135  19.240  0.00  0.00    +0.000 A 
ATOM     15  C   UNL     1      -1.886  11.625  17.946  0.00  0.00    +0.000 A 
ATOM     16  C   UNL     1      -3.164  11.457  17.407  0.00  0.00    +0.000 A 
ENDBRANCH   7  14
ENDBRANCH   1   7
BRANCH   5  17
ATOM     17  C   UNL     1       1.579   8.272  20.995  0.00  0.00    +0.000 C 
BRANCH  17  18
ATOM     18  N   UNL     1       2.038   7.397  19.933  0.00  0.00    +0.000 N 
ATOM     19  C   UNL     1       2.553   7.785  18.726  0.00  0.00    +0.000 A 
ATOM     20  N   UNL     1       2.793   6.759  17.937  0.00  0.00    +0.000 NA
ATOM     21  C   UNL     1       2.425   5.658  18.670  0.00  0.00    +0.000 A 
ATOM     22  C   UNL     1       2.444   4.296  18.358  0.00  0.00    +0.000 A 
ATOM     23  C   UNL     1       2.014   3.410  19.349  0.00  0.00    +0.000 A 
ATOM     24  C   UNL     1       1.586   3.916  20.574  0.00  0.00    +0.000 A 
ATOM     25  N   UNL     1       1.533   5.227  20.921  0.00  0.00    +0.000 NA
ATOM     26  C   UNL     1       1.964   6.031  19.929  0.00  0.00    +0.000 A 
ENDBRANCH  17  18
ENDBRANCH   5  17
TORSDOF 4
ENDMDL
MODEL 9
REMARK VINA RESULT:      -6.8      2.177      3.111
REMARK  Name = 
REMARK  5 active torsions:
REMARK  status: ('A' for Active; 'I' for Inactive)
REMARK    1  A    between atoms: C_1  and  C_2
REMARK    2  A    between atoms: C_5  and  S_6
REMARK    3  A    between atoms: S_6  and  N_9
REMARK    4  A    between atoms: C_13  and  C_14
REMARK    5  A    between atoms: C_14  and  N_15
REMARK                            x       y       z     vdW  Elec       q    Type
REMARK                         _______ _______ _______ _____ _____    ______ ____
ROOT
ATOM      1  N   UNL     1       3.761   4.796  19.144  0.00  0.00    +0.000 NA
ATOM      2  C   UNL     1       2.795   3.706  19.483  0.00  0.00    +0.000 C 
ATOM      3  C   UNL     1       1.364   4.230  19.493  0.00  0.00    +0.000 C 
ATOM      4  C   UNL     1       1.228   5.433  20.419  0.00  0.00    +0.000 C 
ATOM      5  C   UNL     1       2.198   6.553  20.025  0.00  0.00    +0.000 C 
ATOM      6  C   UNL     1       3.635   6.003  20.020  0.00  0.00    +0.000 C 
ENDROOT
BRANCH   1   7
ATOM      7  S   UNL     1       5.399   4.230  19.047  0.00  0.00    +0.000 S 
ATOM      8  O   UNL     1       5.397   2.834  19.428  0.00  0.00    +0.000 OA
ATOM      9  O   UNL     1       6.251   5.196  19.712  0.00  0.00    +0.000 OA
BRANCH   7  14
ATOM     10  C   UNL     1       6.750   4.451  13.134  0.00  0.00    +0.000 C 
ATOM     11  C   UNL     1       6.407   4.437  14.596  0.00  0.00    +0.000 A 
ATOM     12  C   UNL     1       7.382   4.705  15.566  0.00  0.00    +0.000 A 
ATOM     13  C   UNL     1       7.058   4.663  16.921  0.00  0.00    +0.000 A 
ATOM     14  C   UNL     1       5.754   4.357  17.312  0.00  0.00    +0.000 A 
ATOM     15  C   UNL     1       4.766   4.089  16.360  0.00  0.00    +0.000 A 
ATOM     16  C   UNL     1       5.100   4.129  15.004  0.00  0.00    +0.000 A 
ENDBRANCH   7  14
ENDBRANCH   1   7
BRANCH   5  17
ATOM     17  C   UNL     1       1.866   7.222  18.675  0.00  0.00    +0.000 C 
BRANCH  17  18
ATOM     18  N   UNL     1       1.645   8.653  18.759  0.00  0.00    +0.000 N 
ATOM     19  C   UNL     1       2.105   9.598  17.881  0.00  0.00    +0.000 A 
ATOM     20  N   UNL     1       1.818  10.821  18.276  0.00  0.00    +0.000 NA
ATOM     21  C   UNL     1       1.136  10.658  19.456  0.00  0.00    +0.000 A 
ATOM     22  C   UNL     1       0.587  11.593  20.339  0.00  0.00    +0.000 A 
ATOM     23  C   UNL     1      -0.075  11.094  21.464  0.00  0.00    +0.000 A 
ATOM     24  C   UNL     1      -0.147   9.716  21.654  0.00  0.00    +0.000 A 
ATOM     25  N   UNL     1       0.382   8.769  20.838  0.00  0.00    +0.000 NA
ATOM     26  C   UNL     1       1.001   9.309  19.771  0.00  0.00    +0.000 A 
ENDBRANCH  17  18
ENDBRANCH   5  17
TORSDOF 4
ENDMDL
