MODEL 1
REMARK VINA RESULT:      -6.7      0.000      0.000
REMARK  Name = 
REMARK  2 active torsions:
REMARK  status: ('A' for Active; 'I' for Inactive)
REMARK    1  A    between atoms: C_1  and  C_2
REMARK    2  A    between atoms: N_11  and  N_12
REMARK                            x       y       z     vdW  Elec       q    Type
REMARK                         _______ _______ _______ _____ _____    ______ ____
ROOT
ATOM      1  C   UNL     1       7.290   6.097  17.959  0.00  0.00    +0.000 C 
ATOM      2  C   UNL     1       6.843   5.471  16.685  0.00  0.00    +0.000 A 
ATOM      3  N   UNL     1       7.541   5.516  15.564  0.00  0.00    +0.000 NA
ATOM      4  C   UNL     1       6.840   4.787  14.653  0.00  0.00    +0.000 A 
ATOM      5  C   UNL     1       5.699   4.276  15.219  0.00  0.00    +0.000 A 
ATOM      6  N   UNL     1       5.662   4.748  16.519  0.00  0.00    +0.000 N 
ATOM      7  C   UNL     1       4.611   4.559  17.462  0.00  0.00    +0.000 A 
ATOM      8  C   UNL     1       3.517   3.762  17.160  0.00  0.00    +0.000 A 
ATOM      9  C   UNL     1       2.460   3.687  18.072  0.00  0.00    +0.000 A 
ATOM     10  C   UNL     1       2.519   4.396  19.261  0.00  0.00    +0.000 A 
ATOM     11  N   UNL     1       1.435   4.466  20.161  0.00  0.00    +0.000 N 
ATOM     12  N   UNL     1       3.611   5.138  19.534  0.00  0.00    +0.000 NA
ATOM     13  N   UNL     1       4.663   5.216  18.639  0.00  0.00    +0.000 NA
ATOM     14  H   UNL     1       1.758   4.968  20.993  0.00  0.00    +0.000 HD
ENDROOT
BRANCH  11  15
ATOM     15  N   UNL     1       0.568   3.376  20.379  0.00  0.00    +0.000 NA
ATOM     16  H   UNL     1      -0.279   3.424  19.813  0.00  0.00    +0.000 HD
ATOM     17  H   UNL     1       0.236   3.403  21.349  0.00  0.00    +0.000 HD
ENDBRANCH  11  15
TORSDOF 1
ENDMDL
MODEL 2
REMARK VINA RESULT:      -6.6      1.232      5.443
REMARK  Name = 
REMARK  2 active torsions:
REMARK  status: ('A' for Active; 'I' for Inactive)
REMARK    1  A    between atoms: C_1  and  C_2
REMARK    2  A    between atoms: N_11  and  N_12
REMARK                            x       y       z     vdW  Elec       q    Type
REMARK                         _______ _______ _______ _____ _____    ______ ____
ROOT
ATOM      1  C   UNL     1       2.263   6.256  20.017  0.00  0.00    +0.000 C 
ATOM      2  C   UNL     1       1.951   4.858  19.612  0.00  0.00    +0.000 A 
ATOM      3  N   UNL     1       1.005   4.127  20.176  0.00  0.00    +0.000 NA
ATOM      4  C   UNL     1       0.987   2.947  19.499  0.00  0.00    +0.000 A 
ATOM      5  C   UNL     1       1.926   2.949  18.499  0.00  0.00    +0.000 A 
ATOM      6  N   UNL     1       2.590   4.159  18.588  0.00  0.00    +0.000 N 
ATOM      7  C   UNL     1       3.715   4.571  17.816  0.00  0.00    +0.000 A 
ATOM      8  C   UNL     1       4.203   3.777  16.790  0.00  0.00    +0.000 A 
ATOM      9  C   UNL     1       5.370   4.169  16.126  0.00  0.00    +0.000 A 
ATOM     10  C   UNL     1       6.015   5.339  16.491  0.00  0.00    +0.000 A 
ATOM     11  N   UNL     1       7.260   5.723  15.952  0.00  0.00    +0.000 N 
ATOM     12  N   UNL     1       5.495   6.101  17.475  0.00  0.00    +0.000 NA
ATOM     13  N   UNL     1       4.339   5.722  18.135  0.00  0.00    +0.000 NA
ATOM     14  H   UNL     1       7.477   6.657  16.311  0.00  0.00    +0.000 HD
ENDROOT
BRANCH  11  15
ATOM     15  N   UNL     1       7.610   5.467  14.610  0.00  0.00    +0.000 NA
ATOM     16  H   UNL     1       8.512   5.001  14.518  0.00  0.00    +0.000 HD
ATOM     17  H   UNL     1       7.724   6.360  14.119  0.00  0.00    +0.000 HD
ENDBRANCH  11  15
TORSDOF 1
ENDMDL
MODEL 3
REMARK VINA RESULT:      -6.3      1.977      5.349
REMARK  Name = 
REMARK  2 active torsions:
REMARK  status: ('A' for Active; 'I' for Inactive)
REMARK    1  A    between atoms: C_1  and  C_2
REMARK    2  A    between atoms: N_11  and  N_12
REMARK                            x       y       z     vdW  Elec       q    Type
REMARK                         _______ _______ _______ _____ _____    ______ ____
ROOT
ATOM      1  C   UNL     1       4.129   2.101  20.515  0.00  0.00    +0.000 C 
ATOM      2  C   UNL     1       3.031   2.556  19.619  0.00  0.00    +0.000 A 
ATOM      3  N   UNL     1       1.853   1.961  19.545  0.00  0.00    +0.000 NA
ATOM      4  C   UNL     1       1.112   2.698  18.672  0.00  0.00    +0.000 A 
ATOM      5  C   UNL     1       1.836   3.767  18.208  0.00  0.00    +0.000 A 
ATOM      6  N   UNL     1       3.094   3.664  18.773  0.00  0.00    +0.000 N 
ATOM      7  C   UNL     1       4.218   4.498  18.506  0.00  0.00    +0.000 A 
ATOM      8  C   UNL     1       4.104   5.601  17.674  0.00  0.00    +0.000 A 
ATOM      9  C   UNL     1       5.253   6.331  17.355  0.00  0.00    +0.000 A 
ATOM     10  C   UNL     1       6.480   5.954  17.875  0.00  0.00    +0.000 A 
ATOM     11  N   UNL     1       7.691   6.568  17.492  0.00  0.00    +0.000 N 
ATOM     12  N   UNL     1       6.548   4.893  18.704  0.00  0.00    +0.000 NA
ATOM     13  N   UNL     1       5.416   4.166  19.027  0.00  0.00    +0.000 NA
ATOM     14  H   UNL     1       8.434   6.176  18.078  0.00  0.00    +0.000 HD
ENDROOT
BRANCH  11  15
ATOM     15  N   UNL     1       7.777   7.945  17.201  0.00  0.00    +0.000 NA
ATOM     16  H   UNL     1       8.406   8.444  17.830  0.00  0.00    +0.000 HD
ATOM     17  H   UNL     1       6.859   8.376  17.352  0.00  0.00    +0.000 HD
ENDBRANCH  11  15
TORSDOF 1
ENDMDL
MODEL 4
REMARK VINA RESULT:      -6.3      1.801      5.539
REMARK  Name = 
REMARK  2 active torsions:
REMARK  status: ('A' for Active; 'I' for Inactive)
REMARK    1  A    between atoms: C_1  and  C_2
REMARK    2  A    between atoms: N_11  and  N_12
REMARK                            x       y       z     vdW  Elec       q    Type
REMARK                         _______ _______ _______ _____ _____    ______ ____
ROOT
ATOM      1  C   UNL     1       4.840   5.460  19.461  0.00  0.00    +0.000 C 
ATOM      2  C   UNL     1       4.297   4.173  18.947  0.00  0.00    +0.000 A 
ATOM      3  N   UNL     1       3.522   3.370  19.655  0.00  0.00    +0.000 NA
ATOM      4  C   UNL     1       3.189   2.342  18.828  0.00  0.00    +0.000 A 
ATOM      5  C   UNL     1       3.755   2.514  17.590  0.00  0.00    +0.000 A 
ATOM      6  N   UNL     1       4.513   3.669  17.664  0.00  0.00    +0.000 N 
ATOM      7  C   UNL     1       5.362   4.195  16.648  0.00  0.00    +0.000 A 
ATOM      8  C   UNL     1       5.427   3.601  15.397  0.00  0.00    +0.000 A 
ATOM      9  C   UNL     1       6.349   4.086  14.464  0.00  0.00    +0.000 A 
ATOM     10  C   UNL     1       7.174   5.149  14.792  0.00  0.00    +0.000 A 
ATOM     11  N   UNL     1       8.209   5.600  13.947  0.00  0.00    +0.000 N 
ATOM     12  N   UNL     1       7.062   5.720  16.009  0.00  0.00    +0.000 NA
ATOM     13  N   UNL     1       6.151   5.249  16.937  0.00  0.00    +0.000 NA
ATOM     14  H   UNL     1       8.607   6.443  14.371  0.00  0.00    +0.000 HD
ENDROOT
BRANCH  11  15
ATOM     15  N   UNL     1       8.088   5.598  12.542  0.00  0.00    +0.000 NA
ATOM     16  H   UNL     1       7.972   6.532  12.153  0.00  0.00    +0.000 HD
ATOM     17  H   UNL     1       7.232   5.097  12.282  0.00  0.00    +0.000 HD
ENDBRANCH  11  15
TORSDOF 1
ENDMDL
MODEL 5
REMARK VINA RESULT:      -6.2      1.344      2.201
REMARK  Name = 
REMARK  2 active torsions:
REMARK  status: ('A' for Active; 'I' for Inactive)
REMARK    1  A    between atoms: C_1  and  C_2
REMARK    2  A    between atoms: N_11  and  N_12
REMARK                            x       y       z     vdW  Elec       q    Type
REMARK                         _______ _______ _______ _____ _____    ______ ____
ROOT
ATOM      1  C   UNL     1       5.920   3.937  15.376  0.00  0.00    +0.000 C 
ATOM      2  C   UNL     1       6.359   5.034  16.281  0.00  0.00    +0.000 A 
ATOM      3  N   UNL     1       7.388   5.823  16.028  0.00  0.00    +0.000 NA
ATOM      4  C   UNL     1       7.431   6.725  17.047  0.00  0.00    +0.000 A 
ATOM      5  C   UNL     1       6.412   6.497  17.937  0.00  0.00    +0.000 A 
ATOM      6  N   UNL     1       5.738   5.379  17.482  0.00  0.00    +0.000 N 
ATOM      7  C   UNL     1       4.663   4.709  18.135  0.00  0.00    +0.000 A 
ATOM      8  C   UNL     1       4.118   5.213  19.306  0.00  0.00    +0.000 A 
ATOM      9  C   UNL     1       3.136   4.471  19.971  0.00  0.00    +0.000 A 
ATOM     10  C   UNL     1       2.716   3.257  19.453  0.00  0.00    +0.000 A 
ATOM     11  N   UNL     1       1.828   2.403  20.139  0.00  0.00    +0.000 N 
ATOM     12  N   UNL     1       3.249   2.812  18.296  0.00  0.00    +0.000 NA
ATOM     13  N   UNL     1       4.218   3.541  17.631  0.00  0.00    +0.000 NA
ATOM     14  H   UNL     1       1.607   1.623  19.513  0.00  0.00    +0.000 HD
ENDROOT
BRANCH  11  15
ATOM     15  N   UNL     1       0.769   2.896  20.929  0.00  0.00    +0.000 NA
ATOM     16  H   UNL     1       0.828   3.902  21.086  0.00  0.00    +0.000 HD
ATOM     17  H   UNL     1       0.830   2.481  21.864  0.00  0.00    +0.000 HD
ENDBRANCH  11  15
TORSDOF 1
ENDMDL
MODEL 6
REMARK VINA RESULT:      -6.2      2.120      2.557
REMARK  Name = 
REMARK  2 active torsions:
REMARK  status: ('A' for Active; 'I' for Inactive)
REMARK    1  A    between atoms: C_1  and  C_2
REMARK    2  A    between atoms: N_11  and  N_12
REMARK                            x       y       z     vdW  Elec       q    Type
REMARK                         _______ _______ _______ _____ _____    ______ ____
ROOT
ATOM      1  C   UNL     1       8.279   5.387  19.782  0.00  0.00    +0.000 C 
ATOM      2  C   UNL     1       7.711   6.320  18.772  0.00  0.00    +0.000 A 
ATOM      3  N   UNL     1       8.299   7.445  18.403  0.00  0.00    +0.000 NA
ATOM      4  C   UNL     1       7.512   7.981  17.431  0.00  0.00    +0.000 A 
ATOM      5  C   UNL     1       6.429   7.175  17.188  0.00  0.00    +0.000 A 
ATOM      6  N   UNL     1       6.517   6.121  18.078  0.00  0.00    +0.000 N 
ATOM      7  C   UNL     1       5.560   5.081  18.264  0.00  0.00    +0.000 A 
ATOM      8  C   UNL     1       4.441   4.991  17.451  0.00  0.00    +0.000 A 
ATOM      9  C   UNL     1       3.475   4.020  17.732  0.00  0.00    +0.000 A 
ATOM     10  C   UNL     1       3.649   3.160  18.804  0.00  0.00    +0.000 A 
ATOM     11  N   UNL     1       2.656   2.248  19.217  0.00  0.00    +0.000 N 
ATOM     12  N   UNL     1       4.765   3.259  19.556  0.00  0.00    +0.000 NA
ATOM     13  N   UNL     1       5.726   4.215  19.283  0.00  0.00    +0.000 NA
ATOM     14  H   UNL     1       3.059   1.672  19.964  0.00  0.00    +0.000 HD
ENDROOT
BRANCH  11  15
ATOM     15  N   UNL     1       1.810   1.590  18.301  0.00  0.00    +0.000 NA
ATOM     16  H   UNL     1       1.034   2.172  17.989  0.00  0.00    +0.000 HD
ATOM     17  H   UNL     1       1.368   0.792  18.769  0.00  0.00    +0.000 HD
ENDBRANCH  11  15
TORSDOF 1
ENDMDL
MODEL 7
REMARK VINA RESULT:      -6.0      1.346      1.374
REMARK  Name = 
REMARK  2 active torsions:
REMARK  status: ('A' for Active; 'I' for Inactive)
REMARK    1  A    between atoms: C_1  and  C_2
REMARK    2  A    between atoms: N_11  and  N_12
REMARK                            x       y       z     vdW  Elec       q    Type
REMARK                         _______ _______ _______ _____ _____    ______ ____
ROOT
ATOM      1  C   UNL     1       5.358   7.088  17.056  0.00  0.00    +0.000 C 
ATOM      2  C   UNL     1       5.547   5.790  16.351  0.00  0.00    +0.000 A 
ATOM      3  N   UNL     1       6.163   5.672  15.188  0.00  0.00    +0.000 NA
ATOM      4  C   UNL     1       6.187   4.341  14.907  0.00  0.00    +0.000 A 
ATOM      5  C   UNL     1       5.587   3.625  15.912  0.00  0.00    +0.000 A 
ATOM      6  N   UNL     1       5.126   4.550  16.831  0.00  0.00    +0.000 N 
ATOM      7  C   UNL     1       4.351   4.279  17.995  0.00  0.00    +0.000 A 
ATOM      8  C   UNL     1       4.058   2.976  18.367  0.00  0.00    +0.000 A 
ATOM      9  C   UNL     1       3.208   2.757  19.456  0.00  0.00    +0.000 A 
ATOM     10  C   UNL     1       2.680   3.833  20.150  0.00  0.00    +0.000 A 
ATOM     11  N   UNL     1       1.719   3.683  21.172  0.00  0.00    +0.000 N 
ATOM     12  N   UNL     1       3.010   5.086  19.777  0.00  0.00    +0.000 NA
ATOM     13  N   UNL     1       3.852   5.312  18.703  0.00  0.00    +0.000 NA
ATOM     14  H   UNL     1       1.560   4.607  21.583  0.00  0.00    +0.000 HD
ENDROOT
BRANCH  11  15
ATOM     15  N   UNL     1       1.733   2.590  22.063  0.00  0.00    +0.000 NA
ATOM     16  H   UNL     1       1.068   2.695  22.828  0.00  0.00    +0.000 HD
ATOM     17  H   UNL     1       2.650   2.543  22.518  0.00  0.00    +0.000 HD
ENDBRANCH  11  15
TORSDOF 1
ENDMDL
MODEL 8
REMARK VINA RESULT:      -6.0      1.282      5.679
REMARK  Name = 
REMARK  2 active torsions:
REMARK  status: ('A' for Active; 'I' for Inactive)
REMARK    1  A    between atoms: C_1  and  C_2
REMARK    2  A    between atoms: N_11  and  N_12
REMARK                            x       y       z     vdW  Elec       q    Type
REMARK                         _______ _______ _______ _____ _____    ______ ____
ROOT
ATOM      1  C   UNL     1       2.788   2.244  18.974  0.00  0.00    +0.000 C 
ATOM      2  C   UNL     1       2.575   3.660  19.379  0.00  0.00    +0.000 A 
ATOM      3  N   UNL     1       1.694   4.036  20.291  0.00  0.00    +0.000 NA
ATOM      4  C   UNL     1       1.840   5.383  20.423  0.00  0.00    +0.000 A 
ATOM      5  C   UNL     1       2.827   5.846  19.591  0.00  0.00    +0.000 A 
ATOM      6  N   UNL     1       3.281   4.753  18.876  0.00  0.00    +0.000 N 
ATOM      7  C   UNL     1       4.238   4.765  17.820  0.00  0.00    +0.000 A 
ATOM      8  C   UNL     1       4.897   5.933  17.470  0.00  0.00    +0.000 A 
ATOM      9  C   UNL     1       5.751   5.924  16.362  0.00  0.00    +0.000 A 
ATOM     10  C   UNL     1       5.935   4.758  15.639  0.00  0.00    +0.000 A 
ATOM     11  N   UNL     1       6.678   4.714  14.441  0.00  0.00    +0.000 N 
ATOM     12  N   UNL     1       5.300   3.633  16.027  0.00  0.00    +0.000 NA
ATOM     13  N   UNL     1       4.456   3.632  17.123  0.00  0.00    +0.000 NA
ATOM     14  H   UNL     1       6.740   3.732  14.154  0.00  0.00    +0.000 HD
ENDROOT
BRANCH  11  15
ATOM     15  N   UNL     1       7.829   5.504  14.240  0.00  0.00    +0.000 NA
ATOM     16  H   UNL     1       8.671   5.084  14.632  0.00  0.00    +0.000 HD
ATOM     17  H   UNL     1       7.718   6.389  14.745  0.00  0.00    +0.000 HD
ENDBRANCH  11  15
TORSDOF 1
ENDMDL
MODEL 9
REMARK VINA RESULT:      -5.9      1.638      5.464
REMARK  Name = 
REMARK  2 active torsions:
REMARK  status: ('A' for Active; 'I' for Inactive)
REMARK    1  A    between atoms: C_1  and  C_2
REMARK    2  A    between atoms: N_11  and  N_12
REMARK                            x       y       z     vdW  Elec       q    Type
REMARK                         _______ _______ _______ _____ _____    ______ ____
ROOT
ATOM      1  C   UNL     1       2.543   7.653  18.741  0.00  0.00    +0.000 C 
ATOM      2  C   UNL     1       2.583   6.270  19.288  0.00  0.00    +0.000 A 
ATOM      3  N   UNL     1       1.968   5.905  20.399  0.00  0.00    +0.000 NA
ATOM      4  C   UNL     1       2.188   4.568  20.530  0.00  0.00    +0.000 A 
ATOM      5  C   UNL     1       2.940   4.098  19.484  0.00  0.00    +0.000 A 
ATOM      6  N   UNL     1       3.243   5.193  18.696  0.00  0.00    +0.000 N 
ATOM      7  C   UNL     1       4.089   5.208  17.549  0.00  0.00    +0.000 A 
ATOM      8  C   UNL     1       4.633   4.034  17.051  0.00  0.00    +0.000 A 
ATOM      9  C   UNL     1       5.538   4.104  15.987  0.00  0.00    +0.000 A 
ATOM     10  C   UNL     1       5.873   5.333  15.443  0.00  0.00    +0.000 A 
ATOM     11  N   UNL     1       6.874   5.483  14.460  0.00  0.00    +0.000 N 
ATOM     12  N   UNL     1       5.302   6.451  15.935  0.00  0.00    +0.000 NA
ATOM     13  N   UNL     1       4.403   6.391  16.984  0.00  0.00    +0.000 NA
ATOM     14  H   UNL     1       6.867   6.463  14.162  0.00  0.00    +0.000 HD
ENDROOT
BRANCH  11  15
ATOM     15  N   UNL     1       7.091   4.519  13.454  0.00  0.00    +0.000 NA
ATOM     16  H   UNL     1       6.690   3.611  13.683  0.00  0.00    +0.000 HD
ATOM     17  H   UNL     1       8.098   4.348  13.369  0.00  0.00    +0.000 HD
ENDBRANCH  11  15
TORSDOF 1
ENDMDL
