MODEL 1
REMARK VINA RESULT:      -8.2      0.000      0.000
REMARK  Name = 
REMARK  11 active torsions:
REMARK  status: ('A' for Active; 'I' for Inactive)
REMARK    1  A    between atoms: C_1  and  C_2
REMARK    2  A    between atoms: C_2  and  C_3
REMARK    3  A    between atoms: C_6  and  C_7
REMARK    4  A    between atoms: C_9  and  C_10
REMARK    5  A    between atoms: N_11  and  C_12
REMARK    6  A    between atoms: C_12  and  C_13
REMARK    7  A    between atoms: N_15  and  C_16
REMARK    8  A    between atoms: C_16  and  C_17
REMARK    9  A    between atoms: C_20  and  O_21
REMARK   10  A    between atoms: O_21  and  C_22
REMARK   11  A    between atoms: C_25  and  C_26
REMARK                            x       y       z     vdW  Elec       q    Type
REMARK                         _______ _______ _______ _____ _____    ______ ____
ROOT
ATOM      1  C   UNL     1       4.249   4.351  17.376  0.00  0.00    +0.000 A 
ATOM      2  C   UNL     1       5.091   3.820  16.378  0.00  0.00    +0.000 A 
ATOM      3  C   UNL     1       6.037   4.780  16.072  0.00  0.00    +0.000 A 
ATOM      4  C   UNL     1       7.080   4.725  15.010  0.00  0.00    +0.000 C 
ATOM      5  N   UNL     1       5.822   5.871  16.906  0.00  0.00    +0.000 N 
ATOM      6  C   UNL     1       4.740   5.599  17.731  0.00  0.00    +0.000 A 
ATOM      7  C   UNL     1       4.204   6.523  18.773  0.00  0.00    +0.000 C 
ENDROOT
BRANCH   1  11
ATOM      8  C   UNL     1       1.551   2.973  19.288  0.00  0.00    +0.000 A 
ATOM      9  N   UNL     1       0.994   2.924  18.098  0.00  0.00    +0.000 NA
ATOM     10  N   UNL     1       1.939   3.416  17.215  0.00  0.00    +0.000 NA
ATOM     11  C   UNL     1       3.014   3.718  17.925  0.00  0.00    +0.000 A 
ATOM     12  O   UNL     1       2.831   3.439  19.259  0.00  0.00    +0.000 OA
BRANCH   8  14
ATOM     13  C   UNL     1       1.990   2.982  21.718  0.00  0.00    +0.000 C 
ATOM     14  C   UNL     1       0.984   2.671  20.620  0.00  0.00    +0.000 C 
ENDBRANCH   8  14
ENDBRANCH   1  11
BRANCH   5  15
ATOM     15  C   UNL     1       6.471   7.176  16.740  0.00  0.00    +0.000 C 
BRANCH  15  16
ATOM     16  C   UNL     1       7.553   7.510  17.746  0.00  0.00    +0.000 C 
ATOM     17  O   UNL     1       8.015   6.657  18.503  0.00  0.00    +0.000 OA
ATOM     18  N   UNL     1       7.917   8.837  17.825  0.00  0.00    +0.000 N 
ATOM     19  H   UNL     1       7.544   9.512  17.170  0.00  0.00    +0.000 HD
BRANCH  18  20
ATOM     20  C   UNL     1       8.903   9.290  18.790  0.00  0.00    +0.000 C 
BRANCH  20  21
ATOM     21  C   UNL     1       9.300  10.741  18.660  0.00  0.00    +0.000 A 
ATOM     22  C   UNL     1       8.684  11.638  17.779  0.00  0.00    +0.000 A 
ATOM     23  C   UNL     1       9.120  12.967  17.698  0.00  0.00    +0.000 A 
ATOM     24  C   UNL     1      10.164  13.429  18.498  0.00  0.00    +0.000 A 
ATOM     25  C   UNL     1      10.794  12.542  19.370  0.00  0.00    +0.000 A 
ATOM     26  C   UNL     1      10.367  11.210  19.445  0.00  0.00    +0.000 A 
BRANCH  24  27
ATOM     27  O   UNL     1      10.506  14.738  18.314  0.00  0.00    +0.000 OA
ATOM     28  C   UNL     1      11.118  15.050  17.068  0.00  0.00    +0.000 C 
ENDBRANCH  24  27
ENDBRANCH  20  21
ENDBRANCH  18  20
ENDBRANCH  15  16
ENDBRANCH   5  15
TORSDOF 7
ENDMDL
MODEL 2
REMARK VINA RESULT:      -8.0      0.573      1.084
REMARK  Name = 
REMARK  11 active torsions:
REMARK  status: ('A' for Active; 'I' for Inactive)
REMARK    1  A    between atoms: C_1  and  C_2
REMARK    2  A    between atoms: C_2  and  C_3
REMARK    3  A    between atoms: C_6  and  C_7
REMARK    4  A    between atoms: C_9  and  C_10
REMARK    5  A    between atoms: N_11  and  C_12
REMARK    6  A    between atoms: C_12  and  C_13
REMARK    7  A    between atoms: N_15  and  C_16
REMARK    8  A    between atoms: C_16  and  C_17
REMARK    9  A    between atoms: C_20  and  O_21
REMARK   10  A    between atoms: O_21  and  C_22
REMARK   11  A    between atoms: C_25  and  C_26
REMARK                            x       y       z     vdW  Elec       q    Type
REMARK                         _______ _______ _______ _____ _____    ______ ____
ROOT
ATOM      1  C   UNL     1       4.254   4.365  17.365  0.00  0.00    +0.000 A 
ATOM      2  C   UNL     1       5.027   3.876  16.293  0.00  0.00    +0.000 A 
ATOM      3  C   UNL     1       5.981   4.830  15.993  0.00  0.00    +0.000 A 
ATOM      4  C   UNL     1       6.963   4.816  14.873  0.00  0.00    +0.000 C 
ATOM      5  N   UNL     1       5.840   5.874  16.901  0.00  0.00    +0.000 N 
ATOM      6  C   UNL     1       4.797   5.577  17.767  0.00  0.00    +0.000 A 
ATOM      7  C   UNL     1       4.342   6.448  18.890  0.00  0.00    +0.000 C 
ENDROOT
BRANCH   1  11
ATOM      8  C   UNL     1       1.632   2.924  19.336  0.00  0.00    +0.000 A 
ATOM      9  N   UNL     1       1.002   2.984  18.184  0.00  0.00    +0.000 NA
ATOM     10  N   UNL     1       1.908   3.514  17.282  0.00  0.00    +0.000 NA
ATOM     11  C   UNL     1       3.034   3.728  17.943  0.00  0.00    +0.000 A 
ATOM     12  O   UNL     1       2.924   3.353  19.261  0.00  0.00    +0.000 OA
BRANCH   8  14
ATOM     13  C   UNL     1       2.002   3.150  21.768  0.00  0.00    +0.000 C 
ATOM     14  C   UNL     1       1.138   2.538  20.675  0.00  0.00    +0.000 C 
ENDBRANCH   8  14
ENDBRANCH   1  11
BRANCH   5  15
ATOM     15  C   UNL     1       6.514   7.170  16.778  0.00  0.00    +0.000 C 
BRANCH  15  16
ATOM     16  C   UNL     1       7.586   7.460  17.808  0.00  0.00    +0.000 C 
ATOM     17  O   UNL     1       8.023   6.580  18.548  0.00  0.00    +0.000 OA
ATOM     18  N   UNL     1       7.968   8.779  17.929  0.00  0.00    +0.000 N 
ATOM     19  H   UNL     1       7.615   9.477  17.286  0.00  0.00    +0.000 HD
BRANCH  18  20
ATOM     20  C   UNL     1       8.946   9.190  18.919  0.00  0.00    +0.000 C 
BRANCH  20  21
ATOM     21  C   UNL     1       9.294  10.660  18.899  0.00  0.00    +0.000 A 
ATOM     22  C   UNL     1      10.022  11.298  19.911  0.00  0.00    +0.000 A 
ATOM     23  C   UNL     1      10.291  12.670  19.837  0.00  0.00    +0.000 A 
ATOM     24  C   UNL     1       9.852  13.428  18.751  0.00  0.00    +0.000 A 
ATOM     25  C   UNL     1       9.115  12.807  17.743  0.00  0.00    +0.000 A 
ATOM     26  C   UNL     1       8.836  11.436  17.822  0.00  0.00    +0.000 A 
BRANCH  24  27
ATOM     27  O   UNL     1      10.163  14.757  18.802  0.00  0.00    +0.000 OA
ATOM     28  C   UNL     1      11.032  15.149  19.859  0.00  0.00    +0.000 C 
ENDBRANCH  24  27
ENDBRANCH  20  21
ENDBRANCH  18  20
ENDBRANCH  15  16
ENDBRANCH   5  15
TORSDOF 7
ENDMDL
MODEL 3
REMARK VINA RESULT:      -7.6      5.111      7.497
REMARK  Name = 
REMARK  11 active torsions:
REMARK  status: ('A' for Active; 'I' for Inactive)
REMARK    1  A    between atoms: C_1  and  C_2
REMARK    2  A    between atoms: C_2  and  C_3
REMARK    3  A    between atoms: C_6  and  C_7
REMARK    4  A    between atoms: C_9  and  C_10
REMARK    5  A    between atoms: N_11  and  C_12
REMARK    6  A    between atoms: C_12  and  C_13
REMARK    7  A    between atoms: N_15  and  C_16
REMARK    8  A    between atoms: C_16  and  C_17
REMARK    9  A    between atoms: C_20  and  O_21
REMARK   10  A    between atoms: O_21  and  C_22
REMARK   11  A    between atoms: C_25  and  C_26
REMARK                            x       y       z     vdW  Elec       q    Type
REMARK                         _______ _______ _______ _____ _____    ______ ____
ROOT
ATOM      1  C   UNL     1       6.545   4.530  16.365  0.00  0.00    +0.000 A 
ATOM      2  C   UNL     1       7.520   5.069  17.228  0.00  0.00    +0.000 A 
ATOM      3  C   UNL     1       6.963   5.153  18.491  0.00  0.00    +0.000 A 
ATOM      4  C   UNL     1       7.566   5.751  19.714  0.00  0.00    +0.000 C 
ATOM      5  N   UNL     1       5.680   4.623  18.426  0.00  0.00    +0.000 N 
ATOM      6  C   UNL     1       5.430   4.210  17.125  0.00  0.00    +0.000 A 
ATOM      7  C   UNL     1       4.162   3.579  16.656  0.00  0.00    +0.000 C 
ENDROOT
BRANCH   1  11
ATOM      8  C   UNL     1       6.263   3.789  12.871  0.00  0.00    +0.000 A 
ATOM      9  N   UNL     1       7.219   4.690  12.805  0.00  0.00    +0.000 NA
ATOM     10  N   UNL     1       7.469   5.076  14.111  0.00  0.00    +0.000 NA
ATOM     11  C   UNL     1       6.659   4.374  14.885  0.00  0.00    +0.000 A 
ATOM     12  O   UNL     1       5.874   3.518  14.149  0.00  0.00    +0.000 OA
BRANCH   8  14
ATOM     13  C   UNL     1       6.204   1.789  11.423  0.00  0.00    +0.000 C 
ATOM     14  C   UNL     1       5.525   3.100  11.791  0.00  0.00    +0.000 C 
ENDBRANCH   8  14
ENDBRANCH   1  11
BRANCH   5  15
ATOM     15  C   UNL     1       4.687   4.735  19.499  0.00  0.00    +0.000 C 
BRANCH  15  16
ATOM     16  C   UNL     1       3.383   5.410  19.129  0.00  0.00    +0.000 C 
ATOM     17  O   UNL     1       2.314   4.803  19.155  0.00  0.00    +0.000 OA
ATOM     18  N   UNL     1       3.482   6.707  18.673  0.00  0.00    +0.000 N 
ATOM     19  H   UNL     1       4.370   7.193  18.691  0.00  0.00    +0.000 HD
BRANCH  18  20
ATOM     20  C   UNL     1       2.308   7.441  18.235  0.00  0.00    +0.000 C 
BRANCH  20  21
ATOM     21  C   UNL     1       1.734   8.393  19.257  0.00  0.00    +0.000 A 
ATOM     22  C   UNL     1       1.315   9.695  18.954  0.00  0.00    +0.000 A 
ATOM     23  C   UNL     1       0.811  10.531  19.958  0.00  0.00    +0.000 A 
ATOM     24  C   UNL     1       0.703  10.085  21.275  0.00  0.00    +0.000 A 
ATOM     25  C   UNL     1       1.129   8.796  21.592  0.00  0.00    +0.000 A 
ATOM     26  C   UNL     1       1.644   7.962  20.590  0.00  0.00    +0.000 A 
BRANCH  24  27
ATOM     27  O   UNL     1       0.212  10.999  22.163  0.00  0.00    +0.000 OA
ATOM     28  C   UNL     1      -0.853  10.547  22.992  0.00  0.00    +0.000 C 
ENDBRANCH  24  27
ENDBRANCH  20  21
ENDBRANCH  18  20
ENDBRANCH  15  16
ENDBRANCH   5  15
TORSDOF 7
ENDMDL
MODEL 4
REMARK VINA RESULT:      -7.5      1.247      1.600
REMARK  Name = 
REMARK  11 active torsions:
REMARK  status: ('A' for Active; 'I' for Inactive)
REMARK    1  A    between atoms: C_1  and  C_2
REMARK    2  A    between atoms: C_2  and  C_3
REMARK    3  A    between atoms: C_6  and  C_7
REMARK    4  A    between atoms: C_9  and  C_10
REMARK    5  A    between atoms: N_11  and  C_12
REMARK    6  A    between atoms: C_12  and  C_13
REMARK    7  A    between atoms: N_15  and  C_16
REMARK    8  A    between atoms: C_16  and  C_17
REMARK    9  A    between atoms: C_20  and  O_21
REMARK   10  A    between atoms: O_21  and  C_22
REMARK   11  A    between atoms: C_25  and  C_26
REMARK                            x       y       z     vdW  Elec       q    Type
REMARK                         _______ _______ _______ _____ _____    ______ ____
ROOT
ATOM      1  C   UNL     1       4.553   4.012  17.448  0.00  0.00    +0.000 A 
ATOM      2  C   UNL     1       5.113   3.850  16.165  0.00  0.00    +0.000 A 
ATOM      3  C   UNL     1       6.320   4.523  16.145  0.00  0.00    +0.000 A 
ATOM      4  C   UNL     1       7.230   4.726  14.983  0.00  0.00    +0.000 C 
ATOM      5  N   UNL     1       6.534   5.051  17.412  0.00  0.00    +0.000 N 
ATOM      6  C   UNL     1       5.462   4.713  18.227  0.00  0.00    +0.000 A 
ATOM      7  C   UNL     1       5.327   5.088  19.664  0.00  0.00    +0.000 C 
ENDROOT
BRANCH   1  11
ATOM      8  C   UNL     1       1.593   2.860  19.105  0.00  0.00    +0.000 A 
ATOM      9  N   UNL     1       1.050   3.231  17.966  0.00  0.00    +0.000 NA
ATOM     10  N   UNL     1       2.091   3.695  17.181  0.00  0.00    +0.000 NA
ATOM     11  C   UNL     1       3.200   3.562  17.889  0.00  0.00    +0.000 A 
ATOM     12  O   UNL     1       2.947   3.016  19.126  0.00  0.00    +0.000 OA
BRANCH   8  14
ATOM     13  C   UNL     1       1.659   2.963  21.572  0.00  0.00    +0.000 C 
ATOM     14  C   UNL     1       0.961   2.380  20.352  0.00  0.00    +0.000 C 
ENDBRANCH   8  14
ENDBRANCH   1  11
BRANCH   5  15
ATOM     15  C   UNL     1       7.589   6.017  17.736  0.00  0.00    +0.000 C 
BRANCH  15  16
ATOM     16  C   UNL     1       7.314   7.454  17.347  0.00  0.00    +0.000 C 
ATOM     17  O   UNL     1       6.371   7.755  16.617  0.00  0.00    +0.000 OA
ATOM     18  N   UNL     1       8.235   8.385  17.778  0.00  0.00    +0.000 N 
ATOM     19  H   UNL     1       8.985   8.115  18.402  0.00  0.00    +0.000 HD
BRANCH  18  20
ATOM     20  C   UNL     1       8.111   9.786  17.422  0.00  0.00    +0.000 C 
BRANCH  20  21
ATOM     21  C   UNL     1       8.813  10.745  18.354  0.00  0.00    +0.000 A 
ATOM     22  C   UNL     1       9.411  10.357  19.559  0.00  0.00    +0.000 A 
ATOM     23  C   UNL     1      10.027  11.306  20.385  0.00  0.00    +0.000 A 
ATOM     24  C   UNL     1      10.070  12.651  20.022  0.00  0.00    +0.000 A 
ATOM     25  C   UNL     1       9.467  13.053  18.831  0.00  0.00    +0.000 A 
ATOM     26  C   UNL     1       8.840  12.107  18.009  0.00  0.00    +0.000 A 
BRANCH  24  27
ATOM     27  O   UNL     1      10.685  13.479  20.918  0.00  0.00    +0.000 OA
ATOM     28  C   UNL     1      11.387  14.584  20.361  0.00  0.00    +0.000 C 
ENDBRANCH  24  27
ENDBRANCH  20  21
ENDBRANCH  18  20
ENDBRANCH  15  16
ENDBRANCH   5  15
TORSDOF 7
ENDMDL
MODEL 5
REMARK VINA RESULT:      -7.5      5.030      7.213
REMARK  Name = 
REMARK  11 active torsions:
REMARK  status: ('A' for Active; 'I' for Inactive)
REMARK    1  A    between atoms: C_1  and  C_2
REMARK    2  A    between atoms: C_2  and  C_3
REMARK    3  A    between atoms: C_6  and  C_7
REMARK    4  A    between atoms: C_9  and  C_10
REMARK    5  A    between atoms: N_11  and  C_12
REMARK    6  A    between atoms: C_12  and  C_13
REMARK    7  A    between atoms: N_15  and  C_16
REMARK    8  A    between atoms: C_16  and  C_17
REMARK    9  A    between atoms: C_20  and  O_21
REMARK   10  A    between atoms: O_21  and  C_22
REMARK   11  A    between atoms: C_25  and  C_26
REMARK                            x       y       z     vdW  Elec       q    Type
REMARK                         _______ _______ _______ _____ _____    ______ ____
ROOT
ATOM      1  C   UNL     1       4.573   4.269  16.786  0.00  0.00    +0.000 A 
ATOM      2  C   UNL     1       3.457   3.419  16.651  0.00  0.00    +0.000 A 
ATOM      3  C   UNL     1       2.792   3.402  17.863  0.00  0.00    +0.000 A 
ATOM      4  C   UNL     1       1.615   2.573  18.244  0.00  0.00    +0.000 C 
ATOM      5  N   UNL     1       3.452   4.272  18.723  0.00  0.00    +0.000 N 
ATOM      6  C   UNL     1       4.532   4.831  18.054  0.00  0.00    +0.000 A 
ATOM      7  C   UNL     1       5.481   5.823  18.638  0.00  0.00    +0.000 C 
ENDROOT
BRANCH   1  11
ATOM      8  C   UNL     1       6.730   4.501  13.935  0.00  0.00    +0.000 A 
ATOM      9  N   UNL     1       7.401   5.281  14.754  0.00  0.00    +0.000 NA
ATOM     10  N   UNL     1       6.693   5.284  15.943  0.00  0.00    +0.000 NA
ATOM     11  C   UNL     1       5.646   4.494  15.773  0.00  0.00    +0.000 A 
ATOM     12  O   UNL     1       5.625   3.949  14.511  0.00  0.00    +0.000 OA
BRANCH   8  14
ATOM     13  C   UNL     1       5.946   3.178  12.002  0.00  0.00    +0.000 C 
ATOM     14  C   UNL     1       6.954   4.201  12.505  0.00  0.00    +0.000 C 
ENDBRANCH   8  14
ENDBRANCH   1  11
BRANCH   5  15
ATOM     15  C   UNL     1       3.190   4.364  20.162  0.00  0.00    +0.000 C 
BRANCH  15  16
ATOM     16  C   UNL     1       2.005   5.215  20.568  0.00  0.00    +0.000 C 
ATOM     17  O   UNL     1       0.887   4.729  20.727  0.00  0.00    +0.000 OA
ATOM     18  N   UNL     1       2.235   6.572  20.652  0.00  0.00    +0.000 N 
ATOM     19  H   UNL     1       3.172   6.942  20.546  0.00  0.00    +0.000 HD
BRANCH  18  20
ATOM     20  C   UNL     1       1.165   7.497  20.977  0.00  0.00    +0.000 C 
BRANCH  20  21
ATOM     21  C   UNL     1       1.216   8.814  20.240  0.00  0.00    +0.000 A 
ATOM     22  C   UNL     1       0.759  10.023  20.781  0.00  0.00    +0.000 A 
ATOM     23  C   UNL     1       0.818  11.205  20.032  0.00  0.00    +0.000 A 
ATOM     24  C   UNL     1       1.343  11.208  18.740  0.00  0.00    +0.000 A 
ATOM     25  C   UNL     1       1.788  10.009  18.185  0.00  0.00    +0.000 A 
ATOM     26  C   UNL     1       1.719   8.824  18.929  0.00  0.00    +0.000 A 
BRANCH  24  27
ATOM     27  O   UNL     1       1.330  12.418  18.107  0.00  0.00    +0.000 OA
ATOM     28  C   UNL     1       0.704  13.481  18.816  0.00  0.00    +0.000 C 
ENDBRANCH  24  27
ENDBRANCH  20  21
ENDBRANCH  18  20
ENDBRANCH  15  16
ENDBRANCH   5  15
TORSDOF 7
ENDMDL
MODEL 6
REMARK VINA RESULT:      -7.4      4.902      7.294
REMARK  Name = 
REMARK  11 active torsions:
REMARK  status: ('A' for Active; 'I' for Inactive)
REMARK    1  A    between atoms: C_1  and  C_2
REMARK    2  A    between atoms: C_2  and  C_3
REMARK    3  A    between atoms: C_6  and  C_7
REMARK    4  A    between atoms: C_9  and  C_10
REMARK    5  A    between atoms: N_11  and  C_12
REMARK    6  A    between atoms: C_12  and  C_13
REMARK    7  A    between atoms: N_15  and  C_16
REMARK    8  A    between atoms: C_16  and  C_17
REMARK    9  A    between atoms: C_20  and  O_21
REMARK   10  A    between atoms: O_21  and  C_22
REMARK   11  A    between atoms: C_25  and  C_26
REMARK                            x       y       z     vdW  Elec       q    Type
REMARK                         _______ _______ _______ _____ _____    ______ ____
ROOT
ATOM      1  C   UNL     1       5.301   4.417  16.546  0.00  0.00    +0.000 A 
ATOM      2  C   UNL     1       4.784   3.210  17.060  0.00  0.00    +0.000 A 
ATOM      3  C   UNL     1       4.137   3.501  18.246  0.00  0.00    +0.000 A 
ATOM      4  C   UNL     1       3.521   2.543  19.206  0.00  0.00    +0.000 C 
ATOM      5  N   UNL     1       4.203   4.876  18.441  0.00  0.00    +0.000 N 
ATOM      6  C   UNL     1       4.892   5.447  17.380  0.00  0.00    +0.000 A 
ATOM      7  C   UNL     1       5.163   6.905  17.221  0.00  0.00    +0.000 C 
ENDROOT
BRANCH   1  11
ATOM      8  C   UNL     1       6.946   4.407  13.364  0.00  0.00    +0.000 A 
ATOM      9  N   UNL     1       7.691   5.307  13.968  0.00  0.00    +0.000 NA
ATOM     10  N   UNL     1       7.187   5.418  15.252  0.00  0.00    +0.000 NA
ATOM     11  C   UNL     1       6.178   4.568  15.348  0.00  0.00    +0.000 A 
ATOM     12  O   UNL     1       5.986   3.878  14.174  0.00  0.00    +0.000 OA
BRANCH   8  14
ATOM     13  C   UNL     1       6.029   2.757  11.771  0.00  0.00    +0.000 C 
ATOM     14  C   UNL     1       6.953   3.951  11.957  0.00  0.00    +0.000 C 
ENDBRANCH   8  14
ENDBRANCH   1  11
BRANCH   5  15
ATOM     15  C   UNL     1       3.831   5.550  19.688  0.00  0.00    +0.000 C 
BRANCH  15  16
ATOM     16  C   UNL     1       2.447   6.164  19.724  0.00  0.00    +0.000 C 
ATOM     17  O   UNL     1       1.607   5.909  18.862  0.00  0.00    +0.000 OA
ATOM     18  N   UNL     1       2.221   7.090  20.719  0.00  0.00    +0.000 N 
ATOM     19  H   UNL     1       2.919   7.258  21.433  0.00  0.00    +0.000 HD
BRANCH  18  20
ATOM     20  C   UNL     1       0.953   7.788  20.822  0.00  0.00    +0.000 C 
BRANCH  20  21
ATOM     21  C   UNL     1       0.947   9.187  20.253  0.00  0.00    +0.000 A 
ATOM     22  C   UNL     1       1.254   9.482  18.919  0.00  0.00    +0.000 A 
ATOM     23  C   UNL     1       1.249  10.807  18.464  0.00  0.00    +0.000 A 
ATOM     24  C   UNL     1       0.925  11.857  19.323  0.00  0.00    +0.000 A 
ATOM     25  C   UNL     1       0.631  11.578  20.656  0.00  0.00    +0.000 A 
ATOM     26  C   UNL     1       0.646  10.254  21.115  0.00  0.00    +0.000 A 
BRANCH  24  27
ATOM     27  O   UNL     1       0.971  13.103  18.765  0.00  0.00    +0.000 OA
ATOM     28  C   UNL     1      -0.282  13.760  18.612  0.00  0.00    +0.000 C 
ENDBRANCH  24  27
ENDBRANCH  20  21
ENDBRANCH  18  20
ENDBRANCH  15  16
ENDBRANCH   5  15
TORSDOF 7
ENDMDL
MODEL 7
REMARK VINA RESULT:      -7.2      5.223      7.857
REMARK  Name = 
REMARK  11 active torsions:
REMARK  status: ('A' for Active; 'I' for Inactive)
REMARK    1  A    between atoms: C_1  and  C_2
REMARK    2  A    between atoms: C_2  and  C_3
REMARK    3  A    between atoms: C_6  and  C_7
REMARK    4  A    between atoms: C_9  and  C_10
REMARK    5  A    between atoms: N_11  and  C_12
REMARK    6  A    between atoms: C_12  and  C_13
REMARK    7  A    between atoms: N_15  and  C_16
REMARK    8  A    between atoms: C_16  and  C_17
REMARK    9  A    between atoms: C_20  and  O_21
REMARK   10  A    between atoms: O_21  and  C_22
REMARK   11  A    between atoms: C_25  and  C_26
REMARK                            x       y       z     vdW  Elec       q    Type
REMARK                         _______ _______ _______ _____ _____    ______ ____
ROOT
ATOM      1  C   UNL     1       5.037   4.326  16.839  0.00  0.00    +0.000 A 
ATOM      2  C   UNL     1       4.664   3.138  17.498  0.00  0.00    +0.000 A 
ATOM      3  C   UNL     1       4.054   3.490  18.687  0.00  0.00    +0.000 A 
ATOM      4  C   UNL     1       3.581   2.585  19.771  0.00  0.00    +0.000 C 
ATOM      5  N   UNL     1       4.000   4.878  18.743  0.00  0.00    +0.000 N 
ATOM      6  C   UNL     1       4.577   5.397  17.592  0.00  0.00    +0.000 A 
ATOM      7  C   UNL     1       4.701   6.849  17.276  0.00  0.00    +0.000 C 
ENDROOT
BRANCH   1  11
ATOM      8  C   UNL     1       6.481   4.176  13.563  0.00  0.00    +0.000 A 
ATOM      9  N   UNL     1       7.233   5.129  14.067  0.00  0.00    +0.000 NA
ATOM     10  N   UNL     1       6.807   5.301  15.373  0.00  0.00    +0.000 NA
ATOM     11  C   UNL     1       5.833   4.431  15.581  0.00  0.00    +0.000 A 
ATOM     12  O   UNL     1       5.590   3.669  14.462  0.00  0.00    +0.000 OA
BRANCH   8  14
ATOM     13  C   UNL     1       5.007   3.165  11.859  0.00  0.00    +0.000 C 
ATOM     14  C   UNL     1       6.415   3.639  12.188  0.00  0.00    +0.000 C 
ENDBRANCH   8  14
ENDBRANCH   1  11
BRANCH   5  15
ATOM     15  C   UNL     1       3.632   5.641  19.940  0.00  0.00    +0.000 C 
BRANCH  15  16
ATOM     16  C   UNL     1       2.148   5.850  20.162  0.00  0.00    +0.000 C 
ATOM     17  O   UNL     1       1.312   5.080  19.694  0.00  0.00    +0.000 OA
ATOM     18  N   UNL     1       1.793   7.000  20.835  0.00  0.00    +0.000 N 
ATOM     19  H   UNL     1       2.503   7.601  21.236  0.00  0.00    +0.000 HD
BRANCH  18  20
ATOM     20  C   UNL     1       0.400   7.339  21.060  0.00  0.00    +0.000 C 
BRANCH  20  21
ATOM     21  C   UNL     1       0.146   8.785  21.417  0.00  0.00    +0.000 A 
ATOM     22  C   UNL     1      -0.391   9.198  22.642  0.00  0.00    +0.000 A 
ATOM     23  C   UNL     1      -0.620  10.556  22.896  0.00  0.00    +0.000 A 
ATOM     24  C   UNL     1      -0.307  11.525  21.944  0.00  0.00    +0.000 A 
ATOM     25  C   UNL     1       0.215  11.126  20.715  0.00  0.00    +0.000 A 
ATOM     26  C   UNL     1       0.435   9.767  20.455  0.00  0.00    +0.000 A 
BRANCH  24  27
ATOM     27  O   UNL     1      -0.592  12.812  22.305  0.00  0.00    +0.000 OA
ATOM     28  C   UNL     1       0.276  13.809  21.780  0.00  0.00    +0.000 C 
ENDBRANCH  24  27
ENDBRANCH  20  21
ENDBRANCH  18  20
ENDBRANCH  15  16
ENDBRANCH   5  15
TORSDOF 7
ENDMDL
MODEL 8
REMARK VINA RESULT:      -7.2      5.316      8.117
REMARK  Name = 
REMARK  11 active torsions:
REMARK  status: ('A' for Active; 'I' for Inactive)
REMARK    1  A    between atoms: C_1  and  C_2
REMARK    2  A    between atoms: C_2  and  C_3
REMARK    3  A    between atoms: C_6  and  C_7
REMARK    4  A    between atoms: C_9  and  C_10
REMARK    5  A    between atoms: N_11  and  C_12
REMARK    6  A    between atoms: C_12  and  C_13
REMARK    7  A    between atoms: N_15  and  C_16
REMARK    8  A    between atoms: C_16  and  C_17
REMARK    9  A    between atoms: C_20  and  O_21
REMARK   10  A    between atoms: O_21  and  C_22
REMARK   11  A    between atoms: C_25  and  C_26
REMARK                            x       y       z     vdW  Elec       q    Type
REMARK                         _______ _______ _______ _____ _____    ______ ____
ROOT
ATOM      1  C   UNL     1       4.914   5.778  16.248  0.00  0.00    +0.000 A 
ATOM      2  C   UNL     1       4.596   7.129  16.493  0.00  0.00    +0.000 A 
ATOM      3  C   UNL     1       3.569   7.158  17.419  0.00  0.00    +0.000 A 
ATOM      4  C   UNL     1       2.826   8.348  17.917  0.00  0.00    +0.000 C 
ATOM      5  N   UNL     1       3.289   5.847  17.785  0.00  0.00    +0.000 N 
ATOM      6  C   UNL     1       4.136   4.995  17.088  0.00  0.00    +0.000 A 
ATOM      7  C   UNL     1       4.150   3.509  17.216  0.00  0.00    +0.000 C 
ENDROOT
BRANCH   1  11
ATOM      8  C   UNL     1       6.680   4.282  13.513  0.00  0.00    +0.000 A 
ATOM      9  N   UNL     1       7.662   5.000  14.013  0.00  0.00    +0.000 NA
ATOM     10  N   UNL     1       7.138   5.643  15.120  0.00  0.00    +0.000 NA
ATOM     11  C   UNL     1       5.875   5.263  15.229  0.00  0.00    +0.000 A 
ATOM     12  O   UNL     1       5.529   4.376  14.237  0.00  0.00    +0.000 OA
BRANCH   8  14
ATOM     13  C   UNL     1       5.183   3.171  11.892  0.00  0.00    +0.000 C 
ATOM     14  C   UNL     1       6.624   3.468  12.280  0.00  0.00    +0.000 C 
ENDBRANCH   8  14
ENDBRANCH   1  11
BRANCH   5  15
ATOM     15  C   UNL     1       2.120   5.442  18.573  0.00  0.00    +0.000 C 
BRANCH  15  16
ATOM     16  C   UNL     1       2.088   5.928  20.007  0.00  0.00    +0.000 C 
ATOM     17  O   UNL     1       2.643   5.305  20.910  0.00  0.00    +0.000 OA
ATOM     18  N   UNL     1       1.322   7.048  20.249  0.00  0.00    +0.000 N 
ATOM     19  H   UNL     1       0.901   7.559  19.483  0.00  0.00    +0.000 HD
BRANCH  18  20
ATOM     20  C   UNL     1       1.167   7.576  21.592  0.00  0.00    +0.000 C 
BRANCH  20  21
ATOM     21  C   UNL     1       0.468   8.913  21.675  0.00  0.00    +0.000 A 
ATOM     22  C   UNL     1       0.385   9.812  20.604  0.00  0.00    +0.000 A 
ATOM     23  C   UNL     1      -0.262  11.044  20.759  0.00  0.00    +0.000 A 
ATOM     24  C   UNL     1      -0.849  11.397  21.974  0.00  0.00    +0.000 A 
ATOM     25  C   UNL     1      -0.762  10.517  23.051  0.00  0.00    +0.000 A 
ATOM     26  C   UNL     1      -0.105   9.288  22.901  0.00  0.00    +0.000 A 
BRANCH  24  27
ATOM     27  O   UNL     1      -1.435  12.631  22.003  0.00  0.00    +0.000 OA
ATOM     28  C   UNL     1      -1.426  13.291  23.263  0.00  0.00    +0.000 C 
ENDBRANCH  24  27
ENDBRANCH  20  21
ENDBRANCH  18  20
ENDBRANCH  15  16
ENDBRANCH   5  15
TORSDOF 7
ENDMDL
MODEL 9
REMARK VINA RESULT:      -7.1      4.694      7.546
REMARK  Name = 
REMARK  11 active torsions:
REMARK  status: ('A' for Active; 'I' for Inactive)
REMARK    1  A    between atoms: C_1  and  C_2
REMARK    2  A    between atoms: C_2  and  C_3
REMARK    3  A    between atoms: C_6  and  C_7
REMARK    4  A    between atoms: C_9  and  C_10
REMARK    5  A    between atoms: N_11  and  C_12
REMARK    6  A    between atoms: C_12  and  C_13
REMARK    7  A    between atoms: N_15  and  C_16
REMARK    8  A    between atoms: C_16  and  C_17
REMARK    9  A    between atoms: C_20  and  O_21
REMARK   10  A    between atoms: O_21  and  C_22
REMARK   11  A    between atoms: C_25  and  C_26
REMARK                            x       y       z     vdW  Elec       q    Type
REMARK                         _______ _______ _______ _____ _____    ______ ____
ROOT
ATOM      1  C   UNL     1       5.901   4.717  15.132  0.00  0.00    +0.000 A 
ATOM      2  C   UNL     1       6.694   5.847  15.415  0.00  0.00    +0.000 A 
ATOM      3  C   UNL     1       6.407   6.250  16.706  0.00  0.00    +0.000 A 
ATOM      4  C   UNL     1       6.917   7.455  17.419  0.00  0.00    +0.000 C 
ATOM      5  N   UNL     1       5.489   5.352  17.238  0.00  0.00    +0.000 N 
ATOM      6  C   UNL     1       5.198   4.389  16.282  0.00  0.00    +0.000 A 
ATOM      7  C   UNL     1       4.260   3.245  16.478  0.00  0.00    +0.000 C 
ENDROOT
BRANCH   1  11
ATOM      8  C   UNL     1       4.980   3.209  12.016  0.00  0.00    +0.000 A 
ATOM      9  N   UNL     1       6.286   3.109  11.905  0.00  0.00    +0.000 NA
ATOM     10  N   UNL     1       6.809   3.643  13.070  0.00  0.00    +0.000 NA
ATOM     11  C   UNL     1       5.786   4.020  13.818  0.00  0.00    +0.000 A 
ATOM     12  O   UNL     1       4.586   3.750  13.203  0.00  0.00    +0.000 OA
BRANCH   8  14
ATOM     13  C   UNL     1       3.425   4.155  10.347  0.00  0.00    +0.000 C 
ATOM     14  C   UNL     1       3.912   2.893  11.044  0.00  0.00    +0.000 C 
ENDBRANCH   8  14
ENDBRANCH   1  11
BRANCH   5  15
ATOM     15  C   UNL     1       4.770   5.559  18.499  0.00  0.00    +0.000 C 
BRANCH  15  16
ATOM     16  C   UNL     1       3.387   6.165  18.381  0.00  0.00    +0.000 C 
ATOM     17  O   UNL     1       2.381   5.463  18.296  0.00  0.00    +0.000 OA
ATOM     18  N   UNL     1       3.335   7.539  18.280  0.00  0.00    +0.000 N 
ATOM     19  H   UNL     1       4.175   8.094  18.385  0.00  0.00    +0.000 HD
BRANCH  18  20
ATOM     20  C   UNL     1       2.072   8.233  18.107  0.00  0.00    +0.000 C 
BRANCH  20  21
ATOM     21  C   UNL     1       1.566   8.951  19.335  0.00  0.00    +0.000 A 
ATOM     22  C   UNL     1       1.446   8.346  20.593  0.00  0.00    +0.000 A 
ATOM     23  C   UNL     1       0.948   9.068  21.685  0.00  0.00    +0.000 A 
ATOM     24  C   UNL     1       0.575  10.405  21.549  0.00  0.00    +0.000 A 
ATOM     25  C   UNL     1       0.677  11.015  20.300  0.00  0.00    +0.000 A 
ATOM     26  C   UNL     1       1.164  10.290  19.204  0.00  0.00    +0.000 A 
BRANCH  24  27
ATOM     27  O   UNL     1       0.090  10.994  22.682  0.00  0.00    +0.000 OA
ATOM     28  C   UNL     1      -1.226  10.611  23.065  0.00  0.00    +0.000 C 
ENDBRANCH  24  27
ENDBRANCH  20  21
ENDBRANCH  18  20
ENDBRANCH  15  16
ENDBRANCH   5  15
TORSDOF 7
ENDMDL
