MODEL 1
REMARK VINA RESULT:      -6.8      0.000      0.000
REMARK  Name = 
REMARK  4 active torsions:
REMARK  status: ('A' for Active; 'I' for Inactive)
REMARK    1  A    between atoms: C_1  and  C_2
REMARK    2  A    between atoms: C_2  and  N_3
REMARK    3  A    between atoms: C_2  and  C_12
REMARK    4  A    between atoms: C_4  and  C_6
REMARK                            x       y       z     vdW  Elec       q    Type
REMARK                         _______ _______ _______ _____ _____    ______ ____
ROOT
ATOM      1  N   UNL     1       4.760   3.451  17.621  0.00  0.00    +0.000 N 
ATOM      2  C   UNL     1       5.993   4.041  17.440  0.00  0.00    +0.000 C 
ATOM      3  O   UNL     1       6.732   4.327  18.376  0.00  0.00    +0.000 OA
ATOM      4  H   UNL     1       4.234   3.202  16.793  0.00  0.00    +0.000 HD
ENDROOT
BRANCH   2   5
ATOM      5  C   UNL     1       6.337   4.289  16.055  0.00  0.00    +0.000 A 
ATOM      6  C   UNL     1       7.182   5.226  15.486  0.00  0.00    +0.000 A 
ATOM      7  C   UNL     1       7.146   5.014  14.086  0.00  0.00    +0.000 A 
ATOM      8  C   UNL     1       6.283   3.961  13.881  0.00  0.00    +0.000 A 
ATOM      9 BR   UNL     1       5.848   3.240  12.217  0.00  0.00    +0.000 Br
ATOM     10  O   UNL     1       5.789   3.514  15.067  0.00  0.00    +0.000 OA
ENDBRANCH   2   5
BRANCH   1  12
ATOM     11  C   UNL     1       3.660   1.651  18.881  0.00  0.00    +0.000 C 
ATOM     12  C   UNL     1       4.273   3.054  18.929  0.00  0.00    +0.000 C 
BRANCH  12  13
ATOM     13  C   UNL     1       3.294   4.080  19.470  0.00  0.00    +0.000 A 
ATOM     14  C   UNL     1       3.532   5.449  19.265  0.00  0.00    +0.000 A 
ATOM     15  C   UNL     1       2.652   6.412  19.763  0.00  0.00    +0.000 A 
ATOM     16  C   UNL     1       1.517   6.020  20.470  0.00  0.00    +0.000 A 
ATOM     17  C   UNL     1       1.262   4.667  20.677  0.00  0.00    +0.000 A 
ATOM     18  C   UNL     1       2.141   3.703  20.179  0.00  0.00    +0.000 A 
ENDBRANCH  12  13
ENDBRANCH   1  12
TORSDOF 3
ENDMDL
MODEL 2
REMARK VINA RESULT:      -6.8      1.637      2.297
REMARK  Name = 
REMARK  4 active torsions:
REMARK  status: ('A' for Active; 'I' for Inactive)
REMARK    1  A    between atoms: C_1  and  C_2
REMARK    2  A    between atoms: C_2  and  N_3
REMARK    3  A    between atoms: C_2  and  C_12
REMARK    4  A    between atoms: C_4  and  C_6
REMARK                            x       y       z     vdW  Elec       q    Type
REMARK                         _______ _______ _______ _____ _____    ______ ____
ROOT
ATOM      1  N   UNL     1       4.769   4.812  16.966  0.00  0.00    +0.000 N 
ATOM      2  C   UNL     1       5.357   5.653  16.046  0.00  0.00    +0.000 C 
ATOM      3  O   UNL     1       5.457   6.863  16.228  0.00  0.00    +0.000 OA
ATOM      4  H   UNL     1       4.771   3.820  16.762  0.00  0.00    +0.000 HD
ENDROOT
BRANCH   2   5
ATOM      5  C   UNL     1       5.846   4.989  14.856  0.00  0.00    +0.000 A 
ATOM      6  C   UNL     1       7.127   4.867  14.348  0.00  0.00    +0.000 A 
ATOM      7  C   UNL     1       7.026   4.107  13.157  0.00  0.00    +0.000 A 
ATOM      8  C   UNL     1       5.691   3.808  13.007  0.00  0.00    +0.000 A 
ATOM      9 BR   UNL     1       4.965   2.818  11.603  0.00  0.00    +0.000 Br
ATOM     10  O   UNL     1       4.967   4.335  14.031  0.00  0.00    +0.000 OA
ENDBRANCH   2   5
BRANCH   1  12
ATOM     11  C   UNL     1       5.408   5.246  19.298  0.00  0.00    +0.000 C 
ATOM     12  C   UNL     1       4.289   5.279  18.253  0.00  0.00    +0.000 C 
BRANCH  12  13
ATOM     13  C   UNL     1       3.078   4.480  18.696  0.00  0.00    +0.000 A 
ATOM     14  C   UNL     1       2.682   3.349  17.964  0.00  0.00    +0.000 A 
ATOM     15  C   UNL     1       1.564   2.604  18.345  0.00  0.00    +0.000 A 
ATOM     16  C   UNL     1       0.828   2.976  19.468  0.00  0.00    +0.000 A 
ATOM     17  C   UNL     1       1.210   4.091  20.210  0.00  0.00    +0.000 A 
ATOM     18  C   UNL     1       2.328   4.837  19.829  0.00  0.00    +0.000 A 
ENDBRANCH  12  13
ENDBRANCH   1  12
TORSDOF 3
ENDMDL
MODEL 3
REMARK VINA RESULT:      -6.8      3.600      6.075
REMARK  Name = 
REMARK  4 active torsions:
REMARK  status: ('A' for Active; 'I' for Inactive)
REMARK    1  A    between atoms: C_1  and  C_2
REMARK    2  A    between atoms: C_2  and  N_3
REMARK    3  A    between atoms: C_2  and  C_12
REMARK    4  A    between atoms: C_4  and  C_6
REMARK                            x       y       z     vdW  Elec       q    Type
REMARK                         _______ _______ _______ _____ _____    ______ ____
ROOT
ATOM      1  N   UNL     1       4.306   4.637  17.046  0.00  0.00    +0.000 N 
ATOM      2  C   UNL     1       3.279   5.237  17.742  0.00  0.00    +0.000 C 
ATOM      3  O   UNL     1       3.124   6.454  17.770  0.00  0.00    +0.000 OA
ATOM      4  H   UNL     1       4.334   3.624  17.033  0.00  0.00    +0.000 HD
ENDROOT
BRANCH   2   5
ATOM      5  C   UNL     1       2.404   4.311  18.432  0.00  0.00    +0.000 A 
ATOM      6  C   UNL     1       1.337   3.561  17.972  0.00  0.00    +0.000 A 
ATOM      7  C   UNL     1       0.845   2.826  19.078  0.00  0.00    +0.000 A 
ATOM      8  C   UNL     1       1.640   3.169  20.148  0.00  0.00    +0.000 A 
ATOM      9 BR   UNL     1       1.453   2.501  21.880  0.00  0.00    +0.000 Br
ATOM     10  O   UNL     1       2.588   4.067  19.768  0.00  0.00    +0.000 OA
ENDBRANCH   2   5
BRANCH   1  12
ATOM     11  C   UNL     1       5.830   4.514  15.122  0.00  0.00    +0.000 C 
ATOM     12  C   UNL     1       5.239   5.391  16.230  0.00  0.00    +0.000 C 
BRANCH  12  13
ATOM     13  C   UNL     1       6.320   6.017  17.092  0.00  0.00    +0.000 A 
ATOM     14  C   UNL     1       6.912   5.268  18.122  0.00  0.00    +0.000 A 
ATOM     15  C   UNL     1       7.901   5.826  18.936  0.00  0.00    +0.000 A 
ATOM     16  C   UNL     1       8.316   7.140  18.728  0.00  0.00    +0.000 A 
ATOM     17  C   UNL     1       7.744   7.894  17.707  0.00  0.00    +0.000 A 
ATOM     18  C   UNL     1       6.755   7.338  16.893  0.00  0.00    +0.000 A 
ENDBRANCH  12  13
ENDBRANCH   1  12
TORSDOF 3
ENDMDL
MODEL 4
REMARK VINA RESULT:      -6.7      1.643      2.152
REMARK  Name = 
REMARK  4 active torsions:
REMARK  status: ('A' for Active; 'I' for Inactive)
REMARK    1  A    between atoms: C_1  and  C_2
REMARK    2  A    between atoms: C_2  and  N_3
REMARK    3  A    between atoms: C_2  and  C_12
REMARK    4  A    between atoms: C_4  and  C_6
REMARK                            x       y       z     vdW  Elec       q    Type
REMARK                         _______ _______ _______ _____ _____    ______ ____
ROOT
ATOM      1  N   UNL     1       4.980   4.999  16.879  0.00  0.00    +0.000 N 
ATOM      2  C   UNL     1       5.888   5.646  16.069  0.00  0.00    +0.000 C 
ATOM      3  O   UNL     1       6.450   6.684  16.404  0.00  0.00    +0.000 OA
ATOM      4  H   UNL     1       4.600   4.121  16.548  0.00  0.00    +0.000 HD
ENDROOT
BRANCH   2   5
ATOM      5  C   UNL     1       6.122   4.995  14.796  0.00  0.00    +0.000 A 
ATOM      6  C   UNL     1       7.291   4.786  14.087  0.00  0.00    +0.000 A 
ATOM      7  C   UNL     1       6.936   4.091  12.905  0.00  0.00    +0.000 A 
ATOM      8  C   UNL     1       5.572   3.916  12.960  0.00  0.00    +0.000 A 
ATOM      9 BR   UNL     1       4.548   3.056  11.660  0.00  0.00    +0.000 Br
ATOM     10  O   UNL     1       5.068   4.458  14.102  0.00  0.00    +0.000 OA
ENDBRANCH   2   5
BRANCH   1  12
ATOM     11  C   UNL     1       5.835   5.162  19.177  0.00  0.00    +0.000 C 
ATOM     12  C   UNL     1       4.673   5.455  18.222  0.00  0.00    +0.000 C 
BRANCH  12  13
ATOM     13  C   UNL     1       3.372   4.845  18.711  0.00  0.00    +0.000 A 
ATOM     14  C   UNL     1       2.956   5.058  20.035  0.00  0.00    +0.000 A 
ATOM     15  C   UNL     1       1.769   4.497  20.512  0.00  0.00    +0.000 A 
ATOM     16  C   UNL     1       0.977   3.720  19.669  0.00  0.00    +0.000 A 
ATOM     17  C   UNL     1       1.372   3.505  18.351  0.00  0.00    +0.000 A 
ATOM     18  C   UNL     1       2.559   4.064  17.873  0.00  0.00    +0.000 A 
ENDBRANCH  12  13
ENDBRANCH   1  12
TORSDOF 3
ENDMDL
MODEL 5
REMARK VINA RESULT:      -6.7      1.220      1.541
REMARK  Name = 
REMARK  4 active torsions:
REMARK  status: ('A' for Active; 'I' for Inactive)
REMARK    1  A    between atoms: C_1  and  C_2
REMARK    2  A    between atoms: C_2  and  N_3
REMARK    3  A    between atoms: C_2  and  C_12
REMARK    4  A    between atoms: C_4  and  C_6
REMARK                            x       y       z     vdW  Elec       q    Type
REMARK                         _______ _______ _______ _____ _____    ______ ____
ROOT
ATOM      1  N   UNL     1       3.730   4.370  17.287  0.00  0.00    +0.000 N 
ATOM      2  C   UNL     1       5.106   4.366  17.369  0.00  0.00    +0.000 C 
ATOM      3  O   UNL     1       5.704   4.294  18.438  0.00  0.00    +0.000 OA
ATOM      4  H   UNL     1       3.316   4.382  16.363  0.00  0.00    +0.000 HD
ENDROOT
BRANCH   2   5
ATOM      5  C   UNL     1       5.780   4.451  16.090  0.00  0.00    +0.000 A 
ATOM      6  C   UNL     1       6.929   5.125  15.715  0.00  0.00    +0.000 A 
ATOM      7  C   UNL     1       7.132   4.855  14.339  0.00  0.00    +0.000 A 
ATOM      8  C   UNL     1       6.098   4.033  13.955  0.00  0.00    +0.000 A 
ATOM      9 BR   UNL     1       5.852   3.352  12.235  0.00  0.00    +0.000 Br
ATOM     10  O   UNL     1       5.274   3.780  15.007  0.00  0.00    +0.000 OA
ENDBRANCH   2   5
BRANCH   1  12
ATOM     11  C   UNL     1       1.664   3.342  18.130  0.00  0.00    +0.000 C 
ATOM     12  C   UNL     1       2.881   4.214  18.453  0.00  0.00    +0.000 C 
BRANCH  12  13
ATOM     13  C   UNL     1       2.475   5.569  19.006  0.00  0.00    +0.000 A 
ATOM     14  C   UNL     1       2.623   6.719  18.214  0.00  0.00    +0.000 A 
ATOM     15  C   UNL     1       2.268   7.977  18.704  0.00  0.00    +0.000 A 
ATOM     16  C   UNL     1       1.754   8.103  19.993  0.00  0.00    +0.000 A 
ATOM     17  C   UNL     1       1.594   6.972  20.789  0.00  0.00    +0.000 A 
ATOM     18  C   UNL     1       1.949   5.714  20.300  0.00  0.00    +0.000 A 
ENDBRANCH  12  13
ENDBRANCH   1  12
TORSDOF 3
ENDMDL
MODEL 6
REMARK VINA RESULT:      -6.7      1.917      2.519
REMARK  Name = 
REMARK  4 active torsions:
REMARK  status: ('A' for Active; 'I' for Inactive)
REMARK    1  A    between atoms: C_1  and  C_2
REMARK    2  A    between atoms: C_2  and  N_3
REMARK    3  A    between atoms: C_2  and  C_12
REMARK    4  A    between atoms: C_4  and  C_6
REMARK                            x       y       z     vdW  Elec       q    Type
REMARK                         _______ _______ _______ _____ _____    ______ ____
ROOT
ATOM      1  N   UNL     1       5.189   4.630  16.604  0.00  0.00    +0.000 N 
ATOM      2  C   UNL     1       5.512   5.512  15.595  0.00  0.00    +0.000 C 
ATOM      3  O   UNL     1       5.350   6.724  15.702  0.00  0.00    +0.000 OA
ATOM      4  H   UNL     1       5.400   3.650  16.455  0.00  0.00    +0.000 HD
ENDROOT
BRANCH   2   5
ATOM      5  C   UNL     1       6.058   4.888  14.408  0.00  0.00    +0.000 A 
ATOM      6  C   UNL     1       7.267   5.074  13.763  0.00  0.00    +0.000 A 
ATOM      7  C   UNL     1       7.279   4.195  12.651  0.00  0.00    +0.000 A 
ATOM      8  C   UNL     1       6.078   3.524  12.684  0.00  0.00    +0.000 A 
ATOM      9 BR   UNL     1       5.540   2.229  11.453  0.00  0.00    +0.000 Br
ATOM     10  O   UNL     1       5.331   3.934  13.744  0.00  0.00    +0.000 OA
ENDBRANCH   2   5
BRANCH   1  12
ATOM     11  C   UNL     1       5.827   5.062  18.937  0.00  0.00    +0.000 C 
ATOM     12  C   UNL     1       4.702   5.071  17.897  0.00  0.00    +0.000 C 
BRANCH  12  13
ATOM     13  C   UNL     1       3.518   4.230  18.340  0.00  0.00    +0.000 A 
ATOM     14  C   UNL     1       3.705   3.198  19.273  0.00  0.00    +0.000 A 
ATOM     15  C   UNL     1       2.633   2.403  19.687  0.00  0.00    +0.000 A 
ATOM     16  C   UNL     1       1.357   2.633  19.177  0.00  0.00    +0.000 A 
ATOM     17  C   UNL     1       1.153   3.657  18.256  0.00  0.00    +0.000 A 
ATOM     18  C   UNL     1       2.223   4.452  17.841  0.00  0.00    +0.000 A 
ENDBRANCH  12  13
ENDBRANCH   1  12
TORSDOF 3
ENDMDL
MODEL 7
REMARK VINA RESULT:      -6.7      3.576      5.920
REMARK  Name = 
REMARK  4 active torsions:
REMARK  status: ('A' for Active; 'I' for Inactive)
REMARK    1  A    between atoms: C_1  and  C_2
REMARK    2  A    between atoms: C_2  and  N_3
REMARK    3  A    between atoms: C_2  and  C_12
REMARK    4  A    between atoms: C_4  and  C_6
REMARK                            x       y       z     vdW  Elec       q    Type
REMARK                         _______ _______ _______ _____ _____    ______ ____
ROOT
ATOM      1  N   UNL     1       4.599   4.744  16.805  0.00  0.00    +0.000 N 
ATOM      2  C   UNL     1       3.615   5.347  17.559  0.00  0.00    +0.000 C 
ATOM      3  O   UNL     1       3.543   6.564  17.699  0.00  0.00    +0.000 OA
ATOM      4  H   UNL     1       4.557   3.738  16.699  0.00  0.00    +0.000 HD
ENDROOT
BRANCH   2   5
ATOM      5  C   UNL     1       2.678   4.424  18.166  0.00  0.00    +0.000 A 
ATOM      6  C   UNL     1       1.661   3.670  17.609  0.00  0.00    +0.000 A 
ATOM      7  C   UNL     1       1.065   2.940  18.667  0.00  0.00    +0.000 A 
ATOM      8  C   UNL     1       1.753   3.289  19.806  0.00  0.00    +0.000 A 
ATOM      9 BR   UNL     1       1.401   2.629  21.515  0.00  0.00    +0.000 Br
ATOM     10  O   UNL     1       2.733   4.185  19.515  0.00  0.00    +0.000 OA
ENDBRANCH   2   5
BRANCH   1  12
ATOM     11  C   UNL     1       6.294   4.618  15.031  0.00  0.00    +0.000 C 
ATOM     12  C   UNL     1       5.582   5.505  16.057  0.00  0.00    +0.000 C 
BRANCH  12  13
ATOM     13  C   UNL     1       6.562   6.184  16.995  0.00  0.00    +0.000 A 
ATOM     14  C   UNL     1       6.873   7.542  16.818  0.00  0.00    +0.000 A 
ATOM     15  C   UNL     1       7.781   8.186  17.661  0.00  0.00    +0.000 A 
ATOM     16  C   UNL     1       8.388   7.481  18.699  0.00  0.00    +0.000 A 
ATOM     17  C   UNL     1       8.087   6.136  18.894  0.00  0.00    +0.000 A 
ATOM     18  C   UNL     1       7.179   5.491  18.051  0.00  0.00    +0.000 A 
ENDBRANCH  12  13
ENDBRANCH   1  12
TORSDOF 3
ENDMDL
MODEL 8
REMARK VINA RESULT:      -6.6      1.391      1.811
REMARK  Name = 
REMARK  4 active torsions:
REMARK  status: ('A' for Active; 'I' for Inactive)
REMARK    1  A    between atoms: C_1  and  C_2
REMARK    2  A    between atoms: C_2  and  N_3
REMARK    3  A    between atoms: C_2  and  C_12
REMARK    4  A    between atoms: C_4  and  C_6
REMARK                            x       y       z     vdW  Elec       q    Type
REMARK                         _______ _______ _______ _____ _____    ______ ____
ROOT
ATOM      1  N   UNL     1       5.129   3.180  18.549  0.00  0.00    +0.000 N 
ATOM      2  C   UNL     1       5.276   4.451  18.035  0.00  0.00    +0.000 C 
ATOM      3  O   UNL     1       4.865   5.450  18.619  0.00  0.00    +0.000 OA
ATOM      4  H   UNL     1       5.540   2.415  18.028  0.00  0.00    +0.000 HD
ENDROOT
BRANCH   2   5
ATOM      5  C   UNL     1       5.954   4.504  16.757  0.00  0.00    +0.000 A 
ATOM      6  C   UNL     1       7.177   5.044  16.403  0.00  0.00    +0.000 A 
ATOM      7  C   UNL     1       7.345   4.808  15.017  0.00  0.00    +0.000 A 
ATOM      8  C   UNL     1       6.215   4.138  14.605  0.00  0.00    +0.000 A 
ATOM      9 BR   UNL     1       5.886   3.566  12.860  0.00  0.00    +0.000 Br
ATOM     10  O   UNL     1       5.367   3.947  15.650  0.00  0.00    +0.000 OA
ENDBRANCH   2   5
BRANCH   1  12
ATOM     11  C   UNL     1       5.016   1.585  20.414  0.00  0.00    +0.000 C 
ATOM     12  C   UNL     1       4.545   2.930  19.853  0.00  0.00    +0.000 C 
BRANCH  12  13
ATOM     13  C   UNL     1       3.031   3.016  19.788  0.00  0.00    +0.000 A 
ATOM     14  C   UNL     1       2.345   3.900  20.637  0.00  0.00    +0.000 A 
ATOM     15  C   UNL     1       0.952   3.989  20.605  0.00  0.00    +0.000 A 
ATOM     16  C   UNL     1       0.224   3.199  19.717  0.00  0.00    +0.000 A 
ATOM     17  C   UNL     1       0.888   2.322  18.863  0.00  0.00    +0.000 A 
ATOM     18  C   UNL     1       2.281   2.232  18.895  0.00  0.00    +0.000 A 
ENDBRANCH  12  13
ENDBRANCH   1  12
TORSDOF 3
ENDMDL
MODEL 9
REMARK VINA RESULT:      -6.6      3.171      6.646
REMARK  Name = 
REMARK  4 active torsions:
REMARK  status: ('A' for Active; 'I' for Inactive)
REMARK    1  A    between atoms: C_1  and  C_2
REMARK    2  A    between atoms: C_2  and  N_3
REMARK    3  A    between atoms: C_2  and  C_12
REMARK    4  A    between atoms: C_4  and  C_6
REMARK                            x       y       z     vdW  Elec       q    Type
REMARK                         _______ _______ _______ _____ _____    ______ ____
ROOT
ATOM      1  N   UNL     1       4.927   4.527  16.525  0.00  0.00    +0.000 N 
ATOM      2  C   UNL     1       4.815   4.575  17.898  0.00  0.00    +0.000 C 
ATOM      3  O   UNL     1       5.476   5.346  18.587  0.00  0.00    +0.000 OA
ATOM      4  H   UNL     1       4.309   3.897  16.027  0.00  0.00    +0.000 HD
ENDROOT
BRANCH   2   5
ATOM      5  C   UNL     1       3.854   3.645  18.452  0.00  0.00    +0.000 A 
ATOM      6  C   UNL     1       3.257   2.525  17.903  0.00  0.00    +0.000 A 
ATOM      7  C   UNL     1       2.398   1.989  18.894  0.00  0.00    +0.000 A 
ATOM      8  C   UNL     1       2.521   2.812  19.990  0.00  0.00    +0.000 A 
ATOM      9 BR   UNL     1       1.615   2.587  21.605  0.00  0.00    +0.000 Br
ATOM     10  O   UNL     1       3.401   3.817  19.735  0.00  0.00    +0.000 OA
ENDBRANCH   2   5
BRANCH   1  12
ATOM     11  C   UNL     1       5.112   6.803  15.620  0.00  0.00    +0.000 C 
ATOM     12  C   UNL     1       5.780   5.434  15.781  0.00  0.00    +0.000 C 
BRANCH  12  13
ATOM     13  C   UNL     1       6.164   4.832  14.442  0.00  0.00    +0.000 A 
ATOM     14  C   UNL     1       7.353   5.233  13.811  0.00  0.00    +0.000 A 
ATOM     15  C   UNL     1       7.722   4.703  12.573  0.00  0.00    +0.000 A 
ATOM     16  C   UNL     1       6.909   3.757  11.950  0.00  0.00    +0.000 A 
ATOM     17  C   UNL     1       5.731   3.343  12.564  0.00  0.00    +0.000 A 
ATOM     18  C   UNL     1       5.360   3.873  13.802  0.00  0.00    +0.000 A 
ENDBRANCH  12  13
ENDBRANCH   1  12
TORSDOF 3
ENDMDL
