MODEL 1
REMARK VINA RESULT:      -7.5      0.000      0.000
REMARK  Name = 
REMARK  10 active torsions:
REMARK  status: ('A' for Active; 'I' for Inactive)
REMARK    1  A    between atoms: C_1  and  C_2
REMARK    2  A    between atoms: C_2  and  C_3
REMARK    3  A    between atoms: C_2  and  C_4
REMARK    4  A    between atoms: C_4  and  C_5
REMARK    5  A    between atoms: C_8  and  C_9
REMARK    6  A    between atoms: C_9  and  C_10
REMARK    7  A    between atoms: C_9  and  C_11
REMARK    8  A    between atoms: C_11  and  O_13
REMARK    9  A    between atoms: O_13  and  C_14
REMARK   10  A    between atoms: C_17  and  C_18
REMARK                            x       y       z     vdW  Elec       q    Type
REMARK                         _______ _______ _______ _____ _____    ______ ____
ROOT
ATOM      1  C   UNL     1       5.200   6.814  17.039  0.00  0.00    +0.000 C 
ATOM      2  O   UNL     1       5.921   7.721  17.434  0.00  0.00    +0.000 OA
ENDROOT
BRANCH   1   3
ATOM      3  C   UNL     1       5.602   5.371  16.782  0.00  0.00    +0.000 C 
ATOM      4  C   UNL     1       5.700   5.136  15.277  0.00  0.00    +0.000 C 
BRANCH   3   8
ATOM      5  C   UNL     1       2.867   2.650  18.803  0.00  0.00    +0.000 A 
ATOM      6  C   UNL     1       2.668   2.998  17.462  0.00  0.00    +0.000 A 
ATOM      7  C   UNL     1       3.578   3.834  16.800  0.00  0.00    +0.000 A 
ATOM      8  C   UNL     1       4.703   4.348  17.466  0.00  0.00    +0.000 A 
ATOM      9  C   UNL     1       4.932   3.941  18.786  0.00  0.00    +0.000 A 
ATOM     10  C   UNL     1       4.024   3.108  19.445  0.00  0.00    +0.000 A 
BRANCH   5  11
ATOM     11  C   UNL     1       1.834   1.869  19.584  0.00  0.00    +0.000 C 
BRANCH  11  13
ATOM     12  C   UNL     1       1.822   2.581  22.029  0.00  0.00    +0.000 C 
ATOM     13  C   UNL     1       1.087   2.639  20.689  0.00  0.00    +0.000 C 
ATOM     14  C   UNL     1       0.914   4.104  20.269  0.00  0.00    +0.000 C 
ENDBRANCH  11  13
ENDBRANCH   5  11
ENDBRANCH   3   8
ENDBRANCH   1   3
BRANCH   1  15
ATOM     15  O   UNL     1       3.841   6.950  16.759  0.00  0.00    +0.000 OA
BRANCH  15  16
ATOM     16  C   UNL     1       3.132   7.662  17.735  0.00  0.00    +0.000 A 
ATOM     17  C   UNL     1       2.584   8.918  17.458  0.00  0.00    +0.000 A 
ATOM     18  C   UNL     1       1.776   9.541  18.404  0.00  0.00    +0.000 A 
ATOM     19  C   UNL     1       1.499   8.908  19.620  0.00  0.00    +0.000 A 
ATOM     20  C   UNL     1       2.045   7.640  19.883  0.00  0.00    +0.000 A 
ATOM     21  C   UNL     1       2.864   7.012  18.939  0.00  0.00    +0.000 A 
BRANCH  19  22
ATOM     22  C   UNL     1       0.586   9.552  20.562  0.00  0.00    +0.000 A 
ATOM     23  C   UNL     1      -0.196  10.570  20.189  0.00  0.00    +0.000 A 
ATOM     24  C   UNL     1      -1.014  11.182  21.256  0.00  0.00    +0.000 A 
ATOM     25  S   UNL     1      -2.072  12.453  21.029  0.00  0.00    +0.000 S 
ATOM     26  S   UNL     1      -0.732  10.433  22.821  0.00  0.00    +0.000 S 
ATOM     27  S   UNL     1       0.599   9.013  22.195  0.00  0.00    +0.000 S 
ENDBRANCH  19  22
ENDBRANCH  15  16
ENDBRANCH   1  15
TORSDOF 7
ENDMDL
MODEL 2
REMARK VINA RESULT:      -7.3      2.331      4.828
REMARK  Name = 
REMARK  10 active torsions:
REMARK  status: ('A' for Active; 'I' for Inactive)
REMARK    1  A    between atoms: C_1  and  C_2
REMARK    2  A    between atoms: C_2  and  C_3
REMARK    3  A    between atoms: C_2  and  C_4
REMARK    4  A    between atoms: C_4  and  C_5
REMARK    5  A    between atoms: C_8  and  C_9
REMARK    6  A    between atoms: C_9  and  C_10
REMARK    7  A    between atoms: C_9  and  C_11
REMARK    8  A    between atoms: C_11  and  O_13
REMARK    9  A    between atoms: O_13  and  C_14
REMARK   10  A    between atoms: C_17  and  C_18
REMARK                            x       y       z     vdW  Elec       q    Type
REMARK                         _______ _______ _______ _____ _____    ______ ____
ROOT
ATOM      1  C   UNL     1       2.931   5.803  18.198  0.00  0.00    +0.000 C 
ATOM      2  O   UNL     1       1.785   5.440  17.971  0.00  0.00    +0.000 OA
ENDROOT
BRANCH   1   3
ATOM      3  C   UNL     1       4.166   4.923  18.294  0.00  0.00    +0.000 C 
ATOM      4  C   UNL     1       5.088   5.465  19.384  0.00  0.00    +0.000 C 
BRANCH   3   8
ATOM      5  C   UNL     1       6.006   4.369  14.385  0.00  0.00    +0.000 A 
ATOM      6  C   UNL     1       5.650   5.646  14.834  0.00  0.00    +0.000 A 
ATOM      7  C   UNL     1       5.105   5.827  16.112  0.00  0.00    +0.000 A 
ATOM      8  C   UNL     1       4.895   4.734  16.969  0.00  0.00    +0.000 A 
ATOM      9  C   UNL     1       5.316   3.469  16.540  0.00  0.00    +0.000 A 
ATOM     10  C   UNL     1       5.858   3.290  15.265  0.00  0.00    +0.000 A 
BRANCH   5  11
ATOM     11  C   UNL     1       6.462   4.122  12.964  0.00  0.00    +0.000 C 
BRANCH  11  13
ATOM     12  C   UNL     1       4.562   3.250  11.510  0.00  0.00    +0.000 C 
ATOM     13  C   UNL     1       5.853   2.900  12.253  0.00  0.00    +0.000 C 
ATOM     14  C   UNL     1       6.869   2.324  11.258  0.00  0.00    +0.000 C 
ENDBRANCH  11  13
ENDBRANCH   5  11
ENDBRANCH   3   8
ENDBRANCH   1   3
BRANCH   1  15
ATOM     15  O   UNL     1       3.315   7.127  18.406  0.00  0.00    +0.000 OA
BRANCH  15  16
ATOM     16  C   UNL     1       2.262   7.965  18.798  0.00  0.00    +0.000 A 
ATOM     17  C   UNL     1       1.815   7.991  20.121  0.00  0.00    +0.000 A 
ATOM     18  C   UNL     1       0.859   8.925  20.507  0.00  0.00    +0.000 A 
ATOM     19  C   UNL     1       0.359   9.845  19.580  0.00  0.00    +0.000 A 
ATOM     20  C   UNL     1       0.824   9.817  18.254  0.00  0.00    +0.000 A 
ATOM     21  C   UNL     1       1.781   8.876  17.859  0.00  0.00    +0.000 A 
BRANCH  19  22
ATOM     22  C   UNL     1      -0.587  10.863  20.031  0.00  0.00    +0.000 A 
ATOM     23  C   UNL     1      -0.741  11.146  21.329  0.00  0.00    +0.000 A 
ATOM     24  C   UNL     1      -1.785  12.138  21.656  0.00  0.00    +0.000 A 
ATOM     25  S   UNL     1      -2.148  12.658  23.200  0.00  0.00    +0.000 S 
ATOM     26  S   UNL     1      -2.634  12.705  20.225  0.00  0.00    +0.000 S 
ATOM     27  S   UNL     1      -1.563  11.641  18.847  0.00  0.00    +0.000 S 
ENDBRANCH  19  22
ENDBRANCH  15  16
ENDBRANCH   1  15
TORSDOF 7
ENDMDL
MODEL 3
REMARK VINA RESULT:      -7.3      0.541      1.079
REMARK  Name = 
REMARK  10 active torsions:
REMARK  status: ('A' for Active; 'I' for Inactive)
REMARK    1  A    between atoms: C_1  and  C_2
REMARK    2  A    between atoms: C_2  and  C_3
REMARK    3  A    between atoms: C_2  and  C_4
REMARK    4  A    between atoms: C_4  and  C_5
REMARK    5  A    between atoms: C_8  and  C_9
REMARK    6  A    between atoms: C_9  and  C_10
REMARK    7  A    between atoms: C_9  and  C_11
REMARK    8  A    between atoms: C_11  and  O_13
REMARK    9  A    between atoms: O_13  and  C_14
REMARK   10  A    between atoms: C_17  and  C_18
REMARK                            x       y       z     vdW  Elec       q    Type
REMARK                         _______ _______ _______ _____ _____    ______ ____
ROOT
ATOM      1  C   UNL     1       5.413   6.844  17.205  0.00  0.00    +0.000 C 
ATOM      2  O   UNL     1       6.039   7.770  17.700  0.00  0.00    +0.000 OA
ENDROOT
BRANCH   1   3
ATOM      3  C   UNL     1       5.886   5.410  17.028  0.00  0.00    +0.000 C 
ATOM      4  C   UNL     1       6.172   5.153  15.550  0.00  0.00    +0.000 C 
BRANCH   3   8
ATOM      5  C   UNL     1       3.014   2.639  18.773  0.00  0.00    +0.000 A 
ATOM      6  C   UNL     1       2.927   3.005  17.425  0.00  0.00    +0.000 A 
ATOM      7  C   UNL     1       3.882   3.857  16.853  0.00  0.00    +0.000 A 
ATOM      8  C   UNL     1       4.942   4.370  17.619  0.00  0.00    +0.000 A 
ATOM      9  C   UNL     1       5.061   3.946  18.948  0.00  0.00    +0.000 A 
ATOM     10  C   UNL     1       4.108   3.097  19.517  0.00  0.00    +0.000 A 
BRANCH   5  11
ATOM     11  C   UNL     1       1.926   1.839  19.454  0.00  0.00    +0.000 C 
BRANCH  11  13
ATOM     12  C   UNL     1       1.792   2.533  21.900  0.00  0.00    +0.000 C 
ATOM     13  C   UNL     1       1.109   2.575  20.532  0.00  0.00    +0.000 C 
ATOM     14  C   UNL     1       0.903   4.037  20.114  0.00  0.00    +0.000 C 
ENDBRANCH  11  13
ENDBRANCH   5  11
ENDBRANCH   3   8
ENDBRANCH   1   3
BRANCH   1  15
ATOM     15  O   UNL     1       4.112   6.944  16.711  0.00  0.00    +0.000 OA
BRANCH  15  16
ATOM     16  C   UNL     1       3.203   7.495  17.623  0.00  0.00    +0.000 A 
ATOM     17  C   UNL     1       2.971   6.895  18.864  0.00  0.00    +0.000 A 
ATOM     18  C   UNL     1       2.164   7.535  19.798  0.00  0.00    +0.000 A 
ATOM     19  C   UNL     1       1.599   8.780  19.506  0.00  0.00    +0.000 A 
ATOM     20  C   UNL     1       1.849   9.380  18.260  0.00  0.00    +0.000 A 
ATOM     21  C   UNL     1       2.655   8.739  17.314  0.00  0.00    +0.000 A 
BRANCH  19  22
ATOM     22  C   UNL     1       0.818   9.463  20.535  0.00  0.00    +0.000 A 
ATOM     23  C   UNL     1       0.667  10.792  20.529  0.00  0.00    +0.000 A 
ATOM     24  C   UNL     1      -0.079  11.363  21.668  0.00  0.00    +0.000 A 
ATOM     25  S   UNL     1      -0.403  12.989  21.871  0.00  0.00    +0.000 S 
ATOM     26  S   UNL     1      -0.578  10.132  22.820  0.00  0.00    +0.000 S 
ATOM     27  S   UNL     1       0.155   8.515  21.808  0.00  0.00    +0.000 S 
ENDBRANCH  19  22
ENDBRANCH  15  16
ENDBRANCH   1  15
TORSDOF 7
ENDMDL
MODEL 4
REMARK VINA RESULT:      -7.2      2.519      4.985
REMARK  Name = 
REMARK  10 active torsions:
REMARK  status: ('A' for Active; 'I' for Inactive)
REMARK    1  A    between atoms: C_1  and  C_2
REMARK    2  A    between atoms: C_2  and  C_3
REMARK    3  A    between atoms: C_2  and  C_4
REMARK    4  A    between atoms: C_4  and  C_5
REMARK    5  A    between atoms: C_8  and  C_9
REMARK    6  A    between atoms: C_9  and  C_10
REMARK    7  A    between atoms: C_9  and  C_11
REMARK    8  A    between atoms: C_11  and  O_13
REMARK    9  A    between atoms: O_13  and  C_14
REMARK   10  A    between atoms: C_17  and  C_18
REMARK                            x       y       z     vdW  Elec       q    Type
REMARK                         _______ _______ _______ _____ _____    ______ ____
ROOT
ATOM      1  C   UNL     1       3.840   4.998  18.864  0.00  0.00    +0.000 C 
ATOM      2  O   UNL     1       2.773   4.463  18.595  0.00  0.00    +0.000 OA
ENDROOT
BRANCH   1   3
ATOM      3  C   UNL     1       5.231   4.491  18.518  0.00  0.00    +0.000 C 
ATOM      4  C   UNL     1       6.263   5.245  19.352  0.00  0.00    +0.000 C 
BRANCH   3   8
ATOM      5  C   UNL     1       6.108   4.352  14.254  0.00  0.00    +0.000 A 
ATOM      6  C   UNL     1       4.792   4.495  14.709  0.00  0.00    +0.000 A 
ATOM      7  C   UNL     1       4.518   4.590  16.080  0.00  0.00    +0.000 A 
ATOM      8  C   UNL     1       5.552   4.536  17.029  0.00  0.00    +0.000 A 
ATOM      9  C   UNL     1       6.871   4.462  16.564  0.00  0.00    +0.000 A 
ATOM     10  C   UNL     1       7.143   4.367  15.196  0.00  0.00    +0.000 A 
BRANCH   5  11
ATOM     11  C   UNL     1       6.424   4.105  12.795  0.00  0.00    +0.000 C 
BRANCH  11  13
ATOM     12  C   UNL     1       4.608   3.055  11.351  0.00  0.00    +0.000 C 
ATOM     13  C   UNL     1       5.865   2.806  12.186  0.00  0.00    +0.000 C 
ATOM     14  C   UNL     1       6.936   2.149  11.304  0.00  0.00    +0.000 C 
ENDBRANCH  11  13
ENDBRANCH   5  11
ENDBRANCH   3   8
ENDBRANCH   1   3
BRANCH   1  15
ATOM     15  O   UNL     1       3.967   6.207  19.546  0.00  0.00    +0.000 OA
BRANCH  15  16
ATOM     16  C   UNL     1       2.937   7.118  19.278  0.00  0.00    +0.000 A 
ATOM     17  C   UNL     1       2.027   7.490  20.271  0.00  0.00    +0.000 A 
ATOM     18  C   UNL     1       1.097   8.492  20.012  0.00  0.00    +0.000 A 
ATOM     19  C   UNL     1       1.082   9.135  18.770  0.00  0.00    +0.000 A 
ATOM     20  C   UNL     1       2.009   8.760  17.783  0.00  0.00    +0.000 A 
ATOM     21  C   UNL     1       2.943   7.749  18.035  0.00  0.00    +0.000 A 
BRANCH  19  22
ATOM     22  C   UNL     1       0.145  10.235  18.553  0.00  0.00    +0.000 A 
ATOM     23  C   UNL     1      -1.042  10.036  17.970  0.00  0.00    +0.000 A 
ATOM     24  C   UNL     1      -1.860  11.244  17.739  0.00  0.00    +0.000 A 
ATOM     25  S   UNL     1      -3.376  11.243  17.040  0.00  0.00    +0.000 S 
ATOM     26  S   UNL     1      -1.044  12.709  18.265  0.00  0.00    +0.000 S 
ATOM     27  S   UNL     1       0.643  11.820  19.001  0.00  0.00    +0.000 S 
ENDBRANCH  19  22
ENDBRANCH  15  16
ENDBRANCH   1  15
TORSDOF 7
ENDMDL
MODEL 5
REMARK VINA RESULT:      -7.1      2.145      4.844
REMARK  Name = 
REMARK  10 active torsions:
REMARK  status: ('A' for Active; 'I' for Inactive)
REMARK    1  A    between atoms: C_1  and  C_2
REMARK    2  A    between atoms: C_2  and  C_3
REMARK    3  A    between atoms: C_2  and  C_4
REMARK    4  A    between atoms: C_4  and  C_5
REMARK    5  A    between atoms: C_8  and  C_9
REMARK    6  A    between atoms: C_9  and  C_10
REMARK    7  A    between atoms: C_9  and  C_11
REMARK    8  A    between atoms: C_11  and  O_13
REMARK    9  A    between atoms: O_13  and  C_14
REMARK   10  A    between atoms: C_17  and  C_18
REMARK                            x       y       z     vdW  Elec       q    Type
REMARK                         _______ _______ _______ _____ _____    ______ ____
ROOT
ATOM      1  C   UNL     1       2.172   5.568  19.527  0.00  0.00    +0.000 C 
ATOM      2  O   UNL     1       1.725   4.993  20.510  0.00  0.00    +0.000 OA
ENDROOT
BRANCH   1   3
ATOM      3  C   UNL     1       2.110   5.096  18.084  0.00  0.00    +0.000 C 
ATOM      4  C   UNL     1       1.324   3.789  18.015  0.00  0.00    +0.000 C 
BRANCH   3   8
ATOM      5  C   UNL     1       5.880   4.799  15.923  0.00  0.00    +0.000 A 
ATOM      6  C   UNL     1       5.358   6.047  16.282  0.00  0.00    +0.000 A 
ATOM      7  C   UNL     1       4.170   6.137  17.021  0.00  0.00    +0.000 A 
ATOM      8  C   UNL     1       3.473   4.982  17.411  0.00  0.00    +0.000 A 
ATOM      9  C   UNL     1       4.036   3.737  17.107  0.00  0.00    +0.000 A 
ATOM     10  C   UNL     1       5.219   3.648  16.370  0.00  0.00    +0.000 A 
BRANCH   5  11
ATOM     11  C   UNL     1       7.077   4.670  15.008  0.00  0.00    +0.000 C 
BRANCH  11  13
ATOM     12  C   UNL     1       8.060   5.404  12.776  0.00  0.00    +0.000 C 
ATOM     13  C   UNL     1       6.817   4.892  13.507  0.00  0.00    +0.000 C 
ATOM     14  C   UNL     1       6.358   3.577  12.863  0.00  0.00    +0.000 C 
ENDBRANCH  11  13
ENDBRANCH   5  11
ENDBRANCH   3   8
ENDBRANCH   1   3
BRANCH   1  15
ATOM     15  O   UNL     1       2.827   6.799  19.561  0.00  0.00    +0.000 OA
BRANCH  15  16
ATOM     16  C   UNL     1       1.968   7.890  19.744  0.00  0.00    +0.000 A 
ATOM     17  C   UNL     1       1.406   8.165  20.994  0.00  0.00    +0.000 A 
ATOM     18  C   UNL     1       0.663   9.327  21.174  0.00  0.00    +0.000 A 
ATOM     19  C   UNL     1       0.492  10.226  20.116  0.00  0.00    +0.000 A 
ATOM     20  C   UNL     1       1.072   9.945  18.867  0.00  0.00    +0.000 A 
ATOM     21  C   UNL     1       1.814   8.775  18.678  0.00  0.00    +0.000 A 
BRANCH  19  22
ATOM     22  C   UNL     1      -0.228  11.474  20.356  0.00  0.00    +0.000 A 
ATOM     23  C   UNL     1       0.267  12.422  21.159  0.00  0.00    +0.000 A 
ATOM     24  C   UNL     1      -0.596  13.600  21.378  0.00  0.00    +0.000 A 
ATOM     25  S   UNL     1      -0.187  14.912  22.327  0.00  0.00    +0.000 S 
ATOM     26  S   UNL     1      -2.134  13.462  20.539  0.00  0.00    +0.000 S 
ATOM     27  S   UNL     1      -1.778  11.664  19.635  0.00  0.00    +0.000 S 
ENDBRANCH  19  22
ENDBRANCH  15  16
ENDBRANCH   1  15
TORSDOF 7
ENDMDL
MODEL 6
REMARK VINA RESULT:      -7.1      2.254      4.741
REMARK  Name = 
REMARK  10 active torsions:
REMARK  status: ('A' for Active; 'I' for Inactive)
REMARK    1  A    between atoms: C_1  and  C_2
REMARK    2  A    between atoms: C_2  and  C_3
REMARK    3  A    between atoms: C_2  and  C_4
REMARK    4  A    between atoms: C_4  and  C_5
REMARK    5  A    between atoms: C_8  and  C_9
REMARK    6  A    between atoms: C_9  and  C_10
REMARK    7  A    between atoms: C_9  and  C_11
REMARK    8  A    between atoms: C_11  and  O_13
REMARK    9  A    between atoms: O_13  and  C_14
REMARK   10  A    between atoms: C_17  and  C_18
REMARK                            x       y       z     vdW  Elec       q    Type
REMARK                         _______ _______ _______ _____ _____    ______ ____
ROOT
ATOM      1  C   UNL     1       4.964   5.667  18.253  0.00  0.00    +0.000 C 
ATOM      2  O   UNL     1       4.726   5.073  19.295  0.00  0.00    +0.000 OA
ENDROOT
BRANCH   1   3
ATOM      3  C   UNL     1       6.324   5.862  17.602  0.00  0.00    +0.000 C 
ATOM      4  C   UNL     1       6.635   7.355  17.522  0.00  0.00    +0.000 C 
BRANCH   3   8
ATOM      5  C   UNL     1       6.541   4.065  13.640  0.00  0.00    +0.000 A 
ATOM      6  C   UNL     1       7.325   5.179  13.964  0.00  0.00    +0.000 A 
ATOM      7  C   UNL     1       7.290   5.724  15.255  0.00  0.00    +0.000 A 
ATOM      8  C   UNL     1       6.465   5.174  16.249  0.00  0.00    +0.000 A 
ATOM      9  C   UNL     1       5.736   4.019  15.938  0.00  0.00    +0.000 A 
ATOM     10  C   UNL     1       5.771   3.477  14.650  0.00  0.00    +0.000 A 
BRANCH   5  11
ATOM     11  C   UNL     1       6.448   3.542  12.224  0.00  0.00    +0.000 C 
BRANCH  11  13
ATOM     12  C   UNL     1       4.158   3.167  11.175  0.00  0.00    +0.000 C 
ATOM     13  C   UNL     1       5.321   2.533  11.940  0.00  0.00    +0.000 C 
ATOM     14  C   UNL     1       5.877   1.354  11.130  0.00  0.00    +0.000 C 
ENDBRANCH  11  13
ENDBRANCH   5  11
ENDBRANCH   3   8
ENDBRANCH   1   3
BRANCH   1  15
ATOM     15  O   UNL     1       4.000   6.279  17.453  0.00  0.00    +0.000 OA
BRANCH  15  16
ATOM     16  C   UNL     1       3.044   7.004  18.177  0.00  0.00    +0.000 A 
ATOM     17  C   UNL     1       2.635   6.592  19.448  0.00  0.00    +0.000 A 
ATOM     18  C   UNL     1       1.785   7.402  20.194  0.00  0.00    +0.000 A 
ATOM     19  C   UNL     1       1.353   8.630  19.683  0.00  0.00    +0.000 A 
ATOM     20  C   UNL     1       1.780   9.040  18.409  0.00  0.00    +0.000 A 
ATOM     21  C   UNL     1       2.630   8.227  17.651  0.00  0.00    +0.000 A 
BRANCH  19  22
ATOM     22  C   UNL     1       0.522   9.493  20.520  0.00  0.00    +0.000 A 
ATOM     23  C   UNL     1      -0.270  10.429  19.987  0.00  0.00    +0.000 A 
ATOM     24  C   UNL     1      -0.996  11.285  20.946  0.00  0.00    +0.000 A 
ATOM     25  S   UNL     1      -2.048  12.508  20.518  0.00  0.00    +0.000 S 
ATOM     26  S   UNL     1      -0.611  10.887  22.615  0.00  0.00    +0.000 S 
ATOM     27  S   UNL     1       0.647   9.324  22.227  0.00  0.00    +0.000 S 
ENDBRANCH  19  22
ENDBRANCH  15  16
ENDBRANCH   1  15
TORSDOF 7
ENDMDL
MODEL 7
REMARK VINA RESULT:      -7.0      2.505      5.026
REMARK  Name = 
REMARK  10 active torsions:
REMARK  status: ('A' for Active; 'I' for Inactive)
REMARK    1  A    between atoms: C_1  and  C_2
REMARK    2  A    between atoms: C_2  and  C_3
REMARK    3  A    between atoms: C_2  and  C_4
REMARK    4  A    between atoms: C_4  and  C_5
REMARK    5  A    between atoms: C_8  and  C_9
REMARK    6  A    between atoms: C_9  and  C_10
REMARK    7  A    between atoms: C_9  and  C_11
REMARK    8  A    between atoms: C_11  and  O_13
REMARK    9  A    between atoms: O_13  and  C_14
REMARK   10  A    between atoms: C_17  and  C_18
REMARK                            x       y       z     vdW  Elec       q    Type
REMARK                         _______ _______ _______ _____ _____    ______ ____
ROOT
ATOM      1  C   UNL     1       3.079   5.001  18.905  0.00  0.00    +0.000 C 
ATOM      2  O   UNL     1       2.080   4.611  18.315  0.00  0.00    +0.000 OA
ENDROOT
BRANCH   1   3
ATOM      3  C   UNL     1       4.518   4.590  18.640  0.00  0.00    +0.000 C 
ATOM      4  C   UNL     1       5.458   5.535  19.384  0.00  0.00    +0.000 C 
BRANCH   3   8
ATOM      5  C   UNL     1       5.774   4.253  14.483  0.00  0.00    +0.000 A 
ATOM      6  C   UNL     1       5.502   3.109  15.243  0.00  0.00    +0.000 A 
ATOM      7  C   UNL     1       5.049   3.222  16.565  0.00  0.00    +0.000 A 
ATOM      8  C   UNL     1       4.866   4.481  17.160  0.00  0.00    +0.000 A 
ATOM      9  C   UNL     1       5.076   5.620  16.373  0.00  0.00    +0.000 A 
ATOM     10  C   UNL     1       5.528   5.506  15.056  0.00  0.00    +0.000 A 
BRANCH   5  11
ATOM     11  C   UNL     1       6.398   4.166  13.108  0.00  0.00    +0.000 C 
BRANCH  11  13
ATOM     12  C   UNL     1       4.676   3.248  11.472  0.00  0.00    +0.000 C 
ATOM     13  C   UNL     1       5.970   2.969  12.238  0.00  0.00    +0.000 C 
ATOM     14  C   UNL     1       7.086   2.633  11.241  0.00  0.00    +0.000 C 
ENDBRANCH  11  13
ENDBRANCH   5  11
ENDBRANCH   3   8
ENDBRANCH   1   3
BRANCH   1  15
ATOM     15  O   UNL     1       3.069   5.927  19.948  0.00  0.00    +0.000 OA
BRANCH  15  16
ATOM     16  C   UNL     1       2.389   7.113  19.642  0.00  0.00    +0.000 A 
ATOM     17  C   UNL     1       1.601   7.760  20.598  0.00  0.00    +0.000 A 
ATOM     18  C   UNL     1       1.045   9.001  20.307  0.00  0.00    +0.000 A 
ATOM     19  C   UNL     1       1.284   9.608  19.069  0.00  0.00    +0.000 A 
ATOM     20  C   UNL     1       2.088   8.954  18.120  0.00  0.00    +0.000 A 
ATOM     21  C   UNL     1       2.645   7.703  18.405  0.00  0.00    +0.000 A 
BRANCH  19  22
ATOM     22  C   UNL     1       0.750  10.945  18.820  0.00  0.00    +0.000 A 
ATOM     23  C   UNL     1       1.516  12.035  18.937  0.00  0.00    +0.000 A 
ATOM     24  C   UNL     1       0.834  13.329  18.735  0.00  0.00    +0.000 A 
ATOM     25  S   UNL     1       1.583  14.819  18.816  0.00  0.00    +0.000 S 
ATOM     26  S   UNL     1      -0.884  13.132  18.416  0.00  0.00    +0.000 S 
ATOM     27  S   UNL     1      -0.922  11.089  18.446  0.00  0.00    +0.000 S 
ENDBRANCH  19  22
ENDBRANCH  15  16
ENDBRANCH   1  15
TORSDOF 7
ENDMDL
MODEL 8
REMARK VINA RESULT:      -7.0      3.311      5.653
REMARK  Name = 
REMARK  10 active torsions:
REMARK  status: ('A' for Active; 'I' for Inactive)
REMARK    1  A    between atoms: C_1  and  C_2
REMARK    2  A    between atoms: C_2  and  C_3
REMARK    3  A    between atoms: C_2  and  C_4
REMARK    4  A    between atoms: C_4  and  C_5
REMARK    5  A    between atoms: C_8  and  C_9
REMARK    6  A    between atoms: C_9  and  C_10
REMARK    7  A    between atoms: C_9  and  C_11
REMARK    8  A    between atoms: C_11  and  O_13
REMARK    9  A    between atoms: O_13  and  C_14
REMARK   10  A    between atoms: C_17  and  C_18
REMARK                            x       y       z     vdW  Elec       q    Type
REMARK                         _______ _______ _______ _____ _____    ______ ____
ROOT
ATOM      1  C   UNL     1       5.448   4.872  18.293  0.00  0.00    +0.000 C 
ATOM      2  O   UNL     1       5.625   4.341  19.380  0.00  0.00    +0.000 OA
ENDROOT
BRANCH   1   3
ATOM      3  C   UNL     1       6.516   5.381  17.338  0.00  0.00    +0.000 C 
ATOM      4  C   UNL     1       7.602   4.320  17.185  0.00  0.00    +0.000 C 
BRANCH   3   8
ATOM      5  C   UNL     1       8.333   9.239  18.226  0.00  0.00    +0.000 A 
ATOM      6  C   UNL     1       7.287   9.137  17.301  0.00  0.00    +0.000 A 
ATOM      7  C   UNL     1       6.671   7.902  17.054  0.00  0.00    +0.000 A 
ATOM      8  C   UNL     1       7.091   6.740  17.721  0.00  0.00    +0.000 A 
ATOM      9  C   UNL     1       8.090   6.862  18.695  0.00  0.00    +0.000 A 
ATOM     10  C   UNL     1       8.704   8.093  18.939  0.00  0.00    +0.000 A 
BRANCH   5  11
ATOM     11  C   UNL     1       9.111  10.523  18.410  0.00  0.00    +0.000 C 
BRANCH  11  13
ATOM     12  C   UNL     1      11.283  11.424  19.388  0.00  0.00    +0.000 C 
ATOM     13  C   UNL     1      10.020  10.600  19.650  0.00  0.00    +0.000 C 
ATOM     14  C   UNL     1       9.245  11.219  20.820  0.00  0.00    +0.000 C 
ENDBRANCH  11  13
ENDBRANCH   5  11
ENDBRANCH   3   8
ENDBRANCH   1   3
BRANCH   1  15
ATOM     15  O   UNL     1       4.198   5.102  17.719  0.00  0.00    +0.000 OA
BRANCH  15  16
ATOM     16  C   UNL     1       3.510   6.185  18.281  0.00  0.00    +0.000 A 
ATOM     17  C   UNL     1       3.301   7.362  17.557  0.00  0.00    +0.000 A 
ATOM     18  C   UNL     1       2.504   8.368  18.093  0.00  0.00    +0.000 A 
ATOM     19  C   UNL     1       1.899   8.197  19.343  0.00  0.00    +0.000 A 
ATOM     20  C   UNL     1       2.106   7.005  20.056  0.00  0.00    +0.000 A 
ATOM     21  C   UNL     1       2.912   5.992  19.526  0.00  0.00    +0.000 A 
BRANCH  19  22
ATOM     22  C   UNL     1       1.006   9.238  19.845  0.00  0.00    +0.000 A 
ATOM     23  C   UNL     1       0.410  10.106  19.020  0.00  0.00    +0.000 A 
ATOM     24  C   UNL     1      -0.404  11.156  19.662  0.00  0.00    +0.000 A 
ATOM     25  S   UNL     1      -1.249  12.338  18.839  0.00  0.00    +0.000 S 
ATOM     26  S   UNL     1      -0.371  11.042  21.416  0.00  0.00    +0.000 S 
ATOM     27  S   UNL     1       0.797   9.371  21.548  0.00  0.00    +0.000 S 
ENDBRANCH  19  22
ENDBRANCH  15  16
ENDBRANCH   1  15
TORSDOF 7
ENDMDL
MODEL 9
REMARK VINA RESULT:      -6.9      2.067      4.704
REMARK  Name = 
REMARK  10 active torsions:
REMARK  status: ('A' for Active; 'I' for Inactive)
REMARK    1  A    between atoms: C_1  and  C_2
REMARK    2  A    between atoms: C_2  and  C_3
REMARK    3  A    between atoms: C_2  and  C_4
REMARK    4  A    between atoms: C_4  and  C_5
REMARK    5  A    between atoms: C_8  and  C_9
REMARK    6  A    between atoms: C_9  and  C_10
REMARK    7  A    between atoms: C_9  and  C_11
REMARK    8  A    between atoms: C_11  and  O_13
REMARK    9  A    between atoms: O_13  and  C_14
REMARK   10  A    between atoms: C_17  and  C_18
REMARK                            x       y       z     vdW  Elec       q    Type
REMARK                         _______ _______ _______ _____ _____    ______ ____
ROOT
ATOM      1  C   UNL     1       2.354   5.199  20.199  0.00  0.00    +0.000 C 
ATOM      2  O   UNL     1       2.279   4.555  21.236  0.00  0.00    +0.000 OA
ENDROOT
BRANCH   1   3
ATOM      3  C   UNL     1       1.879   4.771  18.820  0.00  0.00    +0.000 C 
ATOM      4  C   UNL     1       1.061   3.487  18.945  0.00  0.00    +0.000 C 
BRANCH   3   8
ATOM      5  C   UNL     1       5.247   4.352  16.090  0.00  0.00    +0.000 A 
ATOM      6  C   UNL     1       4.518   3.231  16.504  0.00  0.00    +0.000 A 
ATOM      7  C   UNL     1       3.404   3.374  17.343  0.00  0.00    +0.000 A 
ATOM      8  C   UNL     1       2.997   4.641  17.793  0.00  0.00    +0.000 A 
ATOM      9  C   UNL     1       3.689   5.763  17.321  0.00  0.00    +0.000 A 
ATOM     10  C   UNL     1       4.800   5.618  16.486  0.00  0.00    +0.000 A 
BRANCH   5  11
ATOM     11  C   UNL     1       6.533   4.220  15.305  0.00  0.00    +0.000 C 
BRANCH  11  13
ATOM     12  C   UNL     1       7.811   5.305  13.388  0.00  0.00    +0.000 C 
ATOM     13  C   UNL     1       6.488   4.681  13.837  0.00  0.00    +0.000 C 
ATOM     14  C   UNL     1       6.159   3.486  12.932  0.00  0.00    +0.000 C 
ENDBRANCH  11  13
ENDBRANCH   5  11
ENDBRANCH   3   8
ENDBRANCH   1   3
BRANCH   1  15
ATOM     15  O   UNL     1       2.897   6.480  20.101  0.00  0.00    +0.000 OA
BRANCH  15  16
ATOM     16  C   UNL     1       1.942   7.503  20.167  0.00  0.00    +0.000 A 
ATOM     17  C   UNL     1       1.116   7.648  21.284  0.00  0.00    +0.000 A 
ATOM     18  C   UNL     1       0.270   8.749  21.377  0.00  0.00    +0.000 A 
ATOM     19  C   UNL     1       0.258   9.716  20.366  0.00  0.00    +0.000 A 
ATOM     20  C   UNL     1       1.103   9.566  19.253  0.00  0.00    +0.000 A 
ATOM     21  C   UNL     1       1.951   8.458  19.150  0.00  0.00    +0.000 A 
BRANCH  19  22
ATOM     22  C   UNL     1      -0.583  10.899  20.527  0.00  0.00    +0.000 A 
ATOM     23  C   UNL     1      -0.609  11.586  21.674  0.00  0.00    +0.000 A 
ATOM     24  C   UNL     1      -1.560  12.714  21.731  0.00  0.00    +0.000 A 
ATOM     25  S   UNL     1      -1.760  13.721  23.048  0.00  0.00    +0.000 S 
ATOM     26  S   UNL     1      -2.492  12.874  20.248  0.00  0.00    +0.000 S 
ATOM     27  S   UNL     1      -1.607  11.346  19.218  0.00  0.00    +0.000 S 
ENDBRANCH  19  22
ENDBRANCH  15  16
ENDBRANCH   1  15
TORSDOF 7
ENDMDL
