MODEL 1
REMARK VINA RESULT:      -8.5      0.000      0.000
REMARK  Name = 
REMARK  3 active torsions:
REMARK  status: ('A' for Active; 'I' for Inactive)
REMARK    1  A    between atoms: C_1  and  C_2
REMARK    2  A    between atoms: C_2  and  C_4
REMARK    3  A    between atoms: C_7  and  N_8
REMARK                            x       y       z     vdW  Elec       q    Type
REMARK                         _______ _______ _______ _____ _____    ______ ____
ROOT
ATOM      1  N   UNL     1       4.280   3.962  17.661  0.00  0.00    +0.000 N 
ATOM      2  C   UNL     1       3.814   2.760  18.152  0.00  0.00    +0.000 C 
ATOM      3  O   UNL     1       3.702   1.683  17.589  0.00  0.00    +0.000 OA
ATOM      4  C   UNL     1       3.518   2.933  19.605  0.00  0.00    +0.000 C 
ATOM      5  C   UNL     1       2.217   2.270  20.089  0.00  0.00    +0.000 C 
ATOM      6  C   UNL     1       1.012   3.001  19.532  0.00  0.00    +0.000 C 
ATOM      7  C   UNL     1       0.991   4.320  19.785  0.00  0.00    +0.000 C 
ATOM      8  C   UNL     1       2.196   4.841  20.543  0.00  0.00    +0.000 C 
ATOM      9  C   UNL     1       2.235   4.046  21.892  0.00  0.00    +0.000 C 
ATOM     10  C   UNL     1       2.151   2.514  21.615  0.00  0.00    +0.000 C 
ATOM     11  C   UNL     1       3.500   4.446  19.819  0.00  0.00    +0.000 C 
ATOM     12  C   UNL     1       3.858   5.011  18.461  0.00  0.00    +0.000 C 
ATOM     13  O   UNL     1       3.832   6.209  18.201  0.00  0.00    +0.000 OA
ENDROOT
BRANCH   1  17
ATOM     14  C   UNL     1       6.864   4.757  14.354  0.00  0.00    +0.000 A 
ATOM     15  C   UNL     1       7.329   4.864  15.661  0.00  0.00    +0.000 A 
ATOM     16  C   UNL     1       6.508   4.510  16.738  0.00  0.00    +0.000 A 
ATOM     17  C   UNL     1       5.190   4.063  16.554  0.00  0.00    +0.000 A 
ATOM     18  C   UNL     1       4.753   3.907  15.226  0.00  0.00    +0.000 A 
ATOM     19  C   UNL     1       5.577   4.259  14.135  0.00  0.00    +0.000 A 
BRANCH  14  21
ATOM     20  C   UNL     1       7.451   4.806  11.846  0.00  0.00    +0.000 C 
ATOM     21  C   UNL     1       7.762   5.221  13.258  0.00  0.00    +0.000 C 
ATOM     22  O   UNL     1       8.745   5.911  13.524  0.00  0.00    +0.000 OA
ENDBRANCH  14  21
ENDBRANCH   1  17
TORSDOF 2
ENDMDL
MODEL 2
REMARK VINA RESULT:      -8.2      1.170      1.463
REMARK  Name = 
REMARK  3 active torsions:
REMARK  status: ('A' for Active; 'I' for Inactive)
REMARK    1  A    between atoms: C_1  and  C_2
REMARK    2  A    between atoms: C_2  and  C_4
REMARK    3  A    between atoms: C_7  and  N_8
REMARK                            x       y       z     vdW  Elec       q    Type
REMARK                         _______ _______ _______ _____ _____    ______ ____
ROOT
ATOM      1  N   UNL     1       3.853   4.369  17.730  0.00  0.00    +0.000 N 
ATOM      2  C   UNL     1       2.632   3.727  17.751  0.00  0.00    +0.000 C 
ATOM      3  O   UNL     1       1.797   3.617  16.867  0.00  0.00    +0.000 OA
ATOM      4  C   UNL     1       2.483   3.053  19.074  0.00  0.00    +0.000 C 
ATOM      5  C   UNL     1       1.088   3.170  19.713  0.00  0.00    +0.000 C 
ATOM      6  C   UNL     1       0.831   4.594  20.163  0.00  0.00    +0.000 C 
ATOM      7  C   UNL     1       1.768   5.100  20.981  0.00  0.00    +0.000 C 
ATOM      8  C   UNL     1       2.930   4.171  21.270  0.00  0.00    +0.000 C 
ATOM      9  C   UNL     1       2.306   2.887  21.913  0.00  0.00    +0.000 C 
ATOM     10  C   UNL     1       1.144   2.350  21.023  0.00  0.00    +0.000 C 
ATOM     11  C   UNL     1       3.566   3.679  19.953  0.00  0.00    +0.000 C 
ATOM     12  C   UNL     1       4.292   4.624  19.018  0.00  0.00    +0.000 C 
ATOM     13  O   UNL     1       5.163   5.402  19.390  0.00  0.00    +0.000 OA
ENDROOT
BRANCH   1  17
ATOM     14  C   UNL     1       6.500   5.016  14.441  0.00  0.00    +0.000 A 
ATOM     15  C   UNL     1       6.092   3.730  14.782  0.00  0.00    +0.000 A 
ATOM     16  C   UNL     1       5.150   3.531  15.798  0.00  0.00    +0.000 A 
ATOM     17  C   UNL     1       4.602   4.599  16.526  0.00  0.00    +0.000 A 
ATOM     18  C   UNL     1       4.983   5.895  16.132  0.00  0.00    +0.000 A 
ATOM     19  C   UNL     1       5.930   6.104  15.106  0.00  0.00    +0.000 A 
BRANCH  14  21
ATOM     20  C   UNL     1       7.400   4.407  12.105  0.00  0.00    +0.000 C 
ATOM     21  C   UNL     1       7.560   5.153  13.401  0.00  0.00    +0.000 C 
ATOM     22  O   UNL     1       8.549   5.851  13.624  0.00  0.00    +0.000 OA
ENDBRANCH  14  21
ENDBRANCH   1  17
TORSDOF 2
ENDMDL
MODEL 3
REMARK VINA RESULT:      -8.1      0.576      1.091
REMARK  Name = 
REMARK  3 active torsions:
REMARK  status: ('A' for Active; 'I' for Inactive)
REMARK    1  A    between atoms: C_1  and  C_2
REMARK    2  A    between atoms: C_2  and  C_4
REMARK    3  A    between atoms: C_7  and  N_8
REMARK                            x       y       z     vdW  Elec       q    Type
REMARK                         _______ _______ _______ _____ _____    ______ ____
ROOT
ATOM      1  N   UNL     1       4.195   4.392  17.945  0.00  0.00    +0.000 N 
ATOM      2  C   UNL     1       3.816   3.092  18.208  0.00  0.00    +0.000 C 
ATOM      3  O   UNL     1       3.805   2.120  17.468  0.00  0.00    +0.000 OA
ATOM      4  C   UNL     1       3.473   2.990  19.658  0.00  0.00    +0.000 C 
ATOM      5  C   UNL     1       2.218   2.157  19.975  0.00  0.00    +0.000 C 
ATOM      6  C   UNL     1       0.972   2.880  19.504  0.00  0.00    +0.000 C 
ATOM      7  C   UNL     1       0.838   4.130  19.975  0.00  0.00    +0.000 C 
ATOM      8  C   UNL     1       1.978   4.604  20.854  0.00  0.00    +0.000 C 
ATOM      9  C   UNL     1       2.049   3.596  22.050  0.00  0.00    +0.000 C 
ATOM     10  C   UNL     1       2.096   2.132  21.516  0.00  0.00    +0.000 C 
ATOM     11  C   UNL     1       3.327   4.439  20.123  0.00  0.00    +0.000 C 
ATOM     12  C   UNL     1       3.671   5.253  18.894  0.00  0.00    +0.000 C 
ATOM     13  O   UNL     1       3.554   6.472  18.839  0.00  0.00    +0.000 OA
ENDROOT
BRANCH   1  17
ATOM     14  C   UNL     1       6.853   4.989  14.655  0.00  0.00    +0.000 A 
ATOM     15  C   UNL     1       5.514   5.354  14.562  0.00  0.00    +0.000 A 
ATOM     16  C   UNL     1       4.669   5.246  15.673  0.00  0.00    +0.000 A 
ATOM     17  C   UNL     1       5.120   4.748  16.906  0.00  0.00    +0.000 A 
ATOM     18  C   UNL     1       6.489   4.435  17.000  0.00  0.00    +0.000 A 
ATOM     19  C   UNL     1       7.347   4.545  15.885  0.00  0.00    +0.000 A 
BRANCH  14  21
ATOM     20  C   UNL     1       7.264   4.235  12.227  0.00  0.00    +0.000 C 
ATOM     21  C   UNL     1       7.679   5.058  13.416  0.00  0.00    +0.000 C 
ATOM     22  O   UNL     1       8.685   5.764  13.390  0.00  0.00    +0.000 OA
ENDBRANCH  14  21
ENDBRANCH   1  17
TORSDOF 2
ENDMDL
MODEL 4
REMARK VINA RESULT:      -7.9      1.165      1.373
REMARK  Name = 
REMARK  3 active torsions:
REMARK  status: ('A' for Active; 'I' for Inactive)
REMARK    1  A    between atoms: C_1  and  C_2
REMARK    2  A    between atoms: C_2  and  C_4
REMARK    3  A    between atoms: C_7  and  N_8
REMARK                            x       y       z     vdW  Elec       q    Type
REMARK                         _______ _______ _______ _____ _____    ______ ____
ROOT
ATOM      1  N   UNL     1       4.158   4.336  17.912  0.00  0.00    +0.000 N 
ATOM      2  C   UNL     1       2.965   3.656  17.781  0.00  0.00    +0.000 C 
ATOM      3  O   UNL     1       2.285   3.466  16.785  0.00  0.00    +0.000 OA
ATOM      4  C   UNL     1       2.623   3.054  19.104  0.00  0.00    +0.000 C 
ATOM      5  C   UNL     1       1.142   3.161  19.506  0.00  0.00    +0.000 C 
ATOM      6  C   UNL     1       0.783   4.599  19.819  0.00  0.00    +0.000 C 
ATOM      7  C   UNL     1       1.564   5.184  20.742  0.00  0.00    +0.000 C 
ATOM      8  C   UNL     1       2.688   4.313  21.268  0.00  0.00    +0.000 C 
ATOM      9  C   UNL     1       2.001   3.048  21.884  0.00  0.00    +0.000 C 
ATOM     10  C   UNL     1       1.008   2.422  20.857  0.00  0.00    +0.000 C 
ATOM     11  C   UNL     1       3.537   3.767  20.101  0.00  0.00    +0.000 C 
ATOM     12  C   UNL     1       4.380   4.680  19.235  0.00  0.00    +0.000 C 
ATOM     13  O   UNL     1       5.162   5.507  19.690  0.00  0.00    +0.000 OA
ENDROOT
BRANCH   1  17
ATOM     14  C   UNL     1       6.527   4.749  14.382  0.00  0.00    +0.000 A 
ATOM     15  C   UNL     1       5.805   5.828  14.884  0.00  0.00    +0.000 A 
ATOM     16  C   UNL     1       5.109   5.715  16.092  0.00  0.00    +0.000 A 
ATOM     17  C   UNL     1       5.084   4.521  16.829  0.00  0.00    +0.000 A 
ATOM     18  C   UNL     1       5.863   3.457  16.338  0.00  0.00    +0.000 A 
ATOM     19  C   UNL     1       6.570   3.564  15.121  0.00  0.00    +0.000 A 
BRANCH  14  21
ATOM     20  C   UNL     1       6.833   3.951  11.952  0.00  0.00    +0.000 C 
ATOM     21  C   UNL     1       7.184   4.913  13.054  0.00  0.00    +0.000 C 
ATOM     22  O   UNL     1       8.009   5.810  12.886  0.00  0.00    +0.000 OA
ENDBRANCH  14  21
ENDBRANCH   1  17
TORSDOF 2
ENDMDL
MODEL 5
REMARK VINA RESULT:      -7.9      0.639      2.193
REMARK  Name = 
REMARK  3 active torsions:
REMARK  status: ('A' for Active; 'I' for Inactive)
REMARK    1  A    between atoms: C_1  and  C_2
REMARK    2  A    between atoms: C_2  and  C_4
REMARK    3  A    between atoms: C_7  and  N_8
REMARK                            x       y       z     vdW  Elec       q    Type
REMARK                         _______ _______ _______ _____ _____    ______ ____
ROOT
ATOM      1  N   UNL     1       4.322   3.860  17.506  0.00  0.00    +0.000 N 
ATOM      2  C   UNL     1       3.826   4.928  18.226  0.00  0.00    +0.000 C 
ATOM      3  O   UNL     1       4.316   6.030  18.419  0.00  0.00    +0.000 OA
ATOM      4  C   UNL     1       2.460   4.569  18.711  0.00  0.00    +0.000 C 
ATOM      5  C   UNL     1       2.152   4.987  20.160  0.00  0.00    +0.000 C 
ATOM      6  C   UNL     1       2.957   4.150  21.134  0.00  0.00    +0.000 C 
ATOM      7  C   UNL     1       2.812   2.824  20.985  0.00  0.00    +0.000 C 
ATOM      8  C   UNL     1       1.905   2.406  19.844  0.00  0.00    +0.000 C 
ATOM      9  C   UNL     1       0.513   3.059  20.140  0.00  0.00    +0.000 C 
ATOM     10  C   UNL     1       0.682   4.583  20.420  0.00  0.00    +0.000 C 
ATOM     11  C   UNL     1       2.368   3.055  18.523  0.00  0.00    +0.000 C 
ATOM     12  C   UNL     1       3.687   2.687  17.875  0.00  0.00    +0.000 C 
ATOM     13  O   UNL     1       4.037   1.530  17.672  0.00  0.00    +0.000 OA
ENDROOT
BRANCH   1  17
ATOM     14  C   UNL     1       6.967   4.773  14.279  0.00  0.00    +0.000 A 
ATOM     15  C   UNL     1       7.371   4.944  15.600  0.00  0.00    +0.000 A 
ATOM     16  C   UNL     1       6.538   4.553  16.654  0.00  0.00    +0.000 A 
ATOM     17  C   UNL     1       5.265   4.004  16.432  0.00  0.00    +0.000 A 
ATOM     18  C   UNL     1       4.893   3.786  15.092  0.00  0.00    +0.000 A 
ATOM     19  C   UNL     1       5.730   4.175  14.025  0.00  0.00    +0.000 A 
BRANCH  14  21
ATOM     20  C   UNL     1       7.553   4.939  11.776  0.00  0.00    +0.000 C 
ATOM     21  C   UNL     1       7.871   5.278  13.207  0.00  0.00    +0.000 C 
ATOM     22  O   UNL     1       8.863   5.941  13.505  0.00  0.00    +0.000 OA
ENDBRANCH  14  21
ENDBRANCH   1  17
TORSDOF 2
ENDMDL
MODEL 6
REMARK VINA RESULT:      -7.5      1.062      1.944
REMARK  Name = 
REMARK  3 active torsions:
REMARK  status: ('A' for Active; 'I' for Inactive)
REMARK    1  A    between atoms: C_1  and  C_2
REMARK    2  A    between atoms: C_2  and  C_4
REMARK    3  A    between atoms: C_7  and  N_8
REMARK                            x       y       z     vdW  Elec       q    Type
REMARK                         _______ _______ _______ _____ _____    ______ ____
ROOT
ATOM      1  N   UNL     1       4.398   4.066  17.980  0.00  0.00    +0.000 N 
ATOM      2  C   UNL     1       3.134   4.616  17.922  0.00  0.00    +0.000 C 
ATOM      3  O   UNL     1       2.735   5.580  17.289  0.00  0.00    +0.000 OA
ATOM      4  C   UNL     1       2.216   3.761  18.732  0.00  0.00    +0.000 C 
ATOM      5  C   UNL     1       1.212   4.530  19.608  0.00  0.00    +0.000 C 
ATOM      6  C   UNL     1       1.928   5.223  20.749  0.00  0.00    +0.000 C 
ATOM      7  C   UNL     1       2.691   4.416  21.504  0.00  0.00    +0.000 C 
ATOM      8  C   UNL     1       2.729   2.970  21.052  0.00  0.00    +0.000 C 
ATOM      9  C   UNL     1       1.245   2.471  21.078  0.00  0.00    +0.000 C 
ATOM     10  C   UNL     1       0.331   3.460  20.293  0.00  0.00    +0.000 C 
ATOM     11  C   UNL     1       3.144   2.881  19.568  0.00  0.00    +0.000 C 
ATOM     12  C   UNL     1       4.533   3.271  19.106  0.00  0.00    +0.000 C 
ATOM     13  O   UNL     1       5.559   2.859  19.634  0.00  0.00    +0.000 OA
ENDROOT
BRANCH   1  17
ATOM     14  C   UNL     1       6.959   4.819  14.645  0.00  0.00    +0.000 A 
ATOM     15  C   UNL     1       7.066   5.575  15.809  0.00  0.00    +0.000 A 
ATOM     16  C   UNL     1       6.293   5.262  16.932  0.00  0.00    +0.000 A 
ATOM     17  C   UNL     1       5.368   4.206  16.929  0.00  0.00    +0.000 A 
ATOM     18  C   UNL     1       5.310   3.417  15.765  0.00  0.00    +0.000 A 
ATOM     19  C   UNL     1       6.090   3.725  14.630  0.00  0.00    +0.000 A 
BRANCH  14  21
ATOM     20  C   UNL     1       7.334   4.781  12.097  0.00  0.00    +0.000 C 
ATOM     21  C   UNL     1       7.756   5.251  13.462  0.00  0.00    +0.000 C 
ATOM     22  O   UNL     1       8.748   5.962  13.619  0.00  0.00    +0.000 OA
ENDBRANCH  14  21
ENDBRANCH   1  17
TORSDOF 2
ENDMDL
MODEL 7
REMARK VINA RESULT:      -7.4      1.104      1.803
REMARK  Name = 
REMARK  3 active torsions:
REMARK  status: ('A' for Active; 'I' for Inactive)
REMARK    1  A    between atoms: C_1  and  C_2
REMARK    2  A    between atoms: C_2  and  C_4
REMARK    3  A    between atoms: C_7  and  N_8
REMARK                            x       y       z     vdW  Elec       q    Type
REMARK                         _______ _______ _______ _____ _____    ______ ____
ROOT
ATOM      1  N   UNL     1       4.443   3.924  17.423  0.00  0.00    +0.000 N 
ATOM      2  C   UNL     1       4.727   4.155  18.753  0.00  0.00    +0.000 C 
ATOM      3  O   UNL     1       5.799   4.111  19.337  0.00  0.00    +0.000 OA
ATOM      4  C   UNL     1       3.469   4.585  19.432  0.00  0.00    +0.000 C 
ATOM      5  C   UNL     1       3.235   3.970  20.823  0.00  0.00    +0.000 C 
ATOM      6  C   UNL     1       2.923   2.492  20.701  0.00  0.00    +0.000 C 
ATOM      7  C   UNL     1       1.902   2.201  19.879  0.00  0.00    +0.000 C 
ATOM      8  C   UNL     1       1.277   3.398  19.191  0.00  0.00    +0.000 C 
ATOM      9  C   UNL     1       0.779   4.342  20.337  0.00  0.00    +0.000 C 
ATOM     10  C   UNL     1       1.929   4.601  21.358  0.00  0.00    +0.000 C 
ATOM     11  C   UNL     1       2.355   4.217  18.452  0.00  0.00    +0.000 C 
ATOM     12  C   UNL     1       3.094   3.661  17.252  0.00  0.00    +0.000 C 
ATOM     13  O   UNL     1       2.530   3.148  16.293  0.00  0.00    +0.000 OA
ENDROOT
BRANCH   1  17
ATOM     14  C   UNL     1       7.063   4.826  14.173  0.00  0.00    +0.000 A 
ATOM     15  C   UNL     1       7.334   5.293  15.455  0.00  0.00    +0.000 A 
ATOM     16  C   UNL     1       6.527   4.916  16.534  0.00  0.00    +0.000 A 
ATOM     17  C   UNL     1       5.408   4.083  16.371  0.00  0.00    +0.000 A 
ATOM     18  C   UNL     1       5.179   3.575  15.079  0.00  0.00    +0.000 A 
ATOM     19  C   UNL     1       5.991   3.949  13.987  0.00  0.00    +0.000 A 
BRANCH  14  21
ATOM     20  C   UNL     1       7.541   4.969  11.646  0.00  0.00    +0.000 C 
ATOM     21  C   UNL     1       7.917   5.326  13.058  0.00  0.00    +0.000 C 
ATOM     22  O   UNL     1       8.916   5.998  13.307  0.00  0.00    +0.000 OA
ENDBRANCH  14  21
ENDBRANCH   1  17
TORSDOF 2
ENDMDL
MODEL 8
REMARK VINA RESULT:      -7.3      3.850      6.598
REMARK  Name = 
REMARK  3 active torsions:
REMARK  status: ('A' for Active; 'I' for Inactive)
REMARK    1  A    between atoms: C_1  and  C_2
REMARK    2  A    between atoms: C_2  and  C_4
REMARK    3  A    between atoms: C_7  and  N_8
REMARK                            x       y       z     vdW  Elec       q    Type
REMARK                         _______ _______ _______ _____ _____    ______ ____
ROOT
ATOM      1  N   UNL     1       2.455   6.385  19.077  0.00  0.00    +0.000 N 
ATOM      2  C   UNL     1       1.803   5.380  19.761  0.00  0.00    +0.000 C 
ATOM      3  O   UNL     1       1.156   5.437  20.795  0.00  0.00    +0.000 OA
ATOM      4  C   UNL     1       1.923   4.121  18.967  0.00  0.00    +0.000 C 
ATOM      5  C   UNL     1       2.220   2.856  19.791  0.00  0.00    +0.000 C 
ATOM      6  C   UNL     1       3.631   2.903  20.341  0.00  0.00    +0.000 C 
ATOM      7  C   UNL     1       4.586   3.099  19.418  0.00  0.00    +0.000 C 
ATOM      8  C   UNL     1       4.075   3.280  18.003  0.00  0.00    +0.000 C 
ATOM      9  C   UNL     1       3.274   1.978  17.664  0.00  0.00    +0.000 C 
ATOM     10  C   UNL     1       2.232   1.681  18.786  0.00  0.00    +0.000 C 
ATOM     11  C   UNL     1       3.026   4.410  17.949  0.00  0.00    +0.000 C 
ATOM     12  C   UNL     1       3.398   5.854  18.213  0.00  0.00    +0.000 C 
ATOM     13  O   UNL     1       4.338   6.419  17.666  0.00  0.00    +0.000 OA
ENDROOT
BRANCH   1  17
ATOM     14  C   UNL     1       0.872  10.348  19.265  0.00  0.00    +0.000 A 
ATOM     15  C   UNL     1       0.972   9.568  20.412  0.00  0.00    +0.000 A 
ATOM     16  C   UNL     1       1.580   8.308  20.364  0.00  0.00    +0.000 A 
ATOM     17  C   UNL     1       2.084   7.770  19.169  0.00  0.00    +0.000 A 
ATOM     18  C   UNL     1       2.024   8.593  18.029  0.00  0.00    +0.000 A 
ATOM     19  C   UNL     1       1.416   9.866  18.072  0.00  0.00    +0.000 A 
BRANCH  14  21
ATOM     20  C   UNL     1      -1.214  11.663  20.010  0.00  0.00    +0.000 C 
ATOM     21  C   UNL     1       0.147  11.647  19.371  0.00  0.00    +0.000 C 
ATOM     22  O   UNL     1       0.659  12.671  18.922  0.00  0.00    +0.000 OA
ENDBRANCH  14  21
ENDBRANCH   1  17
TORSDOF 2
ENDMDL
MODEL 9
REMARK VINA RESULT:      -7.1      0.775      2.419
REMARK  Name = 
REMARK  3 active torsions:
REMARK  status: ('A' for Active; 'I' for Inactive)
REMARK    1  A    between atoms: C_1  and  C_2
REMARK    2  A    between atoms: C_2  and  C_4
REMARK    3  A    between atoms: C_7  and  N_8
REMARK                            x       y       z     vdW  Elec       q    Type
REMARK                         _______ _______ _______ _____ _____    ______ ____
ROOT
ATOM      1  N   UNL     1       4.263   4.353  17.652  0.00  0.00    +0.000 N 
ATOM      2  C   UNL     1       3.652   5.251  18.503  0.00  0.00    +0.000 C 
ATOM      3  O   UNL     1       4.023   6.357  18.862  0.00  0.00    +0.000 OA
ATOM      4  C   UNL     1       2.325   4.692  18.896  0.00  0.00    +0.000 C 
ATOM      5  C   UNL     1       1.958   4.864  20.381  0.00  0.00    +0.000 C 
ATOM      6  C   UNL     1       2.833   3.982  21.247  0.00  0.00    +0.000 C 
ATOM      7  C   UNL     1       2.827   2.682  20.908  0.00  0.00    +0.000 C 
ATOM      8  C   UNL     1       1.982   2.344  19.697  0.00  0.00    +0.000 C 
ATOM      9  C   UNL     1       0.526   2.805  20.045  0.00  0.00    +0.000 C 
ATOM     10  C   UNL     1       0.534   4.282  20.543  0.00  0.00    +0.000 C 
ATOM     11  C   UNL     1       2.391   3.219  18.493  0.00  0.00    +0.000 C 
ATOM     12  C   UNL     1       3.748   3.081  17.835  0.00  0.00    +0.000 C 
ATOM     13  O   UNL     1       4.218   2.006  17.479  0.00  0.00    +0.000 OA
ENDROOT
BRANCH   1  17
ATOM     14  C   UNL     1       6.983   5.043  14.432  0.00  0.00    +0.000 A 
ATOM     15  C   UNL     1       5.629   5.333  14.293  0.00  0.00    +0.000 A 
ATOM     16  C   UNL     1       4.759   5.197  15.381  0.00  0.00    +0.000 A 
ATOM     17  C   UNL     1       5.199   4.743  16.634  0.00  0.00    +0.000 A 
ATOM     18  C   UNL     1       6.579   4.506  16.774  0.00  0.00    +0.000 A 
ATOM     19  C   UNL     1       7.463   4.645  15.682  0.00  0.00    +0.000 A 
BRANCH  14  21
ATOM     20  C   UNL     1       7.441   4.361  11.990  0.00  0.00    +0.000 C 
ATOM     21  C   UNL     1       7.840   5.137  13.215  0.00  0.00    +0.000 C 
ATOM     22  O   UNL     1       8.859   5.825  13.237  0.00  0.00    +0.000 OA
ENDBRANCH  14  21
ENDBRANCH   1  17
TORSDOF 2
ENDMDL
