MODEL 1
REMARK VINA RESULT:      -7.1      0.000      0.000
REMARK  Name = 
REMARK  10 active torsions:
REMARK  status: ('A' for Active; 'I' for Inactive)
REMARK    1  A    between atoms: C_1  and  C_2
REMARK    2  A    between atoms: C_2  and  C_3
REMARK    3  A    between atoms: C_3  and  C_4
REMARK    4  A    between atoms: C_4  and  C_5
REMARK    5  A    between atoms: C_7  and  N_8
REMARK    6  A    between atoms: N_8  and  C_9
REMARK    7  A    between atoms: C_9  and  C_10
REMARK    8  A    between atoms: N_13  and  C_14
REMARK    9  A    between atoms: C_17  and  O_18
REMARK   10  A    between atoms: O_18  and  C_19
REMARK                            x       y       z     vdW  Elec       q    Type
REMARK                         _______ _______ _______ _____ _____    ______ ____
ROOT
ATOM      1  C   UNL     1       6.037   4.192  15.388  0.00  0.00    +0.000 A 
ATOM      2  C   UNL     1       7.091   4.329  16.264  0.00  0.00    +0.000 A 
ATOM      3  C   UNL     1       6.793   4.625  17.572  0.00  0.00    +0.000 A 
ATOM      4  N   UNL     1       5.533   4.814  17.971  0.00  0.00    +0.000 NA
ATOM      5  C   UNL     1       4.546   4.684  17.062  0.00  0.00    +0.000 A 
ATOM      6  N   UNL     1       3.221   4.846  17.475  0.00  0.00    +0.000 N 
ATOM      7  N   UNL     1       4.756   4.352  15.779  0.00  0.00    +0.000 NA
ATOM      8  H   UNL     1       2.601   4.659  16.700  0.00  0.00    +0.000 HD
ENDROOT
BRANCH   6   9
ATOM      9  C   UNL     1       2.725   5.762  18.418  0.00  0.00    +0.000 A 
ATOM     10  C   UNL     1       2.292   5.372  19.692  0.00  0.00    +0.000 A 
ATOM     11  C   UNL     1       1.800   6.312  20.602  0.00  0.00    +0.000 A 
ATOM     12  C   UNL     1       1.737   7.660  20.262  0.00  0.00    +0.000 A 
ATOM     13  C   UNL     1       2.144   8.062  18.990  0.00  0.00    +0.000 A 
ATOM     14  C   UNL     1       2.648   7.120  18.085  0.00  0.00    +0.000 A 
BRANCH  12  15
ATOM     15  O   UNL     1       1.227   8.488  21.224  0.00  0.00    +0.000 OA
ATOM     16  C   UNL     1      -0.174   8.377  21.441  0.00  0.00    +0.000 C 
ENDBRANCH  12  15
ENDBRANCH   6   9
BRANCH   3  17
ATOM     17  N   UNL     1       7.860   4.678  18.484  0.00  0.00    +0.000 N 
ATOM     18  H   UNL     1       8.738   4.527  17.996  0.00  0.00    +0.000 HD
BRANCH  17  19
ATOM     19  C   UNL     1       7.872   5.829  19.377  0.00  0.00    +0.000 C 
ATOM     20  C   UNL     1       8.114   7.087  18.555  0.00  0.00    +0.000 C 
ENDBRANCH  17  19
ENDBRANCH   3  17
BRANCH   1  21
ATOM     21  C   UNL     1       6.309   3.804  13.957  0.00  0.00    +0.000 C 
BRANCH  21  22
ATOM     22  C   UNL     1       5.108   3.960  13.024  0.00  0.00    +0.000 C 
BRANCH  22  24
ATOM     23  C   UNL     1       6.510   2.480  11.554  0.00  0.00    +0.000 C 
ATOM     24  C   UNL     1       5.100   2.965  11.860  0.00  0.00    +0.000 C 
ENDBRANCH  22  24
ENDBRANCH  21  22
ENDBRANCH   1  21
TORSDOF 7
ENDMDL
MODEL 2
REMARK VINA RESULT:      -7.0      1.508      1.797
REMARK  Name = 
REMARK  10 active torsions:
REMARK  status: ('A' for Active; 'I' for Inactive)
REMARK    1  A    between atoms: C_1  and  C_2
REMARK    2  A    between atoms: C_2  and  C_3
REMARK    3  A    between atoms: C_3  and  C_4
REMARK    4  A    between atoms: C_4  and  C_5
REMARK    5  A    between atoms: C_7  and  N_8
REMARK    6  A    between atoms: N_8  and  C_9
REMARK    7  A    between atoms: C_9  and  C_10
REMARK    8  A    between atoms: N_13  and  C_14
REMARK    9  A    between atoms: C_17  and  O_18
REMARK   10  A    between atoms: O_18  and  C_19
REMARK                            x       y       z     vdW  Elec       q    Type
REMARK                         _______ _______ _______ _____ _____    ______ ____
ROOT
ATOM      1  C   UNL     1       5.849   4.794  16.010  0.00  0.00    +0.000 A 
ATOM      2  C   UNL     1       6.895   5.572  16.456  0.00  0.00    +0.000 A 
ATOM      3  C   UNL     1       6.652   6.414  17.513  0.00  0.00    +0.000 A 
ATOM      4  N   UNL     1       5.438   6.507  18.061  0.00  0.00    +0.000 NA
ATOM      5  C   UNL     1       4.450   5.734  17.569  0.00  0.00    +0.000 A 
ATOM      6  N   UNL     1       3.185   5.798  18.156  0.00  0.00    +0.000 N 
ATOM      7  N   UNL     1       4.623   4.855  16.570  0.00  0.00    +0.000 NA
ATOM      8  H   UNL     1       2.575   5.121  17.720  0.00  0.00    +0.000 HD
ENDROOT
BRANCH   6   9
ATOM      9  C   UNL     1       2.533   6.934  18.663  0.00  0.00    +0.000 A 
ATOM     10  C   UNL     1       2.175   7.060  20.012  0.00  0.00    +0.000 A 
ATOM     11  C   UNL     1       1.523   8.205  20.479  0.00  0.00    +0.000 A 
ATOM     12  C   UNL     1       1.223   9.251  19.611  0.00  0.00    +0.000 A 
ATOM     13  C   UNL     1       1.554   9.133  18.261  0.00  0.00    +0.000 A 
ATOM     14  C   UNL     1       2.217   7.990  17.799  0.00  0.00    +0.000 A 
BRANCH  12  15
ATOM     15  O   UNL     1       0.574  10.316  20.173  0.00  0.00    +0.000 OA
ATOM     16  C   UNL     1      -0.728  10.572  19.661  0.00  0.00    +0.000 C 
ENDBRANCH  12  15
ENDBRANCH   6   9
BRANCH   3  17
ATOM     17  N   UNL     1       7.738   7.142  18.024  0.00  0.00    +0.000 N 
ATOM     18  H   UNL     1       8.593   6.601  17.928  0.00  0.00    +0.000 HD
BRANCH  17  19
ATOM     19  C   UNL     1       7.856   8.517  17.557  0.00  0.00    +0.000 C 
ATOM     20  C   UNL     1       8.646   9.319  18.581  0.00  0.00    +0.000 C 
ENDBRANCH  17  19
ENDBRANCH   3  17
BRANCH   1  21
ATOM     21  C   UNL     1       6.083   3.807  14.895  0.00  0.00    +0.000 C 
BRANCH  21  22
ATOM     22  C   UNL     1       6.546   4.438  13.582  0.00  0.00    +0.000 C 
BRANCH  22  24
ATOM     23  C   UNL     1       4.924   3.386  11.978  0.00  0.00    +0.000 C 
ATOM     24  C   UNL     1       6.389   3.520  12.368  0.00  0.00    +0.000 C 
ENDBRANCH  22  24
ENDBRANCH  21  22
ENDBRANCH   1  21
TORSDOF 7
ENDMDL
MODEL 3
REMARK VINA RESULT:      -7.0      2.541      2.951
REMARK  Name = 
REMARK  10 active torsions:
REMARK  status: ('A' for Active; 'I' for Inactive)
REMARK    1  A    between atoms: C_1  and  C_2
REMARK    2  A    between atoms: C_2  and  C_3
REMARK    3  A    between atoms: C_3  and  C_4
REMARK    4  A    between atoms: C_4  and  C_5
REMARK    5  A    between atoms: C_7  and  N_8
REMARK    6  A    between atoms: N_8  and  C_9
REMARK    7  A    between atoms: C_9  and  C_10
REMARK    8  A    between atoms: N_13  and  C_14
REMARK    9  A    between atoms: C_17  and  O_18
REMARK   10  A    between atoms: O_18  and  C_19
REMARK                            x       y       z     vdW  Elec       q    Type
REMARK                         _______ _______ _______ _____ _____    ______ ____
ROOT
ATOM      1  C   UNL     1       6.510   4.117  13.817  0.00  0.00    +0.000 A 
ATOM      2  C   UNL     1       7.138   5.215  14.362  0.00  0.00    +0.000 A 
ATOM      3  C   UNL     1       6.985   5.428  15.710  0.00  0.00    +0.000 A 
ATOM      4  N   UNL     1       6.221   4.627  16.456  0.00  0.00    +0.000 NA
ATOM      5  C   UNL     1       5.617   3.579  15.862  0.00  0.00    +0.000 A 
ATOM      6  N   UNL     1       4.843   2.714  16.639  0.00  0.00    +0.000 N 
ATOM      7  N   UNL     1       5.758   3.281  14.561  0.00  0.00    +0.000 NA
ATOM      8  H   UNL     1       4.511   1.951  16.066  0.00  0.00    +0.000 HD
ENDROOT
BRANCH   6   9
ATOM      9  C   UNL     1       4.005   3.049  17.716  0.00  0.00    +0.000 A 
ATOM     10  C   UNL     1       4.201   2.548  19.009  0.00  0.00    +0.000 A 
ATOM     11  C   UNL     1       3.344   2.902  20.055  0.00  0.00    +0.000 A 
ATOM     12  C   UNL     1       2.277   3.768  19.832  0.00  0.00    +0.000 A 
ATOM     13  C   UNL     1       2.055   4.260  18.545  0.00  0.00    +0.000 A 
ATOM     14  C   UNL     1       2.923   3.913  17.503  0.00  0.00    +0.000 A 
BRANCH  12  15
ATOM     15  O   UNL     1       1.496   4.035  20.923  0.00  0.00    +0.000 OA
ATOM     16  C   UNL     1       1.315   2.946  21.820  0.00  0.00    +0.000 C 
ENDBRANCH  12  15
ENDBRANCH   6   9
BRANCH   3  17
ATOM     17  N   UNL     1       7.695   6.496  16.283  0.00  0.00    +0.000 N 
ATOM     18  H   UNL     1       8.004   7.134  15.554  0.00  0.00    +0.000 HD
BRANCH  17  19
ATOM     19  C   UNL     1       7.047   7.156  17.408  0.00  0.00    +0.000 C 
ATOM     20  C   UNL     1       8.052   8.081  18.081  0.00  0.00    +0.000 C 
ENDBRANCH  17  19
ENDBRANCH   3  17
BRANCH   1  21
ATOM     21  C   UNL     1       6.702   3.803  12.355  0.00  0.00    +0.000 C 
BRANCH  21  22
ATOM     22  C   UNL     1       5.938   2.572  11.870  0.00  0.00    +0.000 C 
BRANCH  22  24
ATOM     23  C   UNL     1       6.149   0.176  11.142  0.00  0.00    +0.000 C 
ATOM     24  C   UNL     1       6.818   1.543  11.156  0.00  0.00    +0.000 C 
ENDBRANCH  22  24
ENDBRANCH  21  22
ENDBRANCH   1  21
TORSDOF 7
ENDMDL
MODEL 4
REMARK VINA RESULT:      -6.9      2.581      2.919
REMARK  Name = 
REMARK  10 active torsions:
REMARK  status: ('A' for Active; 'I' for Inactive)
REMARK    1  A    between atoms: C_1  and  C_2
REMARK    2  A    between atoms: C_2  and  C_3
REMARK    3  A    between atoms: C_3  and  C_4
REMARK    4  A    between atoms: C_4  and  C_5
REMARK    5  A    between atoms: C_7  and  N_8
REMARK    6  A    between atoms: N_8  and  C_9
REMARK    7  A    between atoms: C_9  and  C_10
REMARK    8  A    between atoms: N_13  and  C_14
REMARK    9  A    between atoms: C_17  and  O_18
REMARK   10  A    between atoms: O_18  and  C_19
REMARK                            x       y       z     vdW  Elec       q    Type
REMARK                         _______ _______ _______ _____ _____    ______ ____
ROOT
ATOM      1  C   UNL     1       6.546   4.198  14.095  0.00  0.00    +0.000 A 
ATOM      2  C   UNL     1       7.075   5.333  14.669  0.00  0.00    +0.000 A 
ATOM      3  C   UNL     1       6.834   5.538  16.005  0.00  0.00    +0.000 A 
ATOM      4  N   UNL     1       6.081   4.693  16.712  0.00  0.00    +0.000 NA
ATOM      5  C   UNL     1       5.575   3.609  16.090  0.00  0.00    +0.000 A 
ATOM      6  N   UNL     1       4.813   2.700  16.828  0.00  0.00    +0.000 N 
ATOM      7  N   UNL     1       5.805   3.319  14.801  0.00  0.00    +0.000 NA
ATOM      8  H   UNL     1       4.559   1.918  16.241  0.00  0.00    +0.000 HD
ENDROOT
BRANCH   6   9
ATOM      9  C   UNL     1       3.898   2.986  17.855  0.00  0.00    +0.000 A 
ATOM     10  C   UNL     1       4.138   2.651  19.194  0.00  0.00    +0.000 A 
ATOM     11  C   UNL     1       3.202   2.948  20.188  0.00  0.00    +0.000 A 
ATOM     12  C   UNL     1       2.010   3.591  19.867  0.00  0.00    +0.000 A 
ATOM     13  C   UNL     1       1.745   3.912  18.535  0.00  0.00    +0.000 A 
ATOM     14  C   UNL     1       2.691   3.624  17.543  0.00  0.00    +0.000 A 
BRANCH  12  15
ATOM     15  O   UNL     1       1.162   3.820  20.915  0.00  0.00    +0.000 OA
ATOM     16  C   UNL     1       1.186   2.835  21.942  0.00  0.00    +0.000 C 
ENDBRANCH  12  15
ENDBRANCH   6   9
BRANCH   3  17
ATOM     17  N   UNL     1       7.446   6.648  16.611  0.00  0.00    +0.000 N 
ATOM     18  H   UNL     1       7.316   7.472  16.031  0.00  0.00    +0.000 HD
BRANCH  17  19
ATOM     19  C   UNL     1       7.124   6.859  18.016  0.00  0.00    +0.000 C 
ATOM     20  C   UNL     1       8.008   5.956  18.864  0.00  0.00    +0.000 C 
ENDBRANCH  17  19
ENDBRANCH   3  17
BRANCH   1  21
ATOM     21  C   UNL     1       6.837   3.895  12.647  0.00  0.00    +0.000 C 
BRANCH  21  22
ATOM     22  C   UNL     1       5.775   3.038  11.958  0.00  0.00    +0.000 C 
BRANCH  22  24
ATOM     23  C   UNL     1       3.630   3.046  10.649  0.00  0.00    +0.000 C 
ATOM     24  C   UNL     1       4.465   3.783  11.687  0.00  0.00    +0.000 C 
ENDBRANCH  22  24
ENDBRANCH  21  22
ENDBRANCH   1  21
TORSDOF 7
ENDMDL
MODEL 5
REMARK VINA RESULT:      -6.9      1.811      2.618
REMARK  Name = 
REMARK  10 active torsions:
REMARK  status: ('A' for Active; 'I' for Inactive)
REMARK    1  A    between atoms: C_1  and  C_2
REMARK    2  A    between atoms: C_2  and  C_3
REMARK    3  A    between atoms: C_3  and  C_4
REMARK    4  A    between atoms: C_4  and  C_5
REMARK    5  A    between atoms: C_7  and  N_8
REMARK    6  A    between atoms: N_8  and  C_9
REMARK    7  A    between atoms: C_9  and  C_10
REMARK    8  A    between atoms: N_13  and  C_14
REMARK    9  A    between atoms: C_17  and  O_18
REMARK   10  A    between atoms: O_18  and  C_19
REMARK                            x       y       z     vdW  Elec       q    Type
REMARK                         _______ _______ _______ _____ _____    ______ ____
ROOT
ATOM      1  C   UNL     1       6.468   4.042  13.963  0.00  0.00    +0.000 A 
ATOM      2  C   UNL     1       7.161   5.130  14.447  0.00  0.00    +0.000 A 
ATOM      3  C   UNL     1       6.990   5.450  15.771  0.00  0.00    +0.000 A 
ATOM      4  N   UNL     1       6.154   4.761  16.550  0.00  0.00    +0.000 NA
ATOM      5  C   UNL     1       5.490   3.717  16.014  0.00  0.00    +0.000 A 
ATOM      6  N   UNL     1       4.638   2.967  16.828  0.00  0.00    +0.000 N 
ATOM      7  N   UNL     1       5.641   3.316  14.743  0.00  0.00    +0.000 NA
ATOM      8  H   UNL     1       4.266   2.190  16.301  0.00  0.00    +0.000 HD
ENDROOT
BRANCH   6   9
ATOM      9  C   UNL     1       3.801   3.437  17.853  0.00  0.00    +0.000 A 
ATOM     10  C   UNL     1       2.879   4.474  17.659  0.00  0.00    +0.000 A 
ATOM     11  C   UNL     1       2.065   4.918  18.705  0.00  0.00    +0.000 A 
ATOM     12  C   UNL     1       2.150   4.330  19.964  0.00  0.00    +0.000 A 
ATOM     13  C   UNL     1       3.077   3.311  20.181  0.00  0.00    +0.000 A 
ATOM     14  C   UNL     1       3.882   2.861  19.127  0.00  0.00    +0.000 A 
BRANCH  12  15
ATOM     15  O   UNL     1       1.316   4.851  20.915  0.00  0.00    +0.000 OA
ATOM     16  C   UNL     1       1.304   6.271  21.000  0.00  0.00    +0.000 C 
ENDBRANCH  12  15
ENDBRANCH   6   9
BRANCH   3  17
ATOM     17  N   UNL     1       7.761   6.505  16.288  0.00  0.00    +0.000 N 
ATOM     18  H   UNL     1       8.060   7.116  15.532  0.00  0.00    +0.000 HD
BRANCH  17  19
ATOM     19  C   UNL     1       7.187   7.212  17.425  0.00  0.00    +0.000 C 
ATOM     20  C   UNL     1       8.096   7.022  18.631  0.00  0.00    +0.000 C 
ENDBRANCH  17  19
ENDBRANCH   3  17
BRANCH   1  21
ATOM     21  C   UNL     1       6.672   3.610  12.533  0.00  0.00    +0.000 C 
BRANCH  21  22
ATOM     22  C   UNL     1       5.486   2.860  11.927  0.00  0.00    +0.000 C 
BRANCH  22  24
ATOM     23  C   UNL     1       3.375   3.031  10.576  0.00  0.00    +0.000 C 
ATOM     24  C   UNL     1       4.339   3.774  11.489  0.00  0.00    +0.000 C 
ENDBRANCH  22  24
ENDBRANCH  21  22
ENDBRANCH   1  21
TORSDOF 7
ENDMDL
MODEL 6
REMARK VINA RESULT:      -6.9      2.644      3.087
REMARK  Name = 
REMARK  10 active torsions:
REMARK  status: ('A' for Active; 'I' for Inactive)
REMARK    1  A    between atoms: C_1  and  C_2
REMARK    2  A    between atoms: C_2  and  C_3
REMARK    3  A    between atoms: C_3  and  C_4
REMARK    4  A    between atoms: C_4  and  C_5
REMARK    5  A    between atoms: C_7  and  N_8
REMARK    6  A    between atoms: N_8  and  C_9
REMARK    7  A    between atoms: C_9  and  C_10
REMARK    8  A    between atoms: N_13  and  C_14
REMARK    9  A    between atoms: C_17  and  O_18
REMARK   10  A    between atoms: O_18  and  C_19
REMARK                            x       y       z     vdW  Elec       q    Type
REMARK                         _______ _______ _______ _____ _____    ______ ____
ROOT
ATOM      1  C   UNL     1       6.553   4.335  14.072  0.00  0.00    +0.000 A 
ATOM      2  C   UNL     1       7.196   5.361  14.729  0.00  0.00    +0.000 A 
ATOM      3  C   UNL     1       7.013   5.455  16.086  0.00  0.00    +0.000 A 
ATOM      4  N   UNL     1       6.209   4.612  16.739  0.00  0.00    +0.000 NA
ATOM      5  C   UNL     1       5.593   3.640  16.037  0.00  0.00    +0.000 A 
ATOM      6  N   UNL     1       4.777   2.731  16.714  0.00  0.00    +0.000 N 
ATOM      7  N   UNL     1       5.760   3.457  14.718  0.00  0.00    +0.000 NA
ATOM      8  H   UNL     1       4.439   2.033  16.066  0.00  0.00    +0.000 HD
ENDROOT
BRANCH   6   9
ATOM      9  C   UNL     1       3.920   2.991  17.797  0.00  0.00    +0.000 A 
ATOM     10  C   UNL     1       2.745   3.742  17.665  0.00  0.00    +0.000 A 
ATOM     11  C   UNL     1       1.920   3.984  18.767  0.00  0.00    +0.000 A 
ATOM     12  C   UNL     1       2.247   3.474  20.021  0.00  0.00    +0.000 A 
ATOM     13  C   UNL     1       3.424   2.742  20.173  0.00  0.00    +0.000 A 
ATOM     14  C   UNL     1       4.242   2.492  19.065  0.00  0.00    +0.000 A 
BRANCH  12  15
ATOM     15  O   UNL     1       1.375   3.783  21.028  0.00  0.00    +0.000 OA
ATOM     16  C   UNL     1       1.222   2.782  22.027  0.00  0.00    +0.000 C 
ENDBRANCH  12  15
ENDBRANCH   6   9
BRANCH   3  17
ATOM     17  N   UNL     1       7.736   6.446  16.771  0.00  0.00    +0.000 N 
ATOM     18  H   UNL     1       8.503   6.776  16.191  0.00  0.00    +0.000 HD
BRANCH  17  19
ATOM     19  C   UNL     1       6.942   7.514  17.363  0.00  0.00    +0.000 C 
ATOM     20  C   UNL     1       7.872   8.647  17.775  0.00  0.00    +0.000 C 
ENDBRANCH  17  19
ENDBRANCH   3  17
BRANCH   1  21
ATOM     21  C   UNL     1       6.775   4.150  12.591  0.00  0.00    +0.000 C 
BRANCH  21  22
ATOM     22  C   UNL     1       6.017   2.969  11.985  0.00  0.00    +0.000 C 
BRANCH  22  24
ATOM     23  C   UNL     1       6.199   0.635  11.072  0.00  0.00    +0.000 C 
ATOM     24  C   UNL     1       6.921   1.959  11.272  0.00  0.00    +0.000 C 
ENDBRANCH  22  24
ENDBRANCH  21  22
ENDBRANCH   1  21
TORSDOF 7
ENDMDL
MODEL 7
REMARK VINA RESULT:      -6.8      0.294      1.066
REMARK  Name = 
REMARK  10 active torsions:
REMARK  status: ('A' for Active; 'I' for Inactive)
REMARK    1  A    between atoms: C_1  and  C_2
REMARK    2  A    between atoms: C_2  and  C_3
REMARK    3  A    between atoms: C_3  and  C_4
REMARK    4  A    between atoms: C_4  and  C_5
REMARK    5  A    between atoms: C_7  and  N_8
REMARK    6  A    between atoms: N_8  and  C_9
REMARK    7  A    between atoms: C_9  and  C_10
REMARK    8  A    between atoms: N_13  and  C_14
REMARK    9  A    between atoms: C_17  and  O_18
REMARK   10  A    between atoms: O_18  and  C_19
REMARK                            x       y       z     vdW  Elec       q    Type
REMARK                         _______ _______ _______ _____ _____    ______ ____
ROOT
ATOM      1  C   UNL     1       5.957   4.137  15.462  0.00  0.00    +0.000 A 
ATOM      2  C   UNL     1       7.023   4.339  16.311  0.00  0.00    +0.000 A 
ATOM      3  C   UNL     1       6.740   4.700  17.605  0.00  0.00    +0.000 A 
ATOM      4  N   UNL     1       5.483   4.890  18.015  0.00  0.00    +0.000 NA
ATOM      5  C   UNL     1       4.485   4.694  17.132  0.00  0.00    +0.000 A 
ATOM      6  N   UNL     1       3.164   4.857  17.557  0.00  0.00    +0.000 N 
ATOM      7  N   UNL     1       4.680   4.296  15.865  0.00  0.00    +0.000 NA
ATOM      8  H   UNL     1       2.535   4.618  16.804  0.00  0.00    +0.000 HD
ENDROOT
BRANCH   6   9
ATOM      9  C   UNL     1       2.667   5.814  18.457  0.00  0.00    +0.000 A 
ATOM     10  C   UNL     1       2.599   7.178  18.147  0.00  0.00    +0.000 A 
ATOM     11  C   UNL     1       2.101   8.101  19.071  0.00  0.00    +0.000 A 
ATOM     12  C   UNL     1       1.654   7.680  20.320  0.00  0.00    +0.000 A 
ATOM     13  C   UNL     1       1.733   6.328  20.653  0.00  0.00    +0.000 A 
ATOM     14  C   UNL     1       2.222   5.404  19.720  0.00  0.00    +0.000 A 
BRANCH  12  15
ATOM     15  O   UNL     1       1.200   8.669  21.148  0.00  0.00    +0.000 OA
ATOM     16  C   UNL     1      -0.092   8.452  21.703  0.00  0.00    +0.000 C 
ENDBRANCH  12  15
ENDBRANCH   6   9
BRANCH   3  17
ATOM     17  N   UNL     1       7.820   4.821  18.495  0.00  0.00    +0.000 N 
ATOM     18  H   UNL     1       8.670   4.480  18.054  0.00  0.00    +0.000 HD
BRANCH  17  19
ATOM     19  C   UNL     1       7.970   6.120  19.137  0.00  0.00    +0.000 C 
ATOM     20  C   UNL     1       7.862   7.208  18.077  0.00  0.00    +0.000 C 
ENDBRANCH  17  19
ENDBRANCH   3  17
BRANCH   1  21
ATOM     21  C   UNL     1       6.214   3.676  14.049  0.00  0.00    +0.000 C 
BRANCH  21  22
ATOM     22  C   UNL     1       5.001   3.780  13.124  0.00  0.00    +0.000 C 
BRANCH  22  24
ATOM     23  C   UNL     1       5.771   1.936  11.600  0.00  0.00    +0.000 C 
ATOM     24  C   UNL     1       5.296   3.380  11.676  0.00  0.00    +0.000 C 
ENDBRANCH  22  24
ENDBRANCH  21  22
ENDBRANCH   1  21
TORSDOF 7
ENDMDL
MODEL 8
REMARK VINA RESULT:      -6.8      2.521      4.474
REMARK  Name = 
REMARK  10 active torsions:
REMARK  status: ('A' for Active; 'I' for Inactive)
REMARK    1  A    between atoms: C_1  and  C_2
REMARK    2  A    between atoms: C_2  and  C_3
REMARK    3  A    between atoms: C_3  and  C_4
REMARK    4  A    between atoms: C_4  and  C_5
REMARK    5  A    between atoms: C_7  and  N_8
REMARK    6  A    between atoms: N_8  and  C_9
REMARK    7  A    between atoms: C_9  and  C_10
REMARK    8  A    between atoms: N_13  and  C_14
REMARK    9  A    between atoms: C_17  and  O_18
REMARK   10  A    between atoms: O_18  and  C_19
REMARK                            x       y       z     vdW  Elec       q    Type
REMARK                         _______ _______ _______ _____ _____    ______ ____
ROOT
ATOM      1  C   UNL     1       4.816   5.251  17.288  0.00  0.00    +0.000 A 
ATOM      2  C   UNL     1       4.090   4.167  17.729  0.00  0.00    +0.000 A 
ATOM      3  C   UNL     1       2.833   4.407  18.225  0.00  0.00    +0.000 A 
ATOM      4  N   UNL     1       2.347   5.647  18.316  0.00  0.00    +0.000 NA
ATOM      5  C   UNL     1       3.113   6.669  17.885  0.00  0.00    +0.000 A 
ATOM      6  N   UNL     1       2.603   7.968  17.943  0.00  0.00    +0.000 N 
ATOM      7  N   UNL     1       4.331   6.508  17.345  0.00  0.00    +0.000 NA
ATOM      8  H   UNL     1       3.265   8.610  17.530  0.00  0.00    +0.000 HD
ENDROOT
BRANCH   6   9
ATOM      9  C   UNL     1       1.792   8.525  18.946  0.00  0.00    +0.000 A 
ATOM     10  C   UNL     1       1.789   8.050  20.264  0.00  0.00    +0.000 A 
ATOM     11  C   UNL     1       0.965   8.628  21.234  0.00  0.00    +0.000 A 
ATOM     12  C   UNL     1       0.132   9.695  20.910  0.00  0.00    +0.000 A 
ATOM     13  C   UNL     1       0.107  10.166  19.597  0.00  0.00    +0.000 A 
ATOM     14  C   UNL     1       0.943   9.593  18.631  0.00  0.00    +0.000 A 
BRANCH  12  15
ATOM     15  O   UNL     1      -0.639  10.173  21.933  0.00  0.00    +0.000 OA
ATOM     16  C   UNL     1      -0.291   9.700  23.229  0.00  0.00    +0.000 C 
ENDBRANCH  12  15
ENDBRANCH   6   9
BRANCH   3  17
ATOM     17  N   UNL     1       2.058   3.295  18.595  0.00  0.00    +0.000 N 
ATOM     18  H   UNL     1       2.665   2.508  18.811  0.00  0.00    +0.000 HD
BRANCH  17  19
ATOM     19  C   UNL     1       1.033   3.542  19.600  0.00  0.00    +0.000 C 
ATOM     20  C   UNL     1       1.609   3.234  20.975  0.00  0.00    +0.000 C 
ENDBRANCH  17  19
ENDBRANCH   3  17
BRANCH   1  21
ATOM     21  C   UNL     1       6.176   5.032  16.674  0.00  0.00    +0.000 C 
BRANCH  21  22
ATOM     22  C   UNL     1       7.279   4.717  17.685  0.00  0.00    +0.000 C 
BRANCH  22  24
ATOM     23  C   UNL     1       7.798   7.165  17.915  0.00  0.00    +0.000 C 
ATOM     24  C   UNL     1       7.560   5.861  18.663  0.00  0.00    +0.000 C 
ENDBRANCH  22  24
ENDBRANCH  21  22
ENDBRANCH   1  21
TORSDOF 7
ENDMDL
MODEL 9
REMARK VINA RESULT:      -6.8      1.720      2.202
REMARK  Name = 
REMARK  10 active torsions:
REMARK  status: ('A' for Active; 'I' for Inactive)
REMARK    1  A    between atoms: C_1  and  C_2
REMARK    2  A    between atoms: C_2  and  C_3
REMARK    3  A    between atoms: C_3  and  C_4
REMARK    4  A    between atoms: C_4  and  C_5
REMARK    5  A    between atoms: C_7  and  N_8
REMARK    6  A    between atoms: N_8  and  C_9
REMARK    7  A    between atoms: C_9  and  C_10
REMARK    8  A    between atoms: N_13  and  C_14
REMARK    9  A    between atoms: C_17  and  O_18
REMARK   10  A    between atoms: O_18  and  C_19
REMARK                            x       y       z     vdW  Elec       q    Type
REMARK                         _______ _______ _______ _____ _____    ______ ____
ROOT
ATOM      1  C   UNL     1       5.616   4.869  15.714  0.00  0.00    +0.000 A 
ATOM      2  C   UNL     1       6.597   5.830  15.815  0.00  0.00    +0.000 A 
ATOM      3  C   UNL     1       6.427   6.810  16.763  0.00  0.00    +0.000 A 
ATOM      4  N   UNL     1       5.333   6.854  17.527  0.00  0.00    +0.000 NA
ATOM      5  C   UNL     1       4.400   5.895  17.368  0.00  0.00    +0.000 A 
ATOM      6  N   UNL     1       3.267   5.911  18.185  0.00  0.00    +0.000 N 
ATOM      7  N   UNL     1       4.518   4.881  16.497  0.00  0.00    +0.000 NA
ATOM      8  H   UNL     1       2.697   5.101  17.989  0.00  0.00    +0.000 HD
ENDROOT
BRANCH   6   9
ATOM      9  C   UNL     1       2.556   7.034  18.640  0.00  0.00    +0.000 A 
ATOM     10  C   UNL     1       2.219   8.104  17.801  0.00  0.00    +0.000 A 
ATOM     11  C   UNL     1       1.513   9.207  18.291  0.00  0.00    +0.000 A 
ATOM     12  C   UNL     1       1.123   9.260  19.626  0.00  0.00    +0.000 A 
ATOM     13  C   UNL     1       1.469   8.213  20.480  0.00  0.00    +0.000 A 
ATOM     14  C   UNL     1       2.166   7.104  19.983  0.00  0.00    +0.000 A 
BRANCH  12  15
ATOM     15  O   UNL     1       0.450  10.391  19.999  0.00  0.00    +0.000 OA
ATOM     16  C   UNL     1       0.766  11.560  19.253  0.00  0.00    +0.000 C 
ENDBRANCH  12  15
ENDBRANCH   6   9
BRANCH   3  17
ATOM     17  N   UNL     1       7.466   7.740  16.927  0.00  0.00    +0.000 N 
ATOM     18  H   UNL     1       7.173   8.650  16.581  0.00  0.00    +0.000 HD
BRANCH  17  19
ATOM     19  C   UNL     1       8.077   7.781  18.249  0.00  0.00    +0.000 C 
ATOM     20  C   UNL     1       8.587   9.191  18.512  0.00  0.00    +0.000 C 
ENDBRANCH  17  19
ENDBRANCH   3  17
BRANCH   1  21
ATOM     21  C   UNL     1       5.788   3.735  14.734  0.00  0.00    +0.000 C 
BRANCH  21  22
ATOM     22  C   UNL     1       6.676   4.069  13.536  0.00  0.00    +0.000 C 
BRANCH  22  24
ATOM     23  C   UNL     1       4.718   3.354  12.133  0.00  0.00    +0.000 C 
ATOM     24  C   UNL     1       6.236   3.392  12.236  0.00  0.00    +0.000 C 
ENDBRANCH  22  24
ENDBRANCH  21  22
ENDBRANCH   1  21
TORSDOF 7
ENDMDL
