MODEL 1
REMARK VINA RESULT:      -7.5      0.000      0.000
REMARK  Name = 
REMARK  8 active torsions:
REMARK  status: ('A' for Active; 'I' for Inactive)
REMARK    1  A    between atoms: C_1  and  C_2
REMARK    2  A    between atoms: C_4  and  C_5
REMARK    3  A    between atoms: N_7  and  C_8
REMARK    4  A    between atoms: C_8  and  C_9
REMARK    5  A    between atoms: C_11  and  C_12
REMARK    6  A    between atoms: C_12  and  O_14
REMARK    7  A    between atoms: C_16  and  C_17
REMARK    8  A    between atoms: C_18  and  C_19
REMARK                            x       y       z     vdW  Elec       q    Type
REMARK                         _______ _______ _______ _____ _____    ______ ____
ROOT
ATOM      1  C   UNL     1       3.943   5.439  18.424  0.00  0.00    +0.000 C 
ATOM      2  O   UNL     1       4.703   5.022  19.293  0.00  0.00    +0.000 OA
ATOM      3  N   UNL     1       3.808   4.802  17.210  0.00  0.00    +0.000 N 
ATOM      4  H   UNL     1       3.208   5.191  16.500  0.00  0.00    +0.000 HD
ENDROOT
BRANCH   1   8
ATOM      5  C   UNL     1       1.540   9.970  18.079  0.00  0.00    +0.000 C 
ATOM      6  C   UNL     1       2.100   8.643  18.404  0.00  0.00    +0.000 A 
ATOM      7  C   UNL     1       3.050   7.834  17.822  0.00  0.00    +0.000 A 
ATOM      8  C   UNL     1       3.123   6.635  18.605  0.00  0.00    +0.000 A 
ATOM      9  C   UNL     1       2.208   6.830  19.633  0.00  0.00    +0.000 A 
ATOM     10  C   UNL     1       1.753   6.035  20.796  0.00  0.00    +0.000 C 
ATOM     11  O   UNL     1       1.592   8.039  19.507  0.00  0.00    +0.000 OA
ENDBRANCH   1   8
BRANCH   3  12
ATOM     12  C   UNL     1       4.611   3.653  16.867  0.00  0.00    +0.000 C 
BRANCH  12  13
ATOM     13  C   UNL     1       5.747   4.087  16.006  0.00  0.00    +0.000 A 
ATOM     14  C   UNL     1       5.755   4.204  14.583  0.00  0.00    +0.000 A 
ATOM     15  C   UNL     1       6.994   4.694  14.222  0.00  0.00    +0.000 A 
ATOM     16  O   UNL     1       7.759   4.872  15.343  0.00  0.00    +0.000 OA
ATOM     17  C   UNL     1       7.001   4.509  16.413  0.00  0.00    +0.000 A 
ATOM     18  C   UNL     1       7.648   4.656  17.738  0.00  0.00    +0.000 C 
BRANCH  15  19
ATOM     19  C   UNL     1       7.560   5.035  12.942  0.00  0.00    +0.000 C 
ATOM     20  O   UNL     1       8.327   5.959  12.714  0.00  0.00    +0.000 OA
BRANCH  19  21
ATOM     21  O   UNL     1       7.131   4.179  11.976  0.00  0.00    +0.000 OA
ATOM     22  H   UNL     1       6.481   3.552  12.360  0.00  0.00    +0.000 HD
ENDBRANCH  19  21
ENDBRANCH  15  19
ENDBRANCH  12  13
ENDBRANCH   3  12
TORSDOF 5
ENDMDL
MODEL 2
REMARK VINA RESULT:      -7.4      1.640      2.401
REMARK  Name = 
REMARK  8 active torsions:
REMARK  status: ('A' for Active; 'I' for Inactive)
REMARK    1  A    between atoms: C_1  and  C_2
REMARK    2  A    between atoms: C_4  and  C_5
REMARK    3  A    between atoms: N_7  and  C_8
REMARK    4  A    between atoms: C_8  and  C_9
REMARK    5  A    between atoms: C_11  and  C_12
REMARK    6  A    between atoms: C_12  and  O_14
REMARK    7  A    between atoms: C_16  and  C_17
REMARK    8  A    between atoms: C_18  and  C_19
REMARK                            x       y       z     vdW  Elec       q    Type
REMARK                         _______ _______ _______ _____ _____    ______ ____
ROOT
ATOM      1  C   UNL     1       2.894   5.504  19.234  0.00  0.00    +0.000 C 
ATOM      2  O   UNL     1       2.294   4.641  18.600  0.00  0.00    +0.000 OA
ATOM      3  N   UNL     1       4.233   5.385  19.535  0.00  0.00    +0.000 N 
ATOM      4  H   UNL     1       4.690   6.088  20.092  0.00  0.00    +0.000 HD
ENDROOT
BRANCH   1   8
ATOM      5  C   UNL     1       0.476   9.180  21.890  0.00  0.00    +0.000 C 
ATOM      6  C   UNL     1       1.170   8.299  20.931  0.00  0.00    +0.000 A 
ATOM      7  C   UNL     1       1.592   6.988  20.965  0.00  0.00    +0.000 A 
ATOM      8  C   UNL     1       2.244   6.721  19.717  0.00  0.00    +0.000 A 
ATOM      9  C   UNL     1       2.143   7.910  19.004  0.00  0.00    +0.000 A 
ATOM     10  C   UNL     1       2.578   8.371  17.666  0.00  0.00    +0.000 C 
ATOM     11  O   UNL     1       1.498   8.858  19.740  0.00  0.00    +0.000 OA
ENDBRANCH   1   8
BRANCH   3  12
ATOM     12  C   UNL     1       4.984   4.201  19.185  0.00  0.00    +0.000 C 
BRANCH  12  13
ATOM     13  C   UNL     1       5.849   4.499  18.009  0.00  0.00    +0.000 A 
ATOM     14  C   UNL     1       5.597   4.162  16.646  0.00  0.00    +0.000 A 
ATOM     15  C   UNL     1       6.634   4.684  15.899  0.00  0.00    +0.000 A 
ATOM     16  O   UNL     1       7.523   5.312  16.728  0.00  0.00    +0.000 OA
ATOM     17  C   UNL     1       7.042   5.201  17.996  0.00  0.00    +0.000 A 
ATOM     18  C   UNL     1       7.858   5.848  19.051  0.00  0.00    +0.000 C 
BRANCH  15  19
ATOM     19  C   UNL     1       6.898   4.682  14.483  0.00  0.00    +0.000 C 
ATOM     20  O   UNL     1       6.345   3.985  13.645  0.00  0.00    +0.000 OA
BRANCH  19  21
ATOM     21  O   UNL     1       7.870   5.580  14.167  0.00  0.00    +0.000 OA
ATOM     22  H   UNL     1       8.685   5.100  13.903  0.00  0.00    +0.000 HD
ENDBRANCH  19  21
ENDBRANCH  15  19
ENDBRANCH  12  13
ENDBRANCH   3  12
TORSDOF 5
ENDMDL
MODEL 3
REMARK VINA RESULT:      -7.4      2.720      7.014
REMARK  Name = 
REMARK  8 active torsions:
REMARK  status: ('A' for Active; 'I' for Inactive)
REMARK    1  A    between atoms: C_1  and  C_2
REMARK    2  A    between atoms: C_4  and  C_5
REMARK    3  A    between atoms: N_7  and  C_8
REMARK    4  A    between atoms: C_8  and  C_9
REMARK    5  A    between atoms: C_11  and  C_12
REMARK    6  A    between atoms: C_12  and  O_14
REMARK    7  A    between atoms: C_16  and  C_17
REMARK    8  A    between atoms: C_18  and  C_19
REMARK                            x       y       z     vdW  Elec       q    Type
REMARK                         _______ _______ _______ _____ _____    ______ ____
ROOT
ATOM      1  C   UNL     1       6.586   5.387  15.123  0.00  0.00    +0.000 C 
ATOM      2  O   UNL     1       7.620   5.720  15.695  0.00  0.00    +0.000 OA
ATOM      3  N   UNL     1       5.343   5.724  15.614  0.00  0.00    +0.000 N 
ATOM      4  H   UNL     1       4.512   5.401  15.146  0.00  0.00    +0.000 HD
ENDROOT
BRANCH   1   8
ATOM      5  C   UNL     1       5.734   2.106  11.260  0.00  0.00    +0.000 C 
ATOM      6  C   UNL     1       6.172   3.140  12.218  0.00  0.00    +0.000 A 
ATOM      7  C   UNL     1       5.806   3.475  13.502  0.00  0.00    +0.000 A 
ATOM      8  C   UNL     1       6.587   4.614  13.883  0.00  0.00    +0.000 A 
ATOM      9  C   UNL     1       7.397   4.870  12.782  0.00  0.00    +0.000 A 
ATOM     10  C   UNL     1       8.438   5.871  12.456  0.00  0.00    +0.000 C 
ATOM     11  O   UNL     1       7.142   3.981  11.781  0.00  0.00    +0.000 OA
ENDBRANCH   1   8
BRANCH   3  12
ATOM     12  C   UNL     1       5.190   6.422  16.869  0.00  0.00    +0.000 C 
BRANCH  12  13
ATOM     13  C   UNL     1       5.222   5.436  17.985  0.00  0.00    +0.000 A 
ATOM     14  C   UNL     1       4.238   4.449  18.291  0.00  0.00    +0.000 A 
ATOM     15  C   UNL     1       4.709   3.725  19.368  0.00  0.00    +0.000 A 
ATOM     16  O   UNL     1       5.925   4.221  19.755  0.00  0.00    +0.000 OA
ATOM     17  C   UNL     1       6.229   5.247  18.916  0.00  0.00    +0.000 A 
ATOM     18  C   UNL     1       7.534   5.907  19.155  0.00  0.00    +0.000 C 
BRANCH  15  19
ATOM     19  C   UNL     1       4.165   2.601  20.087  0.00  0.00    +0.000 C 
ATOM     20  O   UNL     1       3.058   2.539  20.601  0.00  0.00    +0.000 OA
BRANCH  19  21
ATOM     21  O   UNL     1       5.055   1.573  20.130  0.00  0.00    +0.000 OA
ATOM     22  H   UNL     1       5.693   1.662  19.389  0.00  0.00    +0.000 HD
ENDBRANCH  19  21
ENDBRANCH  15  19
ENDBRANCH  12  13
ENDBRANCH   3  12
TORSDOF 5
ENDMDL
MODEL 4
REMARK VINA RESULT:      -7.3      1.687      6.876
REMARK  Name = 
REMARK  8 active torsions:
REMARK  status: ('A' for Active; 'I' for Inactive)
REMARK    1  A    between atoms: C_1  and  C_2
REMARK    2  A    between atoms: C_4  and  C_5
REMARK    3  A    between atoms: N_7  and  C_8
REMARK    4  A    between atoms: C_8  and  C_9
REMARK    5  A    between atoms: C_11  and  C_12
REMARK    6  A    between atoms: C_12  and  O_14
REMARK    7  A    between atoms: C_16  and  C_17
REMARK    8  A    between atoms: C_18  and  C_19
REMARK                            x       y       z     vdW  Elec       q    Type
REMARK                         _______ _______ _______ _____ _____    ______ ____
ROOT
ATOM      1  C   UNL     1       5.329   4.123  17.717  0.00  0.00    +0.000 C 
ATOM      2  O   UNL     1       5.823   4.007  18.834  0.00  0.00    +0.000 OA
ATOM      3  N   UNL     1       4.006   3.828  17.472  0.00  0.00    +0.000 N 
ATOM      4  H   UNL     1       3.638   3.892  16.537  0.00  0.00    +0.000 HD
ENDROOT
BRANCH   1   8
ATOM      5  C   UNL     1       7.477   4.903  13.113  0.00  0.00    +0.000 C 
ATOM      6  C   UNL     1       7.015   4.875  14.514  0.00  0.00    +0.000 A 
ATOM      7  C   UNL     1       6.163   4.062  15.228  0.00  0.00    +0.000 A 
ATOM      8  C   UNL     1       6.097   4.583  16.561  0.00  0.00    +0.000 A 
ATOM      9  C   UNL     1       6.951   5.679  16.554  0.00  0.00    +0.000 A 
ATOM     10  C   UNL     1       7.378   6.683  17.556  0.00  0.00    +0.000 C 
ATOM     11  O   UNL     1       7.500   5.854  15.319  0.00  0.00    +0.000 OA
ENDBRANCH   1   8
BRANCH   3  12
ATOM     12  C   UNL     1       3.148   3.293  18.504  0.00  0.00    +0.000 C 
BRANCH  12  13
ATOM     13  C   UNL     1       2.623   4.412  19.334  0.00  0.00    +0.000 A 
ATOM     14  C   UNL     1       2.694   5.808  19.045  0.00  0.00    +0.000 A 
ATOM     15  C   UNL     1       2.028   6.468  20.058  0.00  0.00    +0.000 A 
ATOM     16  O   UNL     1       1.563   5.558  20.968  0.00  0.00    +0.000 OA
ATOM     17  C   UNL     1       1.920   4.322  20.524  0.00  0.00    +0.000 A 
ATOM     18  C   UNL     1       1.480   3.185  21.366  0.00  0.00    +0.000 C 
BRANCH  15  19
ATOM     19  C   UNL     1       1.756   7.865  20.283  0.00  0.00    +0.000 C 
ATOM     20  O   UNL     1       1.588   8.716  19.422  0.00  0.00    +0.000 OA
BRANCH  19  21
ATOM     21  O   UNL     1       1.704   8.143  21.614  0.00  0.00    +0.000 OA
ATOM     22  H   UNL     1       2.555   7.894  22.033  0.00  0.00    +0.000 HD
ENDBRANCH  19  21
ENDBRANCH  15  19
ENDBRANCH  12  13
ENDBRANCH   3  12
TORSDOF 5
ENDMDL
MODEL 5
REMARK VINA RESULT:      -7.1      2.109      7.357
REMARK  Name = 
REMARK  8 active torsions:
REMARK  status: ('A' for Active; 'I' for Inactive)
REMARK    1  A    between atoms: C_1  and  C_2
REMARK    2  A    between atoms: C_4  and  C_5
REMARK    3  A    between atoms: N_7  and  C_8
REMARK    4  A    between atoms: C_8  and  C_9
REMARK    5  A    between atoms: C_11  and  C_12
REMARK    6  A    between atoms: C_12  and  O_14
REMARK    7  A    between atoms: C_16  and  C_17
REMARK    8  A    between atoms: C_18  and  C_19
REMARK                            x       y       z     vdW  Elec       q    Type
REMARK                         _______ _______ _______ _____ _____    ______ ____
ROOT
ATOM      1  C   UNL     1       6.653   4.912  15.718  0.00  0.00    +0.000 C 
ATOM      2  O   UNL     1       7.291   5.928  15.973  0.00  0.00    +0.000 OA
ATOM      3  N   UNL     1       6.037   4.173  16.705  0.00  0.00    +0.000 N 
ATOM      4  H   UNL     1       5.555   3.320  16.471  0.00  0.00    +0.000 HD
ENDROOT
BRANCH   1   8
ATOM      5  C   UNL     1       5.182   2.594  11.373  0.00  0.00    +0.000 C 
ATOM      6  C   UNL     1       5.801   3.353  12.476  0.00  0.00    +0.000 A 
ATOM      7  C   UNL     1       5.542   3.473  13.823  0.00  0.00    +0.000 A 
ATOM      8  C   UNL     1       6.492   4.404  14.357  0.00  0.00    +0.000 A 
ATOM      9  C   UNL     1       7.282   4.763  13.271  0.00  0.00    +0.000 A 
ATOM     10  C   UNL     1       8.439   5.665  13.068  0.00  0.00    +0.000 C 
ATOM     11  O   UNL     1       6.862   4.130  12.140  0.00  0.00    +0.000 OA
ENDBRANCH   1   8
BRANCH   3  12
ATOM     12  C   UNL     1       6.174   4.516  18.101  0.00  0.00    +0.000 C 
BRANCH  12  13
ATOM     13  C   UNL     1       4.822   4.592  18.723  0.00  0.00    +0.000 A 
ATOM     14  C   UNL     1       4.252   3.681  19.661  0.00  0.00    +0.000 A 
ATOM     15  C   UNL     1       3.011   4.176  20.007  0.00  0.00    +0.000 A 
ATOM     16  O   UNL     1       2.775   5.337  19.322  0.00  0.00    +0.000 OA
ATOM     17  C   UNL     1       3.872   5.584  18.555  0.00  0.00    +0.000 A 
ATOM     18  C   UNL     1       3.824   6.826  17.748  0.00  0.00    +0.000 C 
BRANCH  15  19
ATOM     19  C   UNL     1       2.004   3.702  20.922  0.00  0.00    +0.000 C 
ATOM     20  O   UNL     1       2.193   3.307  22.063  0.00  0.00    +0.000 OA
BRANCH  19  21
ATOM     21  O   UNL     1       0.769   3.746  20.353  0.00  0.00    +0.000 OA
ATOM     22  H   UNL     1       0.638   2.948  19.796  0.00  0.00    +0.000 HD
ENDBRANCH  19  21
ENDBRANCH  15  19
ENDBRANCH  12  13
ENDBRANCH   3  12
TORSDOF 5
ENDMDL
MODEL 6
REMARK VINA RESULT:      -7.1      1.885      7.206
REMARK  Name = 
REMARK  8 active torsions:
REMARK  status: ('A' for Active; 'I' for Inactive)
REMARK    1  A    between atoms: C_1  and  C_2
REMARK    2  A    between atoms: C_4  and  C_5
REMARK    3  A    between atoms: N_7  and  C_8
REMARK    4  A    between atoms: C_8  and  C_9
REMARK    5  A    between atoms: C_11  and  C_12
REMARK    6  A    between atoms: C_12  and  O_14
REMARK    7  A    between atoms: C_16  and  C_17
REMARK    8  A    between atoms: C_18  and  C_19
REMARK                            x       y       z     vdW  Elec       q    Type
REMARK                         _______ _______ _______ _____ _____    ______ ____
ROOT
ATOM      1  C   UNL     1       6.721   5.261  15.537  0.00  0.00    +0.000 C 
ATOM      2  O   UNL     1       7.614   4.981  16.330  0.00  0.00    +0.000 OA
ATOM      3  N   UNL     1       5.772   6.219  15.818  0.00  0.00    +0.000 N 
ATOM      4  H   UNL     1       5.026   6.398  15.165  0.00  0.00    +0.000 HD
ENDROOT
BRANCH   1   8
ATOM      5  C   UNL     1       5.385   2.436  11.455  0.00  0.00    +0.000 C 
ATOM      6  C   UNL     1       5.962   3.335  12.474  0.00  0.00    +0.000 A 
ATOM      7  C   UNL     1       5.689   3.582  13.801  0.00  0.00    +0.000 A 
ATOM      8  C   UNL     1       6.592   4.607  14.236  0.00  0.00    +0.000 A 
ATOM      9  C   UNL     1       7.371   4.888  13.119  0.00  0.00    +0.000 A 
ATOM     10  C   UNL     1       8.485   5.817  12.824  0.00  0.00    +0.000 C 
ATOM     11  O   UNL     1       6.987   4.121  12.060  0.00  0.00    +0.000 OA
ENDBRANCH   1   8
BRANCH   3  12
ATOM     12  C   UNL     1       5.734   6.892  17.095  0.00  0.00    +0.000 C 
BRANCH  12  13
ATOM     13  C   UNL     1       4.630   6.321  17.918  0.00  0.00    +0.000 A 
ATOM     14  C   UNL     1       4.657   5.114  18.678  0.00  0.00    +0.000 A 
ATOM     15  C   UNL     1       3.441   5.012  19.323  0.00  0.00    +0.000 A 
ATOM     16  O   UNL     1       2.656   6.083  18.991  0.00  0.00    +0.000 OA
ATOM     17  C   UNL     1       3.380   6.870  18.149  0.00  0.00    +0.000 A 
ATOM     18  C   UNL     1       2.708   8.109  17.691  0.00  0.00    +0.000 C 
BRANCH  15  19
ATOM     19  C   UNL     1       2.913   4.031  20.236  0.00  0.00    +0.000 C 
ATOM     20  O   UNL     1       2.169   4.249  21.181  0.00  0.00    +0.000 OA
BRANCH  19  21
ATOM     21  O   UNL     1       3.350   2.783  19.916  0.00  0.00    +0.000 OA
ATOM     22  H   UNL     1       4.279   2.832  19.603  0.00  0.00    +0.000 HD
ENDBRANCH  19  21
ENDBRANCH  15  19
ENDBRANCH  12  13
ENDBRANCH   3  12
TORSDOF 5
ENDMDL
MODEL 7
REMARK VINA RESULT:      -7.0      1.809      6.736
REMARK  Name = 
REMARK  8 active torsions:
REMARK  status: ('A' for Active; 'I' for Inactive)
REMARK    1  A    between atoms: C_1  and  C_2
REMARK    2  A    between atoms: C_4  and  C_5
REMARK    3  A    between atoms: N_7  and  C_8
REMARK    4  A    between atoms: C_8  and  C_9
REMARK    5  A    between atoms: C_11  and  C_12
REMARK    6  A    between atoms: C_12  and  O_14
REMARK    7  A    between atoms: C_16  and  C_17
REMARK    8  A    between atoms: C_18  and  C_19
REMARK                            x       y       z     vdW  Elec       q    Type
REMARK                         _______ _______ _______ _____ _____    ______ ____
ROOT
ATOM      1  C   UNL     1       4.767   3.800  17.107  0.00  0.00    +0.000 C 
ATOM      2  O   UNL     1       3.645   3.444  16.762  0.00  0.00    +0.000 OA
ATOM      3  N   UNL     1       5.196   3.692  18.412  0.00  0.00    +0.000 N 
ATOM      4  H   UNL     1       6.108   4.031  18.673  0.00  0.00    +0.000 HD
ENDROOT
BRANCH   1   8
ATOM      5  C   UNL     1       7.673   5.076  13.063  0.00  0.00    +0.000 C 
ATOM      6  C   UNL     1       6.988   4.879  14.356  0.00  0.00    +0.000 A 
ATOM      7  C   UNL     1       5.989   4.039  14.795  0.00  0.00    +0.000 A 
ATOM      8  C   UNL     1       5.736   4.363  16.168  0.00  0.00    +0.000 A 
ATOM      9  C   UNL     1       6.638   5.379  16.463  0.00  0.00    +0.000 A 
ATOM     10  C   UNL     1       6.950   6.189  17.663  0.00  0.00    +0.000 C 
ATOM     11  O   UNL     1       7.388   5.689  15.368  0.00  0.00    +0.000 OA
ENDBRANCH   1   8
BRANCH   3  12
ATOM     12  C   UNL     1       4.319   3.223  19.459  0.00  0.00    +0.000 C 
BRANCH  12  13
ATOM     13  C   UNL     1       3.382   4.316  19.839  0.00  0.00    +0.000 A 
ATOM     14  C   UNL     1       3.502   5.703  19.526  0.00  0.00    +0.000 A 
ATOM     15  C   UNL     1       2.380   6.332  20.028  0.00  0.00    +0.000 A 
ATOM     16  O   UNL     1       1.580   5.412  20.649  0.00  0.00    +0.000 OA
ATOM     17  C   UNL     1       2.186   4.200  20.528  0.00  0.00    +0.000 A 
ATOM     18  C   UNL     1       1.455   3.055  21.119  0.00  0.00    +0.000 C 
BRANCH  15  19
ATOM     19  C   UNL     1       1.947   7.706  19.990  0.00  0.00    +0.000 C 
ATOM     20  O   UNL     1       1.487   8.345  20.925  0.00  0.00    +0.000 OA
BRANCH  19  21
ATOM     21  O   UNL     1       2.115   8.236  18.748  0.00  0.00    +0.000 OA
ATOM     22  H   UNL     1       1.709   7.640  18.082  0.00  0.00    +0.000 HD
ENDBRANCH  19  21
ENDBRANCH  15  19
ENDBRANCH  12  13
ENDBRANCH   3  12
TORSDOF 5
ENDMDL
MODEL 8
REMARK VINA RESULT:      -7.0      2.218      7.095
REMARK  Name = 
REMARK  8 active torsions:
REMARK  status: ('A' for Active; 'I' for Inactive)
REMARK    1  A    between atoms: C_1  and  C_2
REMARK    2  A    between atoms: C_4  and  C_5
REMARK    3  A    between atoms: N_7  and  C_8
REMARK    4  A    between atoms: C_8  and  C_9
REMARK    5  A    between atoms: C_11  and  C_12
REMARK    6  A    between atoms: C_12  and  O_14
REMARK    7  A    between atoms: C_16  and  C_17
REMARK    8  A    between atoms: C_18  and  C_19
REMARK                            x       y       z     vdW  Elec       q    Type
REMARK                         _______ _______ _______ _____ _____    ______ ____
ROOT
ATOM      1  C   UNL     1       6.414   5.563  15.274  0.00  0.00    +0.000 C 
ATOM      2  O   UNL     1       7.414   5.788  15.949  0.00  0.00    +0.000 OA
ATOM      3  N   UNL     1       5.178   6.068  15.616  0.00  0.00    +0.000 N 
ATOM      4  H   UNL     1       4.367   5.833  15.066  0.00  0.00    +0.000 HD
ENDROOT
BRANCH   1   8
ATOM      5  C   UNL     1       5.615   2.218  11.455  0.00  0.00    +0.000 C 
ATOM      6  C   UNL     1       6.053   3.252  12.412  0.00  0.00    +0.000 A 
ATOM      7  C   UNL     1       5.621   3.653  13.657  0.00  0.00    +0.000 A 
ATOM      8  C   UNL     1       6.450   4.751  14.060  0.00  0.00    +0.000 A 
ATOM      9  C   UNL     1       7.351   4.914  13.014  0.00  0.00    +0.000 A 
ATOM     10  C   UNL     1       8.479   5.833  12.736  0.00  0.00    +0.000 C 
ATOM     11  O   UNL     1       7.108   4.012  12.023  0.00  0.00    +0.000 OA
ENDBRANCH   1   8
BRANCH   3  12
ATOM     12  C   UNL     1       4.981   6.826  16.829  0.00  0.00    +0.000 C 
BRANCH  12  13
ATOM     13  C   UNL     1       4.404   5.935  17.875  0.00  0.00    +0.000 A 
ATOM     14  C   UNL     1       3.048   5.507  17.991  0.00  0.00    +0.000 A 
ATOM     15  C   UNL     1       2.982   4.648  19.070  0.00  0.00    +0.000 A 
ATOM     16  O   UNL     1       4.222   4.534  19.638  0.00  0.00    +0.000 OA
ATOM     17  C   UNL     1       5.074   5.308  18.911  0.00  0.00    +0.000 A 
ATOM     18  C   UNL     1       6.487   5.298  19.356  0.00  0.00    +0.000 C 
BRANCH  15  19
ATOM     19  C   UNL     1       1.893   3.898  19.640  0.00  0.00    +0.000 C 
ATOM     20  O   UNL     1       0.964   4.353  20.290  0.00  0.00    +0.000 OA
BRANCH  19  21
ATOM     21  O   UNL     1       2.016   2.572  19.362  0.00  0.00    +0.000 OA
ATOM     22  H   UNL     1       1.177   2.113  19.583  0.00  0.00    +0.000 HD
ENDBRANCH  19  21
ENDBRANCH  15  19
ENDBRANCH  12  13
ENDBRANCH   3  12
TORSDOF 5
ENDMDL
MODEL 9
REMARK VINA RESULT:      -7.0      0.816      1.151
REMARK  Name = 
REMARK  8 active torsions:
REMARK  status: ('A' for Active; 'I' for Inactive)
REMARK    1  A    between atoms: C_1  and  C_2
REMARK    2  A    between atoms: C_4  and  C_5
REMARK    3  A    between atoms: N_7  and  C_8
REMARK    4  A    between atoms: C_8  and  C_9
REMARK    5  A    between atoms: C_11  and  C_12
REMARK    6  A    between atoms: C_12  and  O_14
REMARK    7  A    between atoms: C_16  and  C_17
REMARK    8  A    between atoms: C_18  and  C_19
REMARK                            x       y       z     vdW  Elec       q    Type
REMARK                         _______ _______ _______ _____ _____    ______ ____
ROOT
ATOM      1  C   UNL     1       3.948   4.544  18.552  0.00  0.00    +0.000 C 
ATOM      2  O   UNL     1       4.547   3.788  19.312  0.00  0.00    +0.000 OA
ATOM      3  N   UNL     1       3.987   4.381  17.185  0.00  0.00    +0.000 N 
ATOM      4  H   UNL     1       3.520   5.041  16.584  0.00  0.00    +0.000 HD
ENDROOT
BRANCH   1   8
ATOM      5  C   UNL     1       1.540   9.022  19.306  0.00  0.00    +0.000 C 
ATOM      6  C   UNL     1       2.120   7.664  19.315  0.00  0.00    +0.000 A 
ATOM      7  C   UNL     1       3.018   6.999  18.511  0.00  0.00    +0.000 A 
ATOM      8  C   UNL     1       3.149   5.670  19.031  0.00  0.00    +0.000 A 
ATOM      9  C   UNL     1       2.319   5.644  20.146  0.00  0.00    +0.000 A 
ATOM     10  C   UNL     1       1.956   4.628  21.160  0.00  0.00    +0.000 C 
ATOM     11  O   UNL     1       1.699   6.846  20.313  0.00  0.00    +0.000 OA
ENDBRANCH   1   8
BRANCH   3  12
ATOM     12  C   UNL     1       4.797   3.356  16.569  0.00  0.00    +0.000 C 
BRANCH  12  13
ATOM     13  C   UNL     1       5.892   3.998  15.790  0.00  0.00    +0.000 A 
ATOM     14  C   UNL     1       6.039   4.027  14.371  0.00  0.00    +0.000 A 
ATOM     15  C   UNL     1       7.163   4.779  14.093  0.00  0.00    +0.000 A 
ATOM     16  O   UNL     1       7.729   5.204  15.264  0.00  0.00    +0.000 OA
ATOM     17  C   UNL     1       6.957   4.734  16.282  0.00  0.00    +0.000 A 
ATOM     18  C   UNL     1       7.392   5.113  17.646  0.00  0.00    +0.000 C 
BRANCH  15  19
ATOM     19  C   UNL     1       7.779   5.169  12.851  0.00  0.00    +0.000 C 
ATOM     20  O   UNL     1       7.444   4.806  11.733  0.00  0.00    +0.000 OA
BRANCH  19  21
ATOM     21  O   UNL     1       8.817   6.021  13.068  0.00  0.00    +0.000 OA
ATOM     22  H   UNL     1       9.317   5.731  13.861  0.00  0.00    +0.000 HD
ENDBRANCH  19  21
ENDBRANCH  15  19
ENDBRANCH  12  13
ENDBRANCH   3  12
TORSDOF 5
ENDMDL
