MODEL 1
REMARK VINA RESULT:      -7.1      0.000      0.000
REMARK  Name = 
REMARK  13 active torsions:
REMARK  status: ('A' for Active; 'I' for Inactive)
REMARK    1  A    between atoms: C_1  and  C_2
REMARK    2  A    between atoms: C_2  and  C_3
REMARK    3  A    between atoms: C_3  and  N_4
REMARK    4  A    between atoms: N_4  and  C_5
REMARK    5  A    between atoms: N_4  and  S_7
REMARK    6  A    between atoms: C_5  and  C_6
REMARK    7  A    between atoms: S_7  and  C_10
REMARK    8  A    between atoms: C_13  and  S_14
REMARK    9  A    between atoms: S_14  and  N_17
REMARK   10  A    between atoms: C_21  and  C_22
REMARK   11  A    between atoms: C_22  and  O_24
REMARK   12  A    between atoms: O_24  and  C_25
REMARK   13  A    between atoms: C_25  and  C_26
REMARK                            x       y       z     vdW  Elec       q    Type
REMARK                         _______ _______ _______ _____ _____    ______ ____
ROOT
ATOM      1  C   UNL     1       1.350   8.271  20.421  0.00  0.00    +0.000 A 
ATOM      2  C   UNL     1       1.265   7.027  21.053  0.00  0.00    +0.000 A 
ATOM      3  C   UNL     1       1.814   5.899  20.436  0.00  0.00    +0.000 A 
ATOM      4  C   UNL     1       2.424   6.015  19.179  0.00  0.00    +0.000 A 
ATOM      5  C   UNL     1       2.526   7.267  18.557  0.00  0.00    +0.000 A 
ATOM      6  C   UNL     1       1.972   8.396  19.172  0.00  0.00    +0.000 A 
ENDROOT
BRANCH   1   7
ATOM      7  S   UNL     1       0.621   9.699  21.202  0.00  0.00    +0.000 S 
ATOM      8  O   UNL     1       1.644  10.287  22.041  0.00  0.00    +0.000 OA
ATOM      9  O   UNL     1      -0.658   9.303  21.750  0.00  0.00    +0.000 OA
BRANCH   7  10
ATOM     10  N   UNL     1       0.313  10.775  19.889  0.00  0.00    +0.000 NA
BRANCH  10  11
ATOM     11  C   UNL     1       1.280  11.919  19.821  0.00  0.00    +0.000 C 
ATOM     12  C   UNL     1       2.045  12.003  18.509  0.00  0.00    +0.000 C 
ENDBRANCH  10  11
BRANCH  10  13
ATOM     13  C   UNL     1      -1.129  11.155  19.758  0.00  0.00    +0.000 C 
BRANCH  13  15
ATOM     14  C   UNL     1      -0.918   9.919  17.535  0.00  0.00    +0.000 C 
ATOM     15  C   UNL     1      -1.854  10.523  18.570  0.00  0.00    +0.000 C 
ENDBRANCH  13  15
ENDBRANCH  10  13
ENDBRANCH   7  10
ENDBRANCH   1   7
BRANCH   4  16
ATOM     16  S   UNL     1       3.189   4.573  18.427  0.00  0.00    +0.000 S 
ATOM     17  O   UNL     1       3.296   3.562  19.455  0.00  0.00    +0.000 OA
ATOM     18  O   UNL     1       2.473   4.311  17.195  0.00  0.00    +0.000 OA
BRANCH  16  19
ATOM     19  N   UNL     1       4.782   5.093  18.013  0.00  0.00    +0.000 NA
ATOM     20  C   UNL     1       5.842   4.644  18.950  0.00  0.00    +0.000 C 
ATOM     21  C   UNL     1       7.209   5.196  18.570  0.00  0.00    +0.000 C 
ATOM     22  C   UNL     1       7.549   4.876  17.124  0.00  0.00    +0.000 C 
ATOM     23  C   UNL     1       6.495   5.472  16.189  0.00  0.00    +0.000 C 
ATOM     24  C   UNL     1       5.095   4.982  16.563  0.00  0.00    +0.000 C 
BRANCH  23  25
ATOM     25  C   UNL     1       6.762   5.032  14.761  0.00  0.00    +0.000 C 
ATOM     26  O   UNL     1       7.766   5.317  14.126  0.00  0.00    +0.000 OA
BRANCH  25  27
ATOM     27  O   UNL     1       5.695   4.355  14.255  0.00  0.00    +0.000 OA
BRANCH  27  28
ATOM     28  C   UNL     1       6.017   3.470  13.171  0.00  0.00    +0.000 C 
ATOM     29  C   UNL     1       4.893   3.571  12.152  0.00  0.00    +0.000 C 
ENDBRANCH  27  28
ENDBRANCH  25  27
ENDBRANCH  23  25
ENDBRANCH  16  19
ENDBRANCH   4  16
TORSDOF 10
ENDMDL
MODEL 2
REMARK VINA RESULT:      -6.9      1.198      1.509
REMARK  Name = 
REMARK  13 active torsions:
REMARK  status: ('A' for Active; 'I' for Inactive)
REMARK    1  A    between atoms: C_1  and  C_2
REMARK    2  A    between atoms: C_2  and  C_3
REMARK    3  A    between atoms: C_3  and  N_4
REMARK    4  A    between atoms: N_4  and  C_5
REMARK    5  A    between atoms: N_4  and  S_7
REMARK    6  A    between atoms: C_5  and  C_6
REMARK    7  A    between atoms: S_7  and  C_10
REMARK    8  A    between atoms: C_13  and  S_14
REMARK    9  A    between atoms: S_14  and  N_17
REMARK   10  A    between atoms: C_21  and  C_22
REMARK   11  A    between atoms: C_22  and  O_24
REMARK   12  A    between atoms: O_24  and  C_25
REMARK   13  A    between atoms: C_25  and  C_26
REMARK                            x       y       z     vdW  Elec       q    Type
REMARK                         _______ _______ _______ _____ _____    ______ ____
ROOT
ATOM      1  C   UNL     1       1.215   9.067  20.057  0.00  0.00    +0.000 A 
ATOM      2  C   UNL     1       1.212   8.009  20.970  0.00  0.00    +0.000 A 
ATOM      3  C   UNL     1       1.768   6.779  20.605  0.00  0.00    +0.000 A 
ATOM      4  C   UNL     1       2.303   6.605  19.321  0.00  0.00    +0.000 A 
ATOM      5  C   UNL     1       2.323   7.674  18.415  0.00  0.00    +0.000 A 
ATOM      6  C   UNL     1       1.762   8.904  18.778  0.00  0.00    +0.000 A 
ENDROOT
BRANCH   1   7
ATOM      7  S   UNL     1       0.478  10.623  20.519  0.00  0.00    +0.000 S 
ATOM      8  O   UNL     1       1.490  11.372  21.235  0.00  0.00    +0.000 OA
ATOM      9  O   UNL     1      -0.809  10.345  21.120  0.00  0.00    +0.000 OA
BRANCH   7  10
ATOM     10  N   UNL     1       0.188  11.408  19.011  0.00  0.00    +0.000 NA
BRANCH  10  11
ATOM     11  C   UNL     1       0.774  12.787  18.939  0.00  0.00    +0.000 C 
ATOM     12  C   UNL     1      -0.251  13.879  18.676  0.00  0.00    +0.000 C 
ENDBRANCH  10  11
BRANCH  10  13
ATOM     13  C   UNL     1      -1.229  11.297  18.546  0.00  0.00    +0.000 C 
BRANCH  13  15
ATOM     14  C   UNL     1      -2.485  10.492  16.475  0.00  0.00    +0.000 C 
ATOM     15  C   UNL     1      -1.499  10.144  17.578  0.00  0.00    +0.000 C 
ENDBRANCH  13  15
ENDBRANCH  10  13
ENDBRANCH   7  10
ENDBRANCH   1   7
BRANCH   4  16
ATOM     16  S   UNL     1       3.078   5.043  18.888  0.00  0.00    +0.000 S 
ATOM     17  O   UNL     1       3.219   4.283  20.109  0.00  0.00    +0.000 OA
ATOM     18  O   UNL     1       2.346   4.509  17.757  0.00  0.00    +0.000 OA
BRANCH  16  19
ATOM     19  N   UNL     1       4.656   5.479  18.338  0.00  0.00    +0.000 NA
ATOM     20  C   UNL     1       5.722   5.359  19.362  0.00  0.00    +0.000 C 
ATOM     21  C   UNL     1       7.072   5.828  18.836  0.00  0.00    +0.000 C 
ATOM     22  C   UNL     1       7.436   5.116  17.544  0.00  0.00    +0.000 C 
ATOM     23  C   UNL     1       6.369   5.378  16.479  0.00  0.00    +0.000 C 
ATOM     24  C   UNL     1       4.985   4.966  16.981  0.00  0.00    +0.000 C 
BRANCH  23  25
ATOM     25  C   UNL     1       6.665   4.555  15.238  0.00  0.00    +0.000 C 
ATOM     26  O   UNL     1       6.117   3.500  14.961  0.00  0.00    +0.000 OA
BRANCH  25  27
ATOM     27  O   UNL     1       7.685   5.106  14.524  0.00  0.00    +0.000 OA
BRANCH  27  28
ATOM     28  C   UNL     1       7.527   5.013  13.099  0.00  0.00    +0.000 C 
ATOM     29  C   UNL     1       8.510   5.985  12.467  0.00  0.00    +0.000 C 
ENDBRANCH  27  28
ENDBRANCH  25  27
ENDBRANCH  23  25
ENDBRANCH  16  19
ENDBRANCH   4  16
TORSDOF 10
ENDMDL
MODEL 3
REMARK VINA RESULT:      -6.8      1.372      1.914
REMARK  Name = 
REMARK  13 active torsions:
REMARK  status: ('A' for Active; 'I' for Inactive)
REMARK    1  A    between atoms: C_1  and  C_2
REMARK    2  A    between atoms: C_2  and  C_3
REMARK    3  A    between atoms: C_3  and  N_4
REMARK    4  A    between atoms: N_4  and  C_5
REMARK    5  A    between atoms: N_4  and  S_7
REMARK    6  A    between atoms: C_5  and  C_6
REMARK    7  A    between atoms: S_7  and  C_10
REMARK    8  A    between atoms: C_13  and  S_14
REMARK    9  A    between atoms: S_14  and  N_17
REMARK   10  A    between atoms: C_21  and  C_22
REMARK   11  A    between atoms: C_22  and  O_24
REMARK   12  A    between atoms: O_24  and  C_25
REMARK   13  A    between atoms: C_25  and  C_26
REMARK                            x       y       z     vdW  Elec       q    Type
REMARK                         _______ _______ _______ _____ _____    ______ ____
ROOT
ATOM      1  C   UNL     1       1.136   9.419  19.843  0.00  0.00    +0.000 A 
ATOM      2  C   UNL     1       1.604   9.188  18.546  0.00  0.00    +0.000 A 
ATOM      3  C   UNL     1       2.215   7.968  18.239  0.00  0.00    +0.000 A 
ATOM      4  C   UNL     1       2.378   6.995  19.235  0.00  0.00    +0.000 A 
ATOM      5  C   UNL     1       1.889   7.221  20.529  0.00  0.00    +0.000 A 
ATOM      6  C   UNL     1       1.282   8.444  20.839  0.00  0.00    +0.000 A 
ENDROOT
BRANCH   1   7
ATOM      7  S   UNL     1       0.384  10.988  20.234  0.00  0.00    +0.000 S 
ATOM      8  O   UNL     1       1.008  11.461  21.452  0.00  0.00    +0.000 OA
ATOM      9  O   UNL     1      -1.052  10.828  20.144  0.00  0.00    +0.000 OA
BRANCH   7  10
ATOM     10  N   UNL     1       0.874  12.015  18.938  0.00  0.00    +0.000 NA
BRANCH  10  11
ATOM     11  C   UNL     1       2.135  12.774  19.229  0.00  0.00    +0.000 C 
ATOM     12  C   UNL     1       2.896  13.205  17.985  0.00  0.00    +0.000 C 
ENDBRANCH  10  11
BRANCH  10  13
ATOM     13  C   UNL     1      -0.243  12.834  18.374  0.00  0.00    +0.000 C 
BRANCH  13  15
ATOM     14  C   UNL     1      -1.068  14.399  20.213  0.00  0.00    +0.000 C 
ATOM     15  C   UNL     1      -0.316  14.269  18.899  0.00  0.00    +0.000 C 
ENDBRANCH  13  15
ENDBRANCH  10  13
ENDBRANCH   7  10
ENDBRANCH   1   7
BRANCH   4  16
ATOM     16  S   UNL     1       3.101   5.405  18.812  0.00  0.00    +0.000 S 
ATOM     17  O   UNL     1       3.075   4.593  20.007  0.00  0.00    +0.000 OA
ATOM     18  O   UNL     1       2.454   4.960  17.595  0.00  0.00    +0.000 OA
BRANCH  16  19
ATOM     19  N   UNL     1       4.747   5.762  18.437  0.00  0.00    +0.000 NA
ATOM     20  C   UNL     1       5.731   5.254  19.424  0.00  0.00    +0.000 C 
ATOM     21  C   UNL     1       7.154   5.666  19.073  0.00  0.00    +0.000 C 
ATOM     22  C   UNL     1       7.509   5.262  17.652  0.00  0.00    +0.000 C 
ATOM     23  C   UNL     1       6.544   5.916  16.661  0.00  0.00    +0.000 C 
ATOM     24  C   UNL     1       5.094   5.570  17.003  0.00  0.00    +0.000 C 
BRANCH  23  25
ATOM     25  C   UNL     1       6.815   5.401  15.259  0.00  0.00    +0.000 C 
ATOM     26  O   UNL     1       7.854   5.584  14.644  0.00  0.00    +0.000 OA
BRANCH  25  27
ATOM     27  O   UNL     1       5.712   4.788  14.748  0.00  0.00    +0.000 OA
BRANCH  27  28
ATOM     28  C   UNL     1       5.957   3.470  14.230  0.00  0.00    +0.000 C 
ATOM     29  C   UNL     1       5.888   3.557  12.714  0.00  0.00    +0.000 C 
ENDBRANCH  27  28
ENDBRANCH  25  27
ENDBRANCH  23  25
ENDBRANCH  16  19
ENDBRANCH   4  16
TORSDOF 10
ENDMDL
MODEL 4
REMARK VINA RESULT:      -6.6      1.815      8.602
REMARK  Name = 
REMARK  13 active torsions:
REMARK  status: ('A' for Active; 'I' for Inactive)
REMARK    1  A    between atoms: C_1  and  C_2
REMARK    2  A    between atoms: C_2  and  C_3
REMARK    3  A    between atoms: C_3  and  N_4
REMARK    4  A    between atoms: N_4  and  C_5
REMARK    5  A    between atoms: N_4  and  S_7
REMARK    6  A    between atoms: C_5  and  C_6
REMARK    7  A    between atoms: S_7  and  C_10
REMARK    8  A    between atoms: C_13  and  S_14
REMARK    9  A    between atoms: S_14  and  N_17
REMARK   10  A    between atoms: C_21  and  C_22
REMARK   11  A    between atoms: C_22  and  O_24
REMARK   12  A    between atoms: O_24  and  C_25
REMARK   13  A    between atoms: C_25  and  C_26
REMARK                            x       y       z     vdW  Elec       q    Type
REMARK                         _______ _______ _______ _____ _____    ______ ____
ROOT
ATOM      1  C   UNL     1       3.038   5.619  19.113  0.00  0.00    +0.000 A 
ATOM      2  C   UNL     1       2.962   6.897  18.551  0.00  0.00    +0.000 A 
ATOM      3  C   UNL     1       2.239   7.898  19.207  0.00  0.00    +0.000 A 
ATOM      4  C   UNL     1       1.575   7.612  20.408  0.00  0.00    +0.000 A 
ATOM      5  C   UNL     1       1.671   6.336  20.979  0.00  0.00    +0.000 A 
ATOM      6  C   UNL     1       2.390   5.331  20.321  0.00  0.00    +0.000 A 
ENDROOT
BRANCH   1   7
ATOM      7  S   UNL     1       3.938   4.340  18.256  0.00  0.00    +0.000 S 
ATOM      8  O   UNL     1       3.106   3.909  17.152  0.00  0.00    +0.000 OA
ATOM      9  O   UNL     1       4.418   3.396  19.242  0.00  0.00    +0.000 OA
BRANCH   7  10
ATOM     10  N   UNL     1       5.311   5.162  17.612  0.00  0.00    +0.000 NA
BRANCH  10  11
ATOM     11  C   UNL     1       5.901   4.478  16.415  0.00  0.00    +0.000 C 
ATOM     12  C   UNL     1       5.655   5.209  15.103  0.00  0.00    +0.000 C 
ENDBRANCH  10  11
BRANCH  10  13
ATOM     13  C   UNL     1       6.298   5.578  18.656  0.00  0.00    +0.000 C 
BRANCH  13  15
ATOM     14  C   UNL     1       7.557   7.521  17.583  0.00  0.00    +0.000 C 
ATOM     15  C   UNL     1       7.629   6.098  18.111  0.00  0.00    +0.000 C 
ENDBRANCH  13  15
ENDBRANCH  10  13
ENDBRANCH   7  10
ENDBRANCH   1   7
BRANCH   4  16
ATOM     16  S   UNL     1       0.709   8.924  21.278  0.00  0.00    +0.000 S 
ATOM     17  O   UNL     1      -0.605   8.421  21.610  0.00  0.00    +0.000 OA
ATOM     18  O   UNL     1       1.604   9.407  22.310  0.00  0.00    +0.000 OA
BRANCH  16  19
ATOM     19  N   UNL     1       0.528  10.177  20.105  0.00  0.00    +0.000 NA
ATOM     20  C   UNL     1      -0.833  10.288  19.524  0.00  0.00    +0.000 C 
ATOM     21  C   UNL     1      -0.906  11.361  18.446  0.00  0.00    +0.000 C 
ATOM     22  C   UNL     1      -0.392  12.694  18.962  0.00  0.00    +0.000 C 
ATOM     23  C   UNL     1       1.058  12.557  19.428  0.00  0.00    +0.000 C 
ATOM     24  C   UNL     1       1.190  11.455  20.481  0.00  0.00    +0.000 C 
BRANCH  23  25
ATOM     25  C   UNL     1       1.520  13.853  20.069  0.00  0.00    +0.000 C 
ATOM     26  O   UNL     1       1.446  14.100  21.263  0.00  0.00    +0.000 OA
BRANCH  25  27
ATOM     27  O   UNL     1       1.944  14.736  19.123  0.00  0.00    +0.000 OA
BRANCH  27  28
ATOM     28  C   UNL     1       3.055  14.274  18.339  0.00  0.00    +0.000 C 
ATOM     29  C   UNL     1       3.508  15.431  17.464  0.00  0.00    +0.000 C 
ENDBRANCH  27  28
ENDBRANCH  25  27
ENDBRANCH  23  25
ENDBRANCH  16  19
ENDBRANCH   4  16
TORSDOF 10
ENDMDL
MODEL 5
REMARK VINA RESULT:      -6.6      2.081      8.896
REMARK  Name = 
REMARK  13 active torsions:
REMARK  status: ('A' for Active; 'I' for Inactive)
REMARK    1  A    between atoms: C_1  and  C_2
REMARK    2  A    between atoms: C_2  and  C_3
REMARK    3  A    between atoms: C_3  and  N_4
REMARK    4  A    between atoms: N_4  and  C_5
REMARK    5  A    between atoms: N_4  and  S_7
REMARK    6  A    between atoms: C_5  and  C_6
REMARK    7  A    between atoms: S_7  and  C_10
REMARK    8  A    between atoms: C_13  and  S_14
REMARK    9  A    between atoms: S_14  and  N_17
REMARK   10  A    between atoms: C_21  and  C_22
REMARK   11  A    between atoms: C_22  and  O_24
REMARK   12  A    between atoms: O_24  and  C_25
REMARK   13  A    between atoms: C_25  and  C_26
REMARK                            x       y       z     vdW  Elec       q    Type
REMARK                         _______ _______ _______ _____ _____    ______ ____
ROOT
ATOM      1  C   UNL     1       2.979   5.558  18.964  0.00  0.00    +0.000 A 
ATOM      2  C   UNL     1       2.367   5.325  20.199  0.00  0.00    +0.000 A 
ATOM      3  C   UNL     1       1.706   6.371  20.851  0.00  0.00    +0.000 A 
ATOM      4  C   UNL     1       1.681   7.650  20.278  0.00  0.00    +0.000 A 
ATOM      5  C   UNL     1       2.278   7.875  19.030  0.00  0.00    +0.000 A 
ATOM      6  C   UNL     1       2.944   6.830  18.379  0.00  0.00    +0.000 A 
ENDROOT
BRANCH   1   7
ATOM      7  S   UNL     1       3.844   4.226  18.153  0.00  0.00    +0.000 S 
ATOM      8  O   UNL     1       2.958   3.709  17.132  0.00  0.00    +0.000 OA
ATOM      9  O   UNL     1       4.389   3.361  19.177  0.00  0.00    +0.000 OA
BRANCH   7  10
ATOM     10  N   UNL     1       5.170   5.008  17.376  0.00  0.00    +0.000 NA
BRANCH  10  11
ATOM     11  C   UNL     1       5.148   4.866  15.883  0.00  0.00    +0.000 C 
ATOM     12  C   UNL     1       6.352   4.129  15.316  0.00  0.00    +0.000 C 
ENDBRANCH  10  11
BRANCH  10  13
ATOM     13  C   UNL     1       6.490   4.723  18.020  0.00  0.00    +0.000 C 
BRANCH  13  15
ATOM     14  C   UNL     1       7.526   7.040  17.755  0.00  0.00    +0.000 C 
ATOM     15  C   UNL     1       7.140   5.922  18.710  0.00  0.00    +0.000 C 
ENDBRANCH  13  15
ENDBRANCH  10  13
ENDBRANCH   7  10
ENDBRANCH   1   7
BRANCH   4  16
ATOM     16  S   UNL     1       0.769   8.969  21.090  0.00  0.00    +0.000 S 
ATOM     17  O   UNL     1      -0.481   8.405  21.545  0.00  0.00    +0.000 OA
ATOM     18  O   UNL     1       1.683   9.603  22.018  0.00  0.00    +0.000 OA
BRANCH  16  19
ATOM     19  N   UNL     1       0.426  10.098  19.830  0.00  0.00    +0.000 NA
ATOM     20  C   UNL     1      -0.954  10.023  19.291  0.00  0.00    +0.000 C 
ATOM     21  C   UNL     1      -1.168  10.992  18.137  0.00  0.00    +0.000 C 
ATOM     22  C   UNL     1      -0.783  12.408  18.530  0.00  0.00    +0.000 C 
ATOM     23  C   UNL     1       0.686  12.458  18.953  0.00  0.00    +0.000 C 
ATOM     24  C   UNL     1       0.961  11.464  20.083  0.00  0.00    +0.000 C 
BRANCH  23  25
ATOM     25  C   UNL     1       1.027  13.842  19.475  0.00  0.00    +0.000 C 
ATOM     26  O   UNL     1       1.647  14.060  20.504  0.00  0.00    +0.000 OA
BRANCH  25  27
ATOM     27  O   UNL     1       0.472  14.806  18.690  0.00  0.00    +0.000 OA
BRANCH  27  28
ATOM     28  C   UNL     1       0.043  15.976  19.404  0.00  0.00    +0.000 C 
ATOM     29  C   UNL     1      -0.586  16.921  18.393  0.00  0.00    +0.000 C 
ENDBRANCH  27  28
ENDBRANCH  25  27
ENDBRANCH  23  25
ENDBRANCH  16  19
ENDBRANCH   4  16
TORSDOF 10
ENDMDL
MODEL 6
REMARK VINA RESULT:      -6.6      1.892      8.609
REMARK  Name = 
REMARK  13 active torsions:
REMARK  status: ('A' for Active; 'I' for Inactive)
REMARK    1  A    between atoms: C_1  and  C_2
REMARK    2  A    between atoms: C_2  and  C_3
REMARK    3  A    between atoms: C_3  and  N_4
REMARK    4  A    between atoms: N_4  and  C_5
REMARK    5  A    between atoms: N_4  and  S_7
REMARK    6  A    between atoms: C_5  and  C_6
REMARK    7  A    between atoms: S_7  and  C_10
REMARK    8  A    between atoms: C_13  and  S_14
REMARK    9  A    between atoms: S_14  and  N_17
REMARK   10  A    between atoms: C_21  and  C_22
REMARK   11  A    between atoms: C_22  and  O_24
REMARK   12  A    between atoms: O_24  and  C_25
REMARK   13  A    between atoms: C_25  and  C_26
REMARK                            x       y       z     vdW  Elec       q    Type
REMARK                         _______ _______ _______ _____ _____    ______ ____
ROOT
ATOM      1  C   UNL     1       2.776   5.437  19.046  0.00  0.00    +0.000 A 
ATOM      2  C   UNL     1       2.135   5.223  20.270  0.00  0.00    +0.000 A 
ATOM      3  C   UNL     1       1.539   6.299  20.935  0.00  0.00    +0.000 A 
ATOM      4  C   UNL     1       1.605   7.587  20.387  0.00  0.00    +0.000 A 
ATOM      5  C   UNL     1       2.230   7.795  19.150  0.00  0.00    +0.000 A 
ATOM      6  C   UNL     1       2.832   6.720  18.485  0.00  0.00    +0.000 A 
ENDROOT
BRANCH   1   7
ATOM      7  S   UNL     1       3.560   4.066  18.218  0.00  0.00    +0.000 S 
ATOM      8  O   UNL     1       2.678   3.665  17.142  0.00  0.00    +0.000 OA
ATOM      9  O   UNL     1       3.984   3.121  19.228  0.00  0.00    +0.000 OA
BRANCH   7  10
ATOM     10  N   UNL     1       4.980   4.759  17.526  0.00  0.00    +0.000 NA
BRANCH  10  11
ATOM     11  C   UNL     1       5.098   4.515  16.051  0.00  0.00    +0.000 C 
ATOM     12  C   UNL     1       5.475   5.753  15.250  0.00  0.00    +0.000 C 
ENDBRANCH  10  11
BRANCH  10  13
ATOM     13  C   UNL     1       6.220   4.485  18.316  0.00  0.00    +0.000 C 
BRANCH  13  15
ATOM     14  C   UNL     1       7.647   6.596  18.180  0.00  0.00    +0.000 C 
ATOM     15  C   UNL     1       6.792   5.695  19.055  0.00  0.00    +0.000 C 
ENDBRANCH  13  15
ENDBRANCH  10  13
ENDBRANCH   7  10
ENDBRANCH   1   7
BRANCH   4  16
ATOM     16  S   UNL     1       0.774   8.948  21.215  0.00  0.00    +0.000 S 
ATOM     17  O   UNL     1      -0.510   8.456  21.661  0.00  0.00    +0.000 OA
ATOM     18  O   UNL     1       1.723   9.513  22.152  0.00  0.00    +0.000 OA
BRANCH  16  19
ATOM     19  N   UNL     1       0.503  10.113  19.970  0.00  0.00    +0.000 NA
ATOM     20  C   UNL     1      -0.870  10.107  19.406  0.00  0.00    +0.000 C 
ATOM     21  C   UNL     1      -1.020  11.104  18.266  0.00  0.00    +0.000 C 
ATOM     22  C   UNL     1      -0.582  12.495  18.690  0.00  0.00    +0.000 C 
ATOM     23  C   UNL     1       0.881  12.473  19.140  0.00  0.00    +0.000 C 
ATOM     24  C   UNL     1       1.092  11.449  20.255  0.00  0.00    +0.000 C 
BRANCH  23  25
ATOM     25  C   UNL     1       1.272  13.832  19.692  0.00  0.00    +0.000 C 
ATOM     26  O   UNL     1       1.512  14.058  20.867  0.00  0.00    +0.000 OA
BRANCH  25  27
ATOM     27  O   UNL     1       1.232  14.781  18.716  0.00  0.00    +0.000 OA
BRANCH  27  28
ATOM     28  C   UNL     1       2.330  15.706  18.746  0.00  0.00    +0.000 C 
ATOM     29  C   UNL     1       3.325  15.267  17.684  0.00  0.00    +0.000 C 
ENDBRANCH  27  28
ENDBRANCH  25  27
ENDBRANCH  23  25
ENDBRANCH  16  19
ENDBRANCH   4  16
TORSDOF 10
ENDMDL
MODEL 7
REMARK VINA RESULT:      -6.6      1.463      1.961
REMARK  Name = 
REMARK  13 active torsions:
REMARK  status: ('A' for Active; 'I' for Inactive)
REMARK    1  A    between atoms: C_1  and  C_2
REMARK    2  A    between atoms: C_2  and  C_3
REMARK    3  A    between atoms: C_3  and  N_4
REMARK    4  A    between atoms: N_4  and  C_5
REMARK    5  A    between atoms: N_4  and  S_7
REMARK    6  A    between atoms: C_5  and  C_6
REMARK    7  A    between atoms: S_7  and  C_10
REMARK    8  A    between atoms: C_13  and  S_14
REMARK    9  A    between atoms: S_14  and  N_17
REMARK   10  A    between atoms: C_21  and  C_22
REMARK   11  A    between atoms: C_22  and  O_24
REMARK   12  A    between atoms: O_24  and  C_25
REMARK   13  A    between atoms: C_25  and  C_26
REMARK                            x       y       z     vdW  Elec       q    Type
REMARK                         _______ _______ _______ _____ _____    ______ ____
ROOT
ATOM      1  C   UNL     1       0.850   9.560  20.305  0.00  0.00    +0.000 A 
ATOM      2  C   UNL     1       1.405   9.323  19.044  0.00  0.00    +0.000 A 
ATOM      3  C   UNL     1       1.986   8.082  18.767  0.00  0.00    +0.000 A 
ATOM      4  C   UNL     1       2.030   7.091  19.758  0.00  0.00    +0.000 A 
ATOM      5  C   UNL     1       1.453   7.324  21.014  0.00  0.00    +0.000 A 
ATOM      6  C   UNL     1       0.876   8.569  21.295  0.00  0.00    +0.000 A 
ENDROOT
BRANCH   1   7
ATOM      7  S   UNL     1       0.138  11.156  20.661  0.00  0.00    +0.000 S 
ATOM      8  O   UNL     1       1.202  11.982  21.192  0.00  0.00    +0.000 OA
ATOM      9  O   UNL     1      -1.084  10.942  21.405  0.00  0.00    +0.000 OA
BRANCH   7  10
ATOM     10  N   UNL     1      -0.300  11.768  19.109  0.00  0.00    +0.000 NA
BRANCH  10  11
ATOM     11  C   UNL     1       0.149  13.180  18.881  0.00  0.00    +0.000 C 
ATOM     12  C   UNL     1      -0.806  14.227  19.436  0.00  0.00    +0.000 C 
ENDBRANCH  10  11
BRANCH  10  13
ATOM     13  C   UNL     1      -1.722  11.487  18.739  0.00  0.00    +0.000 C 
BRANCH  13  15
ATOM     14  C   UNL     1      -3.276   9.916  17.463  0.00  0.00    +0.000 C 
ATOM     15  C   UNL     1      -1.903  10.563  17.535  0.00  0.00    +0.000 C 
ENDBRANCH  13  15
ENDBRANCH  10  13
ENDBRANCH   7  10
ENDBRANCH   1   7
BRANCH   4  16
ATOM     16  S   UNL     1       2.714   5.476  19.368  0.00  0.00    +0.000 S 
ATOM     17  O   UNL     1       2.691   4.698  20.586  0.00  0.00    +0.000 OA
ATOM     18  O   UNL     1       2.039   5.011  18.173  0.00  0.00    +0.000 OA
BRANCH  16  19
ATOM     19  N   UNL     1       4.361   5.789  18.957  0.00  0.00    +0.000 NA
ATOM     20  C   UNL     1       5.344   4.903  19.627  0.00  0.00    +0.000 C 
ATOM     21  C   UNL     1       6.778   5.279  19.279  0.00  0.00    +0.000 C 
ATOM     22  C   UNL     1       6.984   5.330  17.775  0.00  0.00    +0.000 C 
ATOM     23  C   UNL     1       6.036   6.354  17.147  0.00  0.00    +0.000 C 
ATOM     24  C   UNL     1       4.583   6.044  17.509  0.00  0.00    +0.000 C 
BRANCH  23  25
ATOM     25  C   UNL     1       6.148   6.302  15.634  0.00  0.00    +0.000 C 
ATOM     26  O   UNL     1       5.323   6.767  14.863  0.00  0.00    +0.000 OA
BRANCH  25  27
ATOM     27  O   UNL     1       7.245   5.589  15.254  0.00  0.00    +0.000 OA
BRANCH  27  28
ATOM     28  C   UNL     1       7.104   4.917  13.992  0.00  0.00    +0.000 C 
ATOM     29  C   UNL     1       6.190   3.723  14.211  0.00  0.00    +0.000 C 
ENDBRANCH  27  28
ENDBRANCH  25  27
ENDBRANCH  23  25
ENDBRANCH  16  19
ENDBRANCH   4  16
TORSDOF 10
ENDMDL
MODEL 8
REMARK VINA RESULT:      -6.5      1.278      1.928
REMARK  Name = 
REMARK  13 active torsions:
REMARK  status: ('A' for Active; 'I' for Inactive)
REMARK    1  A    between atoms: C_1  and  C_2
REMARK    2  A    between atoms: C_2  and  C_3
REMARK    3  A    between atoms: C_3  and  N_4
REMARK    4  A    between atoms: N_4  and  C_5
REMARK    5  A    between atoms: N_4  and  S_7
REMARK    6  A    between atoms: C_5  and  C_6
REMARK    7  A    between atoms: S_7  and  C_10
REMARK    8  A    between atoms: C_13  and  S_14
REMARK    9  A    between atoms: S_14  and  N_17
REMARK   10  A    between atoms: C_21  and  C_22
REMARK   11  A    between atoms: C_22  and  O_24
REMARK   12  A    between atoms: O_24  and  C_25
REMARK   13  A    between atoms: C_25  and  C_26
REMARK                            x       y       z     vdW  Elec       q    Type
REMARK                         _______ _______ _______ _____ _____    ______ ____
ROOT
ATOM      1  C   UNL     1       1.309   9.446  19.904  0.00  0.00    +0.000 A 
ATOM      2  C   UNL     1       1.274   8.405  20.837  0.00  0.00    +0.000 A 
ATOM      3  C   UNL     1       1.809   7.158  20.501  0.00  0.00    +0.000 A 
ATOM      4  C   UNL     1       2.355   6.949  19.227  0.00  0.00    +0.000 A 
ATOM      5  C   UNL     1       2.408   8.000  18.302  0.00  0.00    +0.000 A 
ATOM      6  C   UNL     1       1.868   9.248  18.635  0.00  0.00    +0.000 A 
ENDROOT
BRANCH   1   7
ATOM      7  S   UNL     1       0.598  11.024  20.330  0.00  0.00    +0.000 S 
ATOM      8  O   UNL     1       1.367  12.034  19.632  0.00  0.00    +0.000 OA
ATOM      9  O   UNL     1       0.438  11.068  21.767  0.00  0.00    +0.000 OA
BRANCH   7  10
ATOM     10  N   UNL     1      -0.979  10.968  19.633  0.00  0.00    +0.000 NA
BRANCH  10  11
ATOM     11  C   UNL     1      -1.080  10.024  18.472  0.00  0.00    +0.000 C 
ATOM     12  C   UNL     1      -2.172  10.385  17.477  0.00  0.00    +0.000 C 
ENDBRANCH  10  11
BRANCH  10  13
ATOM     13  C   UNL     1      -1.576  12.321  19.404  0.00  0.00    +0.000 C 
BRANCH  13  15
ATOM     14  C   UNL     1      -2.208  13.456  21.600  0.00  0.00    +0.000 C 
ATOM     15  C   UNL     1      -2.695  12.701  20.374  0.00  0.00    +0.000 C 
ENDBRANCH  13  15
ENDBRANCH  10  13
ENDBRANCH   7  10
ENDBRANCH   1   7
BRANCH   4  16
ATOM     16  S   UNL     1       3.104   5.364  18.831  0.00  0.00    +0.000 S 
ATOM     17  O   UNL     1       3.090   4.572  20.039  0.00  0.00    +0.000 OA
ATOM     18  O   UNL     1       2.467   4.888  17.620  0.00  0.00    +0.000 OA
BRANCH  16  19
ATOM     19  N   UNL     1       4.746   5.742  18.452  0.00  0.00    +0.000 NA
ATOM     20  C   UNL     1       5.738   5.235  19.431  0.00  0.00    +0.000 C 
ATOM     21  C   UNL     1       7.156   5.665  19.078  0.00  0.00    +0.000 C 
ATOM     22  C   UNL     1       7.509   5.278  17.652  0.00  0.00    +0.000 C 
ATOM     23  C   UNL     1       6.533   5.932  16.671  0.00  0.00    +0.000 C 
ATOM     24  C   UNL     1       5.088   5.567  17.015  0.00  0.00    +0.000 C 
BRANCH  23  25
ATOM     25  C   UNL     1       6.804   5.433  15.263  0.00  0.00    +0.000 C 
ATOM     26  O   UNL     1       7.838   5.632  14.646  0.00  0.00    +0.000 OA
BRANCH  25  27
ATOM     27  O   UNL     1       5.705   4.813  14.750  0.00  0.00    +0.000 OA
BRANCH  27  28
ATOM     28  C   UNL     1       5.977   3.546  14.131  0.00  0.00    +0.000 C 
ATOM     29  C   UNL     1       5.768   3.716  12.635  0.00  0.00    +0.000 C 
ENDBRANCH  27  28
ENDBRANCH  25  27
ENDBRANCH  23  25
ENDBRANCH  16  19
ENDBRANCH   4  16
TORSDOF 10
ENDMDL
MODEL 9
REMARK VINA RESULT:      -6.5      3.287      9.577
REMARK  Name = 
REMARK  13 active torsions:
REMARK  status: ('A' for Active; 'I' for Inactive)
REMARK    1  A    between atoms: C_1  and  C_2
REMARK    2  A    between atoms: C_2  and  C_3
REMARK    3  A    between atoms: C_3  and  N_4
REMARK    4  A    between atoms: N_4  and  C_5
REMARK    5  A    between atoms: N_4  and  S_7
REMARK    6  A    between atoms: C_5  and  C_6
REMARK    7  A    between atoms: S_7  and  C_10
REMARK    8  A    between atoms: C_13  and  S_14
REMARK    9  A    between atoms: S_14  and  N_17
REMARK   10  A    between atoms: C_21  and  C_22
REMARK   11  A    between atoms: C_22  and  O_24
REMARK   12  A    between atoms: O_24  and  C_25
REMARK   13  A    between atoms: C_25  and  C_26
REMARK                            x       y       z     vdW  Elec       q    Type
REMARK                         _______ _______ _______ _____ _____    ______ ____
ROOT
ATOM      1  C   UNL     1       2.474   7.088  18.997  0.00  0.00    +0.000 A 
ATOM      2  C   UNL     1       2.552   7.989  17.931  0.00  0.00    +0.000 A 
ATOM      3  C   UNL     1       1.937   9.240  18.038  0.00  0.00    +0.000 A 
ATOM      4  C   UNL     1       1.226   9.576  19.199  0.00  0.00    +0.000 A 
ATOM      5  C   UNL     1       1.168   8.678  20.273  0.00  0.00    +0.000 A 
ATOM      6  C   UNL     1       1.779   7.423  20.166  0.00  0.00    +0.000 A 
ENDROOT
BRANCH   1   7
ATOM      7  S   UNL     1       3.236   5.483  18.842  0.00  0.00    +0.000 S 
ATOM      8  O   UNL     1       4.413   5.494  19.685  0.00  0.00    +0.000 OA
ATOM      9  O   UNL     1       3.330   5.169  17.432  0.00  0.00    +0.000 OA
BRANCH   7  10
ATOM     10  N   UNL     1       2.081   4.408  19.538  0.00  0.00    +0.000 NA
BRANCH  10  11
ATOM     11  C   UNL     1       2.465   3.933  20.907  0.00  0.00    +0.000 C 
ATOM     12  C   UNL     1       1.382   3.121  21.604  0.00  0.00    +0.000 C 
ENDBRANCH  10  11
BRANCH  10  13
ATOM     13  C   UNL     1       1.626   3.336  18.599  0.00  0.00    +0.000 C 
BRANCH  13  15
ATOM     14  C   UNL     1       3.520   1.803  17.842  0.00  0.00    +0.000 C 
ATOM     15  C   UNL     1       2.331   1.990  18.770  0.00  0.00    +0.000 C 
ENDBRANCH  13  15
ENDBRANCH  10  13
ENDBRANCH   7  10
ENDBRANCH   1   7
BRANCH   4  16
ATOM     16  S   UNL     1       0.500  11.212  19.353  0.00  0.00    +0.000 S 
ATOM     17  O   UNL     1       0.113  11.379  20.735  0.00  0.00    +0.000 OA
ATOM     18  O   UNL     1       1.415  12.140  18.718  0.00  0.00    +0.000 OA
BRANCH  16  19
ATOM     19  N   UNL     1      -0.934  11.144  18.394  0.00  0.00    +0.000 NA
ATOM     20  C   UNL     1      -1.120   9.873  17.652  0.00  0.00    +0.000 C 
ATOM     21  C   UNL     1      -2.362   9.907  16.771  0.00  0.00    +0.000 C 
ATOM     22  C   UNL     1      -3.595  10.288  17.572  0.00  0.00    +0.000 C 
ATOM     23  C   UNL     1      -3.403  11.664  18.212  0.00  0.00    +0.000 C 
ATOM     24  C   UNL     1      -2.139  11.694  19.072  0.00  0.00    +0.000 C 
BRANCH  23  25
ATOM     25  C   UNL     1      -4.577  11.979  19.123  0.00  0.00    +0.000 C 
ATOM     26  O   UNL     1      -5.716  11.576  18.947  0.00  0.00    +0.000 OA
BRANCH  25  27
ATOM     27  O   UNL     1      -4.207  12.842  20.109  0.00  0.00    +0.000 OA
BRANCH  27  28
ATOM     28  C   UNL     1      -4.986  12.735  21.311  0.00  0.00    +0.000 C 
ATOM     29  C   UNL     1      -4.019  12.765  22.483  0.00  0.00    +0.000 C 
ENDBRANCH  27  28
ENDBRANCH  25  27
ENDBRANCH  23  25
ENDBRANCH  16  19
ENDBRANCH   4  16
TORSDOF 10
ENDMDL
