MODEL 1
REMARK VINA RESULT:      -6.9      0.000      0.000
REMARK  Name = 
REMARK  3 active torsions:
REMARK  status: ('A' for Active; 'I' for Inactive)
REMARK    1  A    between atoms: C_2  and  C_3
REMARK    2  A    between atoms: C_6  and  C_7
REMARK    3  A    between atoms: C_10  and  O_11
REMARK                            x       y       z     vdW  Elec       q    Type
REMARK                         _______ _______ _______ _____ _____    ______ ____
ROOT
ATOM      1  C   UNL     1       4.429   3.699  18.566  0.00  0.00    +0.000 A 
ATOM      2  C   UNL     1       3.170   4.115  18.783  0.00  0.00    +0.000 A 
ATOM      3  C   UNL     1       2.442   3.655  19.947  0.00  0.00    +0.000 A 
ATOM      4  C   UNL     1       3.003   2.814  20.834  0.00  0.00    +0.000 A 
ATOM      5  C   UNL     1       4.420   2.353  20.592  0.00  0.00    +0.000 A 
ATOM      6  O   UNL     1       5.010   1.593  21.354  0.00  0.00    +0.000 OA
ATOM      7  N   UNL     1       5.024   2.840  19.455  0.00  0.00    +0.000 N 
ATOM      8  H   UNL     1       5.974   2.525  19.301  0.00  0.00    +0.000 HD
ENDROOT
BRANCH   1  12
ATOM      9  C   UNL     1       6.739   4.929  15.176  0.00  0.00    +0.000 A 
ATOM     10  C   UNL     1       7.298   4.957  16.458  0.00  0.00    +0.000 A 
ATOM     11  C   UNL     1       6.538   4.566  17.567  0.00  0.00    +0.000 A 
ATOM     12  C   UNL     1       5.211   4.145  17.405  0.00  0.00    +0.000 A 
ATOM     13  C   UNL     1       4.649   4.140  16.122  0.00  0.00    +0.000 A 
ATOM     14  C   UNL     1       5.410   4.528  15.012  0.00  0.00    +0.000 A 
BRANCH   9  16
ATOM     15  N   UNL     1       8.165   5.590  13.110  0.00  0.00    +0.000 NA
ATOM     16  C   UNL     1       7.533   5.291  14.036  0.00  0.00    +0.000 C 
ENDBRANCH   9  16
ENDBRANCH   1  12
BRANCH   4  17
ATOM     17  O   UNL     1       2.338   2.355  21.955  0.00  0.00    +0.000 OA
ATOM     18  H   UNL     1       1.616   1.770  21.678  0.00  0.00    +0.000 HD
ENDBRANCH   4  17
TORSDOF 3
ENDMDL
MODEL 2
REMARK VINA RESULT:      -6.9      0.152      1.217
REMARK  Name = 
REMARK  3 active torsions:
REMARK  status: ('A' for Active; 'I' for Inactive)
REMARK    1  A    between atoms: C_2  and  C_3
REMARK    2  A    between atoms: C_6  and  C_7
REMARK    3  A    between atoms: C_10  and  O_11
REMARK                            x       y       z     vdW  Elec       q    Type
REMARK                         _______ _______ _______ _____ _____    ______ ____
ROOT
ATOM      1  C   UNL     1       4.487   3.677  18.489  0.00  0.00    +0.000 A 
ATOM      2  C   UNL     1       3.266   4.183  18.728  0.00  0.00    +0.000 A 
ATOM      3  C   UNL     1       2.537   3.794  19.917  0.00  0.00    +0.000 A 
ATOM      4  C   UNL     1       3.060   2.931  20.805  0.00  0.00    +0.000 A 
ATOM      5  C   UNL     1       4.436   2.368  20.539  0.00  0.00    +0.000 A 
ATOM      6  O   UNL     1       4.989   1.582  21.300  0.00  0.00    +0.000 OA
ATOM      7  N   UNL     1       5.044   2.793  19.380  0.00  0.00    +0.000 N 
ATOM      8  H   UNL     1       5.965   2.411  19.209  0.00  0.00    +0.000 HD
ENDROOT
BRANCH   1  12
ATOM      9  C   UNL     1       6.739   4.829  15.033  0.00  0.00    +0.000 A 
ATOM     10  C   UNL     1       5.418   4.391  14.900  0.00  0.00    +0.000 A 
ATOM     11  C   UNL     1       4.686   4.005  16.029  0.00  0.00    +0.000 A 
ATOM     12  C   UNL     1       5.270   4.049  17.303  0.00  0.00    +0.000 A 
ATOM     13  C   UNL     1       6.601   4.466  17.428  0.00  0.00    +0.000 A 
ATOM     14  C   UNL     1       7.332   4.856  16.299  0.00  0.00    +0.000 A 
BRANCH   9  16
ATOM     15  N   UNL     1       8.076   5.623  12.954  0.00  0.00    +0.000 NA
ATOM     16  C   UNL     1       7.475   5.265  13.879  0.00  0.00    +0.000 C 
ENDBRANCH   9  16
ENDBRANCH   1  12
BRANCH   4  17
ATOM     17  O   UNL     1       2.393   2.538  21.950  0.00  0.00    +0.000 OA
ATOM     18  H   UNL     1       2.351   1.570  21.976  0.00  0.00    +0.000 HD
ENDBRANCH   4  17
TORSDOF 3
ENDMDL
MODEL 3
REMARK VINA RESULT:      -6.9      3.357      6.579
REMARK  Name = 
REMARK  3 active torsions:
REMARK  status: ('A' for Active; 'I' for Inactive)
REMARK    1  A    between atoms: C_2  and  C_3
REMARK    2  A    between atoms: C_6  and  C_7
REMARK    3  A    between atoms: C_10  and  O_11
REMARK                            x       y       z     vdW  Elec       q    Type
REMARK                         _______ _______ _______ _____ _____    ______ ____
ROOT
ATOM      1  C   UNL     1       5.180   4.334  17.094  0.00  0.00    +0.000 A 
ATOM      2  C   UNL     1       5.189   3.679  15.922  0.00  0.00    +0.000 A 
ATOM      3  C   UNL     1       6.100   4.082  14.871  0.00  0.00    +0.000 A 
ATOM      4  C   UNL     1       6.953   5.107  15.042  0.00  0.00    +0.000 A 
ATOM      5  C   UNL     1       6.946   5.837  16.363  0.00  0.00    +0.000 A 
ATOM      6  O   UNL     1       7.697   6.778  16.605  0.00  0.00    +0.000 OA
ATOM      7  N   UNL     1       6.040   5.384  17.295  0.00  0.00    +0.000 N 
ATOM      8  H   UNL     1       6.042   5.880  18.177  0.00  0.00    +0.000 HD
ENDROOT
BRANCH   1  12
ATOM      9  C   UNL     1       2.621   3.208  20.339  0.00  0.00    +0.000 A 
ATOM     10  C   UNL     1       2.979   2.271  19.365  0.00  0.00    +0.000 A 
ATOM     11  C   UNL     1       3.806   2.642  18.299  0.00  0.00    +0.000 A 
ATOM     12  C   UNL     1       4.282   3.956  18.194  0.00  0.00    +0.000 A 
ATOM     13  C   UNL     1       3.902   4.897  19.160  0.00  0.00    +0.000 A 
ATOM     14  C   UNL     1       3.077   4.525  20.229  0.00  0.00    +0.000 A 
BRANCH   9  16
ATOM     15  N   UNL     1       1.155   2.488  22.357  0.00  0.00    +0.000 NA
ATOM     16  C   UNL     1       1.807   2.815  21.455  0.00  0.00    +0.000 C 
ENDBRANCH   9  16
ENDBRANCH   1  12
BRANCH   4  17
ATOM     17  O   UNL     1       7.835   5.518  14.061  0.00  0.00    +0.000 OA
ATOM     18  H   UNL     1       7.929   6.482  14.103  0.00  0.00    +0.000 HD
ENDBRANCH   4  17
TORSDOF 3
ENDMDL
MODEL 4
REMARK VINA RESULT:      -6.7      3.358      6.545
REMARK  Name = 
REMARK  3 active torsions:
REMARK  status: ('A' for Active; 'I' for Inactive)
REMARK    1  A    between atoms: C_2  and  C_3
REMARK    2  A    between atoms: C_6  and  C_7
REMARK    3  A    between atoms: C_10  and  O_11
REMARK                            x       y       z     vdW  Elec       q    Type
REMARK                         _______ _______ _______ _____ _____    ______ ____
ROOT
ATOM      1  C   UNL     1       5.243   4.317  17.177  0.00  0.00    +0.000 A 
ATOM      2  C   UNL     1       5.213   3.658  16.007  0.00  0.00    +0.000 A 
ATOM      3  C   UNL     1       6.074   4.070  14.919  0.00  0.00    +0.000 A 
ATOM      4  C   UNL     1       6.919   5.107  15.050  0.00  0.00    +0.000 A 
ATOM      5  C   UNL     1       6.956   5.842  16.369  0.00  0.00    +0.000 A 
ATOM      6  O   UNL     1       7.703   6.793  16.576  0.00  0.00    +0.000 OA
ATOM      7  N   UNL     1       6.096   5.380  17.338  0.00  0.00    +0.000 N 
ATOM      8  H   UNL     1       6.127   5.879  18.218  0.00  0.00    +0.000 HD
ENDROOT
BRANCH   1  12
ATOM      9  C   UNL     1       2.712   3.210  20.450  0.00  0.00    +0.000 A 
ATOM     10  C   UNL     1       3.072   4.547  20.258  0.00  0.00    +0.000 A 
ATOM     11  C   UNL     1       3.908   4.907  19.195  0.00  0.00    +0.000 A 
ATOM     12  C   UNL     1       4.396   3.931  18.314  0.00  0.00    +0.000 A 
ATOM     13  C   UNL     1       4.051   2.590  18.524  0.00  0.00    +0.000 A 
ATOM     14  C   UNL     1       3.212   2.231  19.586  0.00  0.00    +0.000 A 
BRANCH   9  16
ATOM     15  N   UNL     1       1.097   2.549  22.372  0.00  0.00    +0.000 NA
ATOM     16  C   UNL     1       1.821   2.848  21.517  0.00  0.00    +0.000 C 
ENDBRANCH   9  16
ENDBRANCH   1  12
BRANCH   4  17
ATOM     17  O   UNL     1       7.755   5.526  14.033  0.00  0.00    +0.000 OA
ATOM     18  H   UNL     1       8.442   4.857  13.892  0.00  0.00    +0.000 HD
ENDBRANCH   4  17
TORSDOF 3
ENDMDL
MODEL 5
REMARK VINA RESULT:      -6.6      1.199      1.411
REMARK  Name = 
REMARK  3 active torsions:
REMARK  status: ('A' for Active; 'I' for Inactive)
REMARK    1  A    between atoms: C_2  and  C_3
REMARK    2  A    between atoms: C_6  and  C_7
REMARK    3  A    between atoms: C_10  and  O_11
REMARK                            x       y       z     vdW  Elec       q    Type
REMARK                         _______ _______ _______ _____ _____    ______ ____
ROOT
ATOM      1  C   UNL     1       3.369   3.899  18.120  0.00  0.00    +0.000 A 
ATOM      2  C   UNL     1       2.053   4.131  17.989  0.00  0.00    +0.000 A 
ATOM      3  C   UNL     1       1.140   3.760  19.051  0.00  0.00    +0.000 A 
ATOM      4  C   UNL     1       1.582   3.185  20.183  0.00  0.00    +0.000 A 
ATOM      5  C   UNL     1       3.063   2.931  20.330  0.00  0.00    +0.000 A 
ATOM      6  O   UNL     1       3.551   2.419  21.333  0.00  0.00    +0.000 OA
ATOM      7  N   UNL     1       3.847   3.313  19.265  0.00  0.00    +0.000 N 
ATOM      8  H   UNL     1       4.838   3.139  19.373  0.00  0.00    +0.000 HD
ENDROOT
BRANCH   1  12
ATOM      9  C   UNL     1       6.241   4.976  15.130  0.00  0.00    +0.000 A 
ATOM     10  C   UNL     1       5.543   5.967  15.828  0.00  0.00    +0.000 A 
ATOM     11  C   UNL     1       4.597   5.614  16.797  0.00  0.00    +0.000 A 
ATOM     12  C   UNL     1       4.336   4.266  17.076  0.00  0.00    +0.000 A 
ATOM     13  C   UNL     1       5.020   3.276  16.358  0.00  0.00    +0.000 A 
ATOM     14  C   UNL     1       5.969   3.629  15.391  0.00  0.00    +0.000 A 
BRANCH   9  16
ATOM     15  N   UNL     1       8.054   5.640  13.395  0.00  0.00    +0.000 NA
ATOM     16  C   UNL     1       7.240   5.340  14.166  0.00  0.00    +0.000 C 
ENDBRANCH   9  16
ENDBRANCH   1  12
BRANCH   4  17
ATOM     17  O   UNL     1       0.740   2.819  21.215  0.00  0.00    +0.000 OA
ATOM     18  H   UNL     1       0.897   1.888  21.436  0.00  0.00    +0.000 HD
ENDBRANCH   4  17
TORSDOF 3
ENDMDL
MODEL 6
REMARK VINA RESULT:      -6.6      3.842      5.639
REMARK  Name = 
REMARK  3 active torsions:
REMARK  status: ('A' for Active; 'I' for Inactive)
REMARK    1  A    between atoms: C_2  and  C_3
REMARK    2  A    between atoms: C_6  and  C_7
REMARK    3  A    between atoms: C_10  and  O_11
REMARK                            x       y       z     vdW  Elec       q    Type
REMARK                         _______ _______ _______ _____ _____    ______ ____
ROOT
ATOM      1  C   UNL     1       2.766   4.561  18.919  0.00  0.00    +0.000 A 
ATOM      2  C   UNL     1       2.239   3.864  17.899  0.00  0.00    +0.000 A 
ATOM      3  C   UNL     1       2.661   2.501  17.655  0.00  0.00    +0.000 A 
ATOM      4  C   UNL     1       3.576   1.902  18.436  0.00  0.00    +0.000 A 
ATOM      5  C   UNL     1       4.162   2.685  19.587  0.00  0.00    +0.000 A 
ATOM      6  O   UNL     1       4.996   2.212  20.354  0.00  0.00    +0.000 OA
ATOM      7  N   UNL     1       3.703   3.973  19.733  0.00  0.00    +0.000 N 
ATOM      8  H   UNL     1       4.101   4.490  20.507  0.00  0.00    +0.000 HD
ENDROOT
BRANCH   1  12
ATOM      9  C   UNL     1       1.525   8.576  19.746  0.00  0.00    +0.000 A 
ATOM     10  C   UNL     1       2.067   8.248  18.500  0.00  0.00    +0.000 A 
ATOM     11  C   UNL     1       2.482   6.938  18.234  0.00  0.00    +0.000 A 
ATOM     12  C   UNL     1       2.363   5.943  19.214  0.00  0.00    +0.000 A 
ATOM     13  C   UNL     1       1.841   6.281  20.469  0.00  0.00    +0.000 A 
ATOM     14  C   UNL     1       1.422   7.591  20.734  0.00  0.00    +0.000 A 
BRANCH   9  16
ATOM     15  N   UNL     1       0.683  10.989  20.199  0.00  0.00    +0.000 NA
ATOM     16  C   UNL     1       1.061   9.910  20.003  0.00  0.00    +0.000 C 
ENDBRANCH   9  16
ENDBRANCH   1  12
BRANCH   4  17
ATOM     17  O   UNL     1       4.001   0.604  18.232  0.00  0.00    +0.000 OA
ATOM     18  H   UNL     1       3.743   0.062  18.994  0.00  0.00    +0.000 HD
ENDBRANCH   4  17
TORSDOF 3
ENDMDL
MODEL 7
REMARK VINA RESULT:      -6.6      4.416      5.872
REMARK  Name = 
REMARK  3 active torsions:
REMARK  status: ('A' for Active; 'I' for Inactive)
REMARK    1  A    between atoms: C_2  and  C_3
REMARK    2  A    between atoms: C_6  and  C_7
REMARK    3  A    between atoms: C_10  and  O_11
REMARK                            x       y       z     vdW  Elec       q    Type
REMARK                         _______ _______ _______ _____ _____    ______ ____
ROOT
ATOM      1  C   UNL     1       3.082   5.641  19.441  0.00  0.00    +0.000 A 
ATOM      2  C   UNL     1       2.411   4.580  19.918  0.00  0.00    +0.000 A 
ATOM      3  C   UNL     1       3.073   3.298  20.043  0.00  0.00    +0.000 A 
ATOM      4  C   UNL     1       4.362   3.140  19.695  0.00  0.00    +0.000 A 
ATOM      5  C   UNL     1       5.116   4.336  19.165  0.00  0.00    +0.000 A 
ATOM      6  O   UNL     1       6.296   4.282  18.832  0.00  0.00    +0.000 OA
ATOM      7  N   UNL     1       4.399   5.507  19.077  0.00  0.00    +0.000 N 
ATOM      8  H   UNL     1       4.913   6.304  18.721  0.00  0.00    +0.000 HD
ENDROOT
BRANCH   1  12
ATOM      9  C   UNL     1       1.200   9.465  19.015  0.00  0.00    +0.000 A 
ATOM     10  C   UNL     1       1.851   8.874  17.927  0.00  0.00    +0.000 A 
ATOM     11  C   UNL     1       2.475   7.629  18.070  0.00  0.00    +0.000 A 
ATOM     12  C   UNL     1       2.458   6.964  19.304  0.00  0.00    +0.000 A 
ATOM     13  C   UNL     1       1.824   7.570  20.396  0.00  0.00    +0.000 A 
ATOM     14  C   UNL     1       1.197   8.814  20.253  0.00  0.00    +0.000 A 
BRANCH   9  16
ATOM     15  N   UNL     1      -0.011  11.743  18.728  0.00  0.00    +0.000 NA
ATOM     16  C   UNL     1       0.524  10.722  18.856  0.00  0.00    +0.000 C 
ENDBRANCH   9  16
ENDBRANCH   1  12
BRANCH   4  17
ATOM     17  O   UNL     1       5.024   1.933  19.802  0.00  0.00    +0.000 OA
ATOM     18  H   UNL     1       4.412   1.215  19.580  0.00  0.00    +0.000 HD
ENDBRANCH   4  17
TORSDOF 3
ENDMDL
MODEL 8
REMARK VINA RESULT:      -6.6      1.303      2.199
REMARK  Name = 
REMARK  3 active torsions:
REMARK  status: ('A' for Active; 'I' for Inactive)
REMARK    1  A    between atoms: C_2  and  C_3
REMARK    2  A    between atoms: C_6  and  C_7
REMARK    3  A    between atoms: C_10  and  O_11
REMARK                            x       y       z     vdW  Elec       q    Type
REMARK                         _______ _______ _______ _____ _____    ______ ____
ROOT
ATOM      1  C   UNL     1       4.166   3.753  19.038  0.00  0.00    +0.000 A 
ATOM      2  C   UNL     1       4.325   2.612  19.728  0.00  0.00    +0.000 A 
ATOM      3  C   UNL     1       3.476   2.326  20.865  0.00  0.00    +0.000 A 
ATOM      4  C   UNL     1       2.514   3.182  21.252  0.00  0.00    +0.000 A 
ATOM      5  C   UNL     1       2.332   4.461  20.471  0.00  0.00    +0.000 A 
ATOM      6  O   UNL     1       1.474   5.292  20.751  0.00  0.00    +0.000 OA
ATOM      7  N   UNL     1       3.192   4.645  19.412  0.00  0.00    +0.000 N 
ATOM      8  H   UNL     1       3.063   5.505  18.894  0.00  0.00    +0.000 HD
ENDROOT
BRANCH   1  12
ATOM      9  C   UNL     1       6.554   4.789  15.636  0.00  0.00    +0.000 A 
ATOM     10  C   UNL     1       5.247   4.322  15.465  0.00  0.00    +0.000 A 
ATOM     11  C   UNL     1       4.471   3.973  16.576  0.00  0.00    +0.000 A 
ATOM     12  C   UNL     1       4.995   4.084  17.871  0.00  0.00    +0.000 A 
ATOM     13  C   UNL     1       6.313   4.531  18.037  0.00  0.00    +0.000 A 
ATOM     14  C   UNL     1       7.088   4.883  16.925  0.00  0.00    +0.000 A 
BRANCH   9  16
ATOM     15  N   UNL     1       7.957   5.514  13.576  0.00  0.00    +0.000 NA
ATOM     16  C   UNL     1       7.334   5.185  14.498  0.00  0.00    +0.000 C 
ENDBRANCH   9  16
ENDBRANCH   1  12
BRANCH   4  17
ATOM     17  O   UNL     1       1.687   2.940  22.331  0.00  0.00    +0.000 OA
ATOM     18  H   UNL     1       0.964   3.586  22.327  0.00  0.00    +0.000 HD
ENDBRANCH   4  17
TORSDOF 3
ENDMDL
MODEL 9
REMARK VINA RESULT:      -6.6      3.039      6.437
REMARK  Name = 
REMARK  3 active torsions:
REMARK  status: ('A' for Active; 'I' for Inactive)
REMARK    1  A    between atoms: C_2  and  C_3
REMARK    2  A    between atoms: C_6  and  C_7
REMARK    3  A    between atoms: C_10  and  O_11
REMARK                            x       y       z     vdW  Elec       q    Type
REMARK                         _______ _______ _______ _____ _____    ______ ____
ROOT
ATOM      1  C   UNL     1       4.908   4.253  17.607  0.00  0.00    +0.000 A 
ATOM      2  C   UNL     1       4.452   4.833  16.485  0.00  0.00    +0.000 A 
ATOM      3  C   UNL     1       5.380   5.266  15.461  0.00  0.00    +0.000 A 
ATOM      4  C   UNL     1       6.706   5.097  15.603  0.00  0.00    +0.000 A 
ATOM      5  C   UNL     1       7.216   4.438  16.863  0.00  0.00    +0.000 A 
ATOM      6  O   UNL     1       8.409   4.238  17.069  0.00  0.00    +0.000 OA
ATOM      7  N   UNL     1       6.258   4.069  17.778  0.00  0.00    +0.000 N 
ATOM      8  H   UNL     1       6.609   3.628  18.619  0.00  0.00    +0.000 HD
ENDROOT
BRANCH   1  12
ATOM      9  C   UNL     1       2.307   2.953  20.751  0.00  0.00    +0.000 A 
ATOM     10  C   UNL     1       3.631   2.506  20.702  0.00  0.00    +0.000 A 
ATOM     11  C   UNL     1       4.477   2.923  19.668  0.00  0.00    +0.000 A 
ATOM     12  C   UNL     1       4.007   3.788  18.670  0.00  0.00    +0.000 A 
ATOM     13  C   UNL     1       2.673   4.214  18.711  0.00  0.00    +0.000 A 
ATOM     14  C   UNL     1       1.827   3.800  19.748  0.00  0.00    +0.000 A 
BRANCH   9  16
ATOM     15  N   UNL     1       0.753   2.237  22.703  0.00  0.00    +0.000 NA
ATOM     16  C   UNL     1       1.452   2.557  21.835  0.00  0.00    +0.000 C 
ENDBRANCH   9  16
ENDBRANCH   1  12
BRANCH   4  17
ATOM     17  O   UNL     1       7.619   5.497  14.647  0.00  0.00    +0.000 OA
ATOM     18  H   UNL     1       8.424   5.807  15.089  0.00  0.00    +0.000 HD
ENDBRANCH   4  17
TORSDOF 3
ENDMDL
