MODEL 1
REMARK VINA RESULT:      -7.6      0.000      0.000
REMARK  Name = 
REMARK  9 active torsions:
REMARK  status: ('A' for Active; 'I' for Inactive)
REMARK    1  A    between atoms: C_1  and  C_2
REMARK    2  A    between atoms: C_2  and  C_3
REMARK    3  A    between atoms: C_3  and  C_4
REMARK    4  A    between atoms: C_4  and  O_5
REMARK    5  A    between atoms: O_5  and  C_6
REMARK    6  A    between atoms: C_6  and  N_7
REMARK    7  A    between atoms: C_6  and  C_16
REMARK    8  A    between atoms: C_6  and  C_20
REMARK    9  A    between atoms: C_8  and  C_10
REMARK                            x       y       z     vdW  Elec       q    Type
REMARK                         _______ _______ _______ _____ _____    ______ ____
ROOT
ATOM      1  C   UNL     1       3.174   3.589  18.678  0.00  0.00    +0.000 C 
ENDROOT
BRANCH   1   2
ATOM      2  N   UNL     1       2.565   4.941  18.613  0.00  0.00    +0.000 N 
ATOM      3  C   UNL     1       3.185   6.020  19.187  0.00  0.00    +0.000 C 
ATOM      4  O   UNL     1       4.260   5.919  19.759  0.00  0.00    +0.000 OA
ATOM      5  H   UNL     1       1.873   5.091  17.893  0.00  0.00    +0.000 HD
BRANCH   3   6
ATOM      6  C   UNL     1       2.489   7.319  19.079  0.00  0.00    +0.000 A 
ATOM      7  C   UNL     1       2.431   8.048  17.885  0.00  0.00    +0.000 A 
ATOM      8  C   UNL     1       1.720   9.243  17.856  0.00  0.00    +0.000 A 
ATOM      9  C   UNL     1       1.091   9.665  19.021  0.00  0.00    +0.000 A 
ATOM     10  N   UNL     1       1.129   8.978  20.183  0.00  0.00    +0.000 NA
ATOM     11  C   UNL     1       1.816   7.816  20.186  0.00  0.00    +0.000 A 
ENDBRANCH   3   6
ENDBRANCH   1   2
BRANCH   1  12
ATOM     12  C   UNL     1       2.507   2.532  17.744  0.00  0.00    +0.000 C 
ATOM     13  F   UNL     1       3.299   1.436  17.609  0.00  0.00    +0.000 F 
ATOM     14  F   UNL     1       1.292   2.090  18.112  0.00  0.00    +0.000 F 
ATOM     15  F   UNL     1       2.368   3.038  16.483  0.00  0.00    +0.000 F 
ENDBRANCH   1  12
BRANCH   1  16
ATOM     16  C   UNL     1       3.167   2.977  20.121  0.00  0.00    +0.000 C 
ATOM     17  F   UNL     1       2.453   1.816  20.154  0.00  0.00    +0.000 F 
ATOM     18  F   UNL     1       4.422   2.622  20.515  0.00  0.00    +0.000 F 
ATOM     19  F   UNL     1       2.651   3.753  21.091  0.00  0.00    +0.000 F 
ENDBRANCH   1  16
BRANCH   1  20
ATOM     20  O   UNL     1       4.581   3.841  18.316  0.00  0.00    +0.000 OA
BRANCH  20  21
ATOM     21  C   UNL     1       4.879   3.910  16.919  0.00  0.00    +0.000 C 
BRANCH  21  22
ATOM     22  C   UNL     1       5.933   4.999  16.674  0.00  0.00    +0.000 C 
ATOM     23  C   UNL     1       7.049   4.565  15.697  0.00  0.00    +0.000 C 
ATOM     24  O   UNL     1       7.886   4.145  16.807  0.00  0.00    +0.000 OA
ATOM     25  C   UNL     1       7.070   4.928  17.719  0.00  0.00    +0.000 C 
BRANCH  22  27
ATOM     26  C   UNL     1       6.106   7.481  17.182  0.00  0.00    +0.000 C 
ATOM     27  C   UNL     1       5.388   6.402  16.389  0.00  0.00    +0.000 C 
ENDBRANCH  22  27
ENDBRANCH  21  22
ENDBRANCH  20  21
ENDBRANCH   1  20
TORSDOF 8
ENDMDL
MODEL 2
REMARK VINA RESULT:      -7.6      0.745      1.372
REMARK  Name = 
REMARK  9 active torsions:
REMARK  status: ('A' for Active; 'I' for Inactive)
REMARK    1  A    between atoms: C_1  and  C_2
REMARK    2  A    between atoms: C_2  and  C_3
REMARK    3  A    between atoms: C_3  and  C_4
REMARK    4  A    between atoms: C_4  and  O_5
REMARK    5  A    between atoms: O_5  and  C_6
REMARK    6  A    between atoms: C_6  and  N_7
REMARK    7  A    between atoms: C_6  and  C_16
REMARK    8  A    between atoms: C_6  and  C_20
REMARK    9  A    between atoms: C_8  and  C_10
REMARK                            x       y       z     vdW  Elec       q    Type
REMARK                         _______ _______ _______ _____ _____    ______ ____
ROOT
ATOM      1  C   UNL     1       3.026   3.615  18.766  0.00  0.00    +0.000 C 
ENDROOT
BRANCH   1   2
ATOM      2  N   UNL     1       2.452   4.981  18.685  0.00  0.00    +0.000 N 
ATOM      3  C   UNL     1       3.128   6.059  19.198  0.00  0.00    +0.000 C 
ATOM      4  O   UNL     1       4.224   5.943  19.725  0.00  0.00    +0.000 OA
ATOM      5  H   UNL     1       1.733   5.130  17.992  0.00  0.00    +0.000 HD
BRANCH   3   6
ATOM      6  C   UNL     1       2.464   7.373  19.079  0.00  0.00    +0.000 A 
ATOM      7  C   UNL     1       2.460   8.113  17.891  0.00  0.00    +0.000 A 
ATOM      8  C   UNL     1       1.776   9.324  17.851  0.00  0.00    +0.000 A 
ATOM      9  C   UNL     1       1.120   9.750  18.999  0.00  0.00    +0.000 A 
ATOM     10  N   UNL     1       1.107   9.053  20.155  0.00  0.00    +0.000 NA
ATOM     11  C   UNL     1       1.768   7.876  20.170  0.00  0.00    +0.000 A 
ENDBRANCH   3   6
ENDBRANCH   1   2
BRANCH   1  12
ATOM     12  C   UNL     1       2.348   2.571  17.824  0.00  0.00    +0.000 C 
ATOM     13  F   UNL     1       3.108   1.450  17.717  0.00  0.00    +0.000 F 
ATOM     14  F   UNL     1       1.111   2.171  18.167  0.00  0.00    +0.000 F 
ATOM     15  F   UNL     1       2.255   3.070  16.557  0.00  0.00    +0.000 F 
ENDBRANCH   1  12
BRANCH   1  16
ATOM     16  C   UNL     1       2.978   3.009  20.211  0.00  0.00    +0.000 C 
ATOM     17  F   UNL     1       4.211   2.576  20.598  0.00  0.00    +0.000 F 
ATOM     18  F   UNL     1       2.638   3.953  21.134  0.00  0.00    +0.000 F 
ATOM     19  F   UNL     1       2.150   1.965  20.388  0.00  0.00    +0.000 F 
ENDBRANCH   1  16
BRANCH   1  20
ATOM     20  O   UNL     1       4.445   3.829  18.428  0.00  0.00    +0.000 OA
BRANCH  20  21
ATOM     21  C   UNL     1       4.765   3.908  17.037  0.00  0.00    +0.000 C 
BRANCH  21  22
ATOM     22  C   UNL     1       5.981   4.826  16.843  0.00  0.00    +0.000 C 
ATOM     23  C   UNL     1       5.602   6.271  16.444  0.00  0.00    +0.000 C 
ATOM     24  O   UNL     1       5.749   5.943  15.037  0.00  0.00    +0.000 OA
ATOM     25  C   UNL     1       6.511   4.759  15.393  0.00  0.00    +0.000 C 
BRANCH  22  27
ATOM     26  C   UNL     1       7.565   6.130  18.338  0.00  0.00    +0.000 C 
ATOM     27  C   UNL     1       7.048   4.758  17.938  0.00  0.00    +0.000 C 
ENDBRANCH  22  27
ENDBRANCH  21  22
ENDBRANCH  20  21
ENDBRANCH   1  20
TORSDOF 8
ENDMDL
MODEL 3
REMARK VINA RESULT:      -7.6      3.289      6.259
REMARK  Name = 
REMARK  9 active torsions:
REMARK  status: ('A' for Active; 'I' for Inactive)
REMARK    1  A    between atoms: C_1  and  C_2
REMARK    2  A    between atoms: C_2  and  C_3
REMARK    3  A    between atoms: C_3  and  C_4
REMARK    4  A    between atoms: C_4  and  O_5
REMARK    5  A    between atoms: O_5  and  C_6
REMARK    6  A    between atoms: C_6  and  N_7
REMARK    7  A    between atoms: C_6  and  C_16
REMARK    8  A    between atoms: C_6  and  C_20
REMARK    9  A    between atoms: C_8  and  C_10
REMARK                            x       y       z     vdW  Elec       q    Type
REMARK                         _______ _______ _______ _____ _____    ______ ____
ROOT
ATOM      1  C   UNL     1       5.502   4.919  17.937  0.00  0.00    +0.000 C 
ENDROOT
BRANCH   1   2
ATOM      2  N   UNL     1       5.712   4.400  16.562  0.00  0.00    +0.000 N 
ATOM      3  C   UNL     1       6.140   5.227  15.557  0.00  0.00    +0.000 C 
ATOM      4  O   UNL     1       6.377   6.410  15.750  0.00  0.00    +0.000 OA
ATOM      5  H   UNL     1       5.830   3.402  16.469  0.00  0.00    +0.000 HD
BRANCH   3   6
ATOM      6  C   UNL     1       6.303   4.616  14.222  0.00  0.00    +0.000 A 
ATOM      7  C   UNL     1       5.363   3.736  13.673  0.00  0.00    +0.000 A 
ATOM      8  C   UNL     1       5.571   3.235  12.393  0.00  0.00    +0.000 A 
ATOM      9  C   UNL     1       6.711   3.634  11.706  0.00  0.00    +0.000 A 
ATOM     10  N   UNL     1       7.631   4.483  12.211  0.00  0.00    +0.000 NA
ATOM     11  C   UNL     1       7.404   4.965  13.452  0.00  0.00    +0.000 A 
ENDBRANCH   3   6
ENDBRANCH   1   2
BRANCH   1  12
ATOM     12  C   UNL     1       4.493   6.106  18.035  0.00  0.00    +0.000 C 
ATOM     13  F   UNL     1       5.123   7.294  17.844  0.00  0.00    +0.000 F 
ATOM     14  F   UNL     1       3.451   6.076  17.186  0.00  0.00    +0.000 F 
ATOM     15  F   UNL     1       3.965   6.172  19.292  0.00  0.00    +0.000 F 
ENDBRANCH   1  12
BRANCH   1  16
ATOM     16  C   UNL     1       6.826   5.400  18.624  0.00  0.00    +0.000 C 
ATOM     17  F   UNL     1       6.730   5.312  19.981  0.00  0.00    +0.000 F 
ATOM     18  F   UNL     1       7.875   4.594  18.300  0.00  0.00    +0.000 F 
ATOM     19  F   UNL     1       7.202   6.665  18.364  0.00  0.00    +0.000 F 
ENDBRANCH   1  16
BRANCH   1  20
ATOM     20  O   UNL     1       5.034   3.730  18.673  0.00  0.00    +0.000 OA
BRANCH  20  21
ATOM     21  C   UNL     1       3.922   3.028  18.113  0.00  0.00    +0.000 C 
BRANCH  21  22
ATOM     22  C   UNL     1       2.795   2.940  19.153  0.00  0.00    +0.000 C 
ATOM     23  C   UNL     1       1.753   1.843  18.838  0.00  0.00    +0.000 C 
ATOM     24  O   UNL     1       0.912   2.809  18.154  0.00  0.00    +0.000 OA
ATOM     25  C   UNL     1       1.630   3.893  18.802  0.00  0.00    +0.000 C 
BRANCH  22  27
ATOM     26  C   UNL     1       2.068   2.894  21.585  0.00  0.00    +0.000 C 
ATOM     27  C   UNL     1       3.239   2.954  20.618  0.00  0.00    +0.000 C 
ENDBRANCH  22  27
ENDBRANCH  21  22
ENDBRANCH  20  21
ENDBRANCH   1  20
TORSDOF 8
ENDMDL
MODEL 4
REMARK VINA RESULT:      -7.5      0.763      1.424
REMARK  Name = 
REMARK  9 active torsions:
REMARK  status: ('A' for Active; 'I' for Inactive)
REMARK    1  A    between atoms: C_1  and  C_2
REMARK    2  A    between atoms: C_2  and  C_3
REMARK    3  A    between atoms: C_3  and  C_4
REMARK    4  A    between atoms: C_4  and  O_5
REMARK    5  A    between atoms: O_5  and  C_6
REMARK    6  A    between atoms: C_6  and  N_7
REMARK    7  A    between atoms: C_6  and  C_16
REMARK    8  A    between atoms: C_6  and  C_20
REMARK    9  A    between atoms: C_8  and  C_10
REMARK                            x       y       z     vdW  Elec       q    Type
REMARK                         _______ _______ _______ _____ _____    ______ ____
ROOT
ATOM      1  C   UNL     1       3.064   3.654  18.751  0.00  0.00    +0.000 C 
ENDROOT
BRANCH   1   2
ATOM      2  N   UNL     1       2.461   5.008  18.686  0.00  0.00    +0.000 N 
ATOM      3  C   UNL     1       3.127   6.098  19.184  0.00  0.00    +0.000 C 
ATOM      4  O   UNL     1       4.237   6.005  19.685  0.00  0.00    +0.000 OA
ATOM      5  H   UNL     1       1.723   5.142  18.011  0.00  0.00    +0.000 HD
BRANCH   3   6
ATOM      6  C   UNL     1       2.434   7.399  19.083  0.00  0.00    +0.000 A 
ATOM      7  C   UNL     1       2.377   8.135  17.894  0.00  0.00    +0.000 A 
ATOM      8  C   UNL     1       1.669   9.332  17.872  0.00  0.00    +0.000 A 
ATOM      9  C   UNL     1       1.042   9.749  19.039  0.00  0.00    +0.000 A 
ATOM     10  N   UNL     1       1.078   9.056  20.197  0.00  0.00    +0.000 NA
ATOM     11  C   UNL     1       1.763   7.892  20.194  0.00  0.00    +0.000 A 
ENDBRANCH   3   6
ENDBRANCH   1   2
BRANCH   1  12
ATOM     12  C   UNL     1       2.417   2.609  17.788  0.00  0.00    +0.000 C 
ATOM     13  F   UNL     1       1.146   2.320  18.170  0.00  0.00    +0.000 F 
ATOM     14  F   UNL     1       2.366   2.947  16.488  0.00  0.00    +0.000 F 
ATOM     15  F   UNL     1       3.095   1.426  17.852  0.00  0.00    +0.000 F 
ENDBRANCH   1  12
BRANCH   1  16
ATOM     16  C   UNL     1       3.018   3.025  20.186  0.00  0.00    +0.000 C 
ATOM     17  F   UNL     1       2.102   2.017  20.247  0.00  0.00    +0.000 F 
ATOM     18  F   UNL     1       4.203   2.435  20.508  0.00  0.00    +0.000 F 
ATOM     19  F   UNL     1       2.707   3.864  21.190  0.00  0.00    +0.000 F 
ENDBRANCH   1  16
BRANCH   1  20
ATOM     20  O   UNL     1       4.480   3.904  18.428  0.00  0.00    +0.000 OA
BRANCH  20  21
ATOM     21  C   UNL     1       4.835   3.875  17.044  0.00  0.00    +0.000 C 
BRANCH  21  22
ATOM     22  C   UNL     1       6.024   4.816  16.800  0.00  0.00    +0.000 C 
ATOM     23  C   UNL     1       5.602   6.271  16.492  0.00  0.00    +0.000 C 
ATOM     24  O   UNL     1       5.648   6.004  15.065  0.00  0.00    +0.000 OA
ATOM     25  C   UNL     1       6.446   4.816  15.314  0.00  0.00    +0.000 C 
BRANCH  22  27
ATOM     26  C   UNL     1       7.568   6.069  18.378  0.00  0.00    +0.000 C 
ATOM     27  C   UNL     1       7.170   4.717  17.810  0.00  0.00    +0.000 C 
ENDBRANCH  22  27
ENDBRANCH  21  22
ENDBRANCH  20  21
ENDBRANCH   1  20
TORSDOF 8
ENDMDL
MODEL 5
REMARK VINA RESULT:      -7.5      1.428      1.871
REMARK  Name = 
REMARK  9 active torsions:
REMARK  status: ('A' for Active; 'I' for Inactive)
REMARK    1  A    between atoms: C_1  and  C_2
REMARK    2  A    between atoms: C_2  and  C_3
REMARK    3  A    between atoms: C_3  and  C_4
REMARK    4  A    between atoms: C_4  and  O_5
REMARK    5  A    between atoms: O_5  and  C_6
REMARK    6  A    between atoms: C_6  and  N_7
REMARK    7  A    between atoms: C_6  and  C_16
REMARK    8  A    between atoms: C_6  and  C_20
REMARK    9  A    between atoms: C_8  and  C_10
REMARK                            x       y       z     vdW  Elec       q    Type
REMARK                         _______ _______ _______ _____ _____    ______ ____
ROOT
ATOM      1  C   UNL     1       3.254   4.731  18.112  0.00  0.00    +0.000 C 
ENDROOT
BRANCH   1   2
ATOM      2  N   UNL     1       2.916   6.176  18.124  0.00  0.00    +0.000 N 
ATOM      3  C   UNL     1       2.226   6.727  19.173  0.00  0.00    +0.000 C 
ATOM      4  O   UNL     1       1.876   6.064  20.136  0.00  0.00    +0.000 OA
ATOM      5  H   UNL     1       3.461   6.772  17.519  0.00  0.00    +0.000 HD
BRANCH   3   6
ATOM      6  C   UNL     1       1.928   8.172  19.081  0.00  0.00    +0.000 A 
ATOM      7  C   UNL     1       2.220   8.933  17.943  0.00  0.00    +0.000 A 
ATOM      8  C   UNL     1       1.870  10.279  17.922  0.00  0.00    +0.000 A 
ATOM      9  C   UNL     1       1.240  10.814  19.038  0.00  0.00    +0.000 A 
ATOM     10  N   UNL     1       0.945  10.101  20.146  0.00  0.00    +0.000 NA
ATOM     11  C   UNL     1       1.284   8.794  20.141  0.00  0.00    +0.000 A 
ENDBRANCH   3   6
ENDBRANCH   1   2
BRANCH   1  12
ATOM     12  C   UNL     1       2.025   3.780  17.964  0.00  0.00    +0.000 C 
ATOM     13  F   UNL     1       2.340   2.694  17.210  0.00  0.00    +0.000 F 
ATOM     14  F   UNL     1       1.486   3.317  19.106  0.00  0.00    +0.000 F 
ATOM     15  F   UNL     1       1.019   4.411  17.292  0.00  0.00    +0.000 F 
ENDBRANCH   1  12
BRANCH   1  16
ATOM     16  C   UNL     1       4.026   4.265  19.394  0.00  0.00    +0.000 C 
ATOM     17  F   UNL     1       4.796   3.172  19.128  0.00  0.00    +0.000 F 
ATOM     18  F   UNL     1       4.909   5.215  19.813  0.00  0.00    +0.000 F 
ATOM     19  F   UNL     1       3.268   3.932  20.454  0.00  0.00    +0.000 F 
ENDBRANCH   1  16
BRANCH   1  20
ATOM     20  O   UNL     1       4.184   4.616  16.974  0.00  0.00    +0.000 OA
BRANCH  20  21
ATOM     21  C   UNL     1       4.835   5.818  16.556  0.00  0.00    +0.000 C 
BRANCH  21  22
ATOM     22  C   UNL     1       6.297   5.512  16.203  0.00  0.00    +0.000 C 
ATOM     23  C   UNL     1       6.942   4.450  17.122  0.00  0.00    +0.000 C 
ATOM     24  O   UNL     1       7.472   5.490  17.987  0.00  0.00    +0.000 OA
ATOM     25  C   UNL     1       7.265   6.470  16.934  0.00  0.00    +0.000 C 
BRANCH  22  27
ATOM     26  C   UNL     1       6.250   3.881  14.258  0.00  0.00    +0.000 C 
ATOM     27  C   UNL     1       6.591   5.289  14.717  0.00  0.00    +0.000 C 
ENDBRANCH  22  27
ENDBRANCH  21  22
ENDBRANCH  20  21
ENDBRANCH   1  20
TORSDOF 8
ENDMDL
MODEL 6
REMARK VINA RESULT:      -7.5      0.830      1.221
REMARK  Name = 
REMARK  9 active torsions:
REMARK  status: ('A' for Active; 'I' for Inactive)
REMARK    1  A    between atoms: C_1  and  C_2
REMARK    2  A    between atoms: C_2  and  C_3
REMARK    3  A    between atoms: C_3  and  C_4
REMARK    4  A    between atoms: C_4  and  O_5
REMARK    5  A    between atoms: O_5  and  C_6
REMARK    6  A    between atoms: C_6  and  N_7
REMARK    7  A    between atoms: C_6  and  C_16
REMARK    8  A    between atoms: C_6  and  C_20
REMARK    9  A    between atoms: C_8  and  C_10
REMARK                            x       y       z     vdW  Elec       q    Type
REMARK                         _______ _______ _______ _____ _____    ______ ____
ROOT
ATOM      1  C   UNL     1       2.667   3.728  18.942  0.00  0.00    +0.000 C 
ENDROOT
BRANCH   1   2
ATOM      2  N   UNL     1       2.209   5.125  18.740  0.00  0.00    +0.000 N 
ATOM      3  C   UNL     1       2.703   6.145  19.511  0.00  0.00    +0.000 C 
ATOM      4  O   UNL     1       3.540   5.952  20.379  0.00  0.00    +0.000 OA
ATOM      5  H   UNL     1       1.784   5.337  17.849  0.00  0.00    +0.000 HD
BRANCH   3   6
ATOM      6  C   UNL     1       2.172   7.497  19.239  0.00  0.00    +0.000 A 
ATOM      7  C   UNL     1       2.246   8.098  17.977  0.00  0.00    +0.000 A 
ATOM      8  C   UNL     1       1.685   9.357  17.794  0.00  0.00    +0.000 A 
ATOM      9  C   UNL     1       1.069   9.969  18.878  0.00  0.00    +0.000 A 
ATOM     10  N   UNL     1       0.982   9.410  20.104  0.00  0.00    +0.000 NA
ATOM     11  C   UNL     1       1.524   8.182  20.257  0.00  0.00    +0.000 A 
ENDBRANCH   3   6
ENDBRANCH   1   2
BRANCH   1  12
ATOM     12  C   UNL     1       2.186   2.724  17.848  0.00  0.00    +0.000 C 
ATOM     13  F   UNL     1       0.897   2.353  18.063  0.00  0.00    +0.000 F 
ATOM     14  F   UNL     1       2.262   3.146  16.574  0.00  0.00    +0.000 F 
ATOM     15  F   UNL     1       2.912   1.570  17.916  0.00  0.00    +0.000 F 
ENDBRANCH   1  12
BRANCH   1  16
ATOM     16  C   UNL     1       2.228   3.128  20.322  0.00  0.00    +0.000 C 
ATOM     17  F   UNL     1       1.731   1.868  20.169  0.00  0.00    +0.000 F 
ATOM     18  F   UNL     1       3.293   2.979  21.159  0.00  0.00    +0.000 F 
ATOM     19  F   UNL     1       1.288   3.815  20.995  0.00  0.00    +0.000 F 
ENDBRANCH   1  16
BRANCH   1  20
ATOM     20  O   UNL     1       4.135   3.859  18.968  0.00  0.00    +0.000 OA
BRANCH  20  21
ATOM     21  C   UNL     1       4.801   3.842  17.703  0.00  0.00    +0.000 C 
BRANCH  21  22
ATOM     22  C   UNL     1       5.783   5.020  17.625  0.00  0.00    +0.000 C 
ATOM     23  C   UNL     1       7.193   4.613  17.143  0.00  0.00    +0.000 C 
ATOM     24  O   UNL     1       7.641   4.459  18.516  0.00  0.00    +0.000 OA
ATOM     25  C   UNL     1       6.505   5.241  18.973  0.00  0.00    +0.000 C 
BRANCH  22  27
ATOM     26  C   UNL     1       5.254   6.185  15.433  0.00  0.00    +0.000 C 
ATOM     27  C   UNL     1       5.251   6.287  16.949  0.00  0.00    +0.000 C 
ENDBRANCH  22  27
ENDBRANCH  21  22
ENDBRANCH  20  21
ENDBRANCH   1  20
TORSDOF 8
ENDMDL
MODEL 7
REMARK VINA RESULT:      -7.5      2.674      4.552
REMARK  Name = 
REMARK  9 active torsions:
REMARK  status: ('A' for Active; 'I' for Inactive)
REMARK    1  A    between atoms: C_1  and  C_2
REMARK    2  A    between atoms: C_2  and  C_3
REMARK    3  A    between atoms: C_3  and  C_4
REMARK    4  A    between atoms: C_4  and  O_5
REMARK    5  A    between atoms: O_5  and  C_6
REMARK    6  A    between atoms: C_6  and  N_7
REMARK    7  A    between atoms: C_6  and  C_16
REMARK    8  A    between atoms: C_6  and  C_20
REMARK    9  A    between atoms: C_8  and  C_10
REMARK                            x       y       z     vdW  Elec       q    Type
REMARK                         _______ _______ _______ _____ _____    ______ ____
ROOT
ATOM      1  C   UNL     1       5.599   5.510  17.331  0.00  0.00    +0.000 C 
ENDROOT
BRANCH   1   2
ATOM      2  N   UNL     1       4.719   6.552  17.916  0.00  0.00    +0.000 N 
ATOM      3  C   UNL     1       3.355   6.437  17.852  0.00  0.00    +0.000 C 
ATOM      4  O   UNL     1       2.811   5.476  17.329  0.00  0.00    +0.000 OA
ATOM      5  H   UNL     1       5.135   7.159  18.607  0.00  0.00    +0.000 HD
BRANCH   3   6
ATOM      6  C   UNL     1       2.569   7.536  18.451  0.00  0.00    +0.000 A 
ATOM      7  C   UNL     1       2.161   8.658  17.721  0.00  0.00    +0.000 A 
ATOM      8  C   UNL     1       1.389   9.629  18.349  0.00  0.00    +0.000 A 
ATOM      9  C   UNL     1       1.052   9.443  19.684  0.00  0.00    +0.000 A 
ATOM     10  N   UNL     1       1.431   8.369  20.409  0.00  0.00    +0.000 NA
ATOM     11  C   UNL     1       2.171   7.433  19.776  0.00  0.00    +0.000 A 
ENDBRANCH   3   6
ENDBRANCH   1   2
BRANCH   1  12
ATOM     12  C   UNL     1       7.115   5.682  17.660  0.00  0.00    +0.000 C 
ATOM     13  F   UNL     1       7.287   6.133  18.930  0.00  0.00    +0.000 F 
ATOM     14  F   UNL     1       7.884   4.587  17.529  0.00  0.00    +0.000 F 
ATOM     15  F   UNL     1       7.666   6.638  16.857  0.00  0.00    +0.000 F 
ENDBRANCH   1  12
BRANCH   1  16
ATOM     16  C   UNL     1       5.490   5.412  15.771  0.00  0.00    +0.000 C 
ATOM     17  F   UNL     1       6.706   5.153  15.213  0.00  0.00    +0.000 F 
ATOM     18  F   UNL     1       4.707   4.363  15.393  0.00  0.00    +0.000 F 
ATOM     19  F   UNL     1       5.021   6.504  15.141  0.00  0.00    +0.000 F 
ENDBRANCH   1  16
BRANCH   1  20
ATOM     20  O   UNL     1       5.049   4.260  17.888  0.00  0.00    +0.000 OA
BRANCH  20  21
ATOM     21  C   UNL     1       5.055   4.138  19.312  0.00  0.00    +0.000 C 
BRANCH  21  22
ATOM     22  C   UNL     1       3.894   3.234  19.753  0.00  0.00    +0.000 C 
ATOM     23  C   UNL     1       4.358   1.890  20.359  0.00  0.00    +0.000 C 
ATOM     24  O   UNL     1       4.241   1.242  19.064  0.00  0.00    +0.000 OA
ATOM     25  C   UNL     1       3.409   2.336  18.593  0.00  0.00    +0.000 C 
BRANCH  22  27
ATOM     26  C   UNL     1       1.398   3.601  20.040  0.00  0.00    +0.000 C 
ATOM     27  C   UNL     1       2.789   3.917  20.564  0.00  0.00    +0.000 C 
ENDBRANCH  22  27
ENDBRANCH  21  22
ENDBRANCH  20  21
ENDBRANCH   1  20
TORSDOF 8
ENDMDL
MODEL 8
REMARK VINA RESULT:      -7.5      3.379      6.312
REMARK  Name = 
REMARK  9 active torsions:
REMARK  status: ('A' for Active; 'I' for Inactive)
REMARK    1  A    between atoms: C_1  and  C_2
REMARK    2  A    between atoms: C_2  and  C_3
REMARK    3  A    between atoms: C_3  and  C_4
REMARK    4  A    between atoms: C_4  and  O_5
REMARK    5  A    between atoms: O_5  and  C_6
REMARK    6  A    between atoms: C_6  and  N_7
REMARK    7  A    between atoms: C_6  and  C_16
REMARK    8  A    between atoms: C_6  and  C_20
REMARK    9  A    between atoms: C_8  and  C_10
REMARK                            x       y       z     vdW  Elec       q    Type
REMARK                         _______ _______ _______ _____ _____    ______ ____
ROOT
ATOM      1  C   UNL     1       5.787   4.989  17.824  0.00  0.00    +0.000 C 
ENDROOT
BRANCH   1   2
ATOM      2  N   UNL     1       5.895   4.523  16.419  0.00  0.00    +0.000 N 
ATOM      3  C   UNL     1       6.667   5.201  15.512  0.00  0.00    +0.000 C 
ATOM      4  O   UNL     1       7.302   6.198  15.820  0.00  0.00    +0.000 OA
ATOM      5  H   UNL     1       5.649   3.560  16.242  0.00  0.00    +0.000 HD
BRANCH   3   6
ATOM      6  C   UNL     1       6.695   4.664  14.135  0.00  0.00    +0.000 A 
ATOM      7  C   UNL     1       7.619   5.092  13.176  0.00  0.00    +0.000 A 
ATOM      8  C   UNL     1       7.605   4.506  11.915  0.00  0.00    +0.000 A 
ATOM      9  C   UNL     1       6.669   3.512  11.659  0.00  0.00    +0.000 A 
ATOM     10  N   UNL     1       5.769   3.079  12.568  0.00  0.00    +0.000 NA
ATOM     11  C   UNL     1       5.807   3.655  13.790  0.00  0.00    +0.000 A 
ENDBRANCH   3   6
ENDBRANCH   1   2
BRANCH   1  12
ATOM     12  C   UNL     1       4.940   6.286  18.014  0.00  0.00    +0.000 C 
ATOM     13  F   UNL     1       4.364   6.313  19.244  0.00  0.00    +0.000 F 
ATOM     14  F   UNL     1       5.591   7.453  17.864  0.00  0.00    +0.000 F 
ATOM     15  F   UNL     1       3.903   6.306  17.126  0.00  0.00    +0.000 F 
ENDBRANCH   1  12
BRANCH   1  16
ATOM     16  C   UNL     1       7.178   5.263  18.493  0.00  0.00    +0.000 C 
ATOM     17  F   UNL     1       7.087   5.194  19.852  0.00  0.00    +0.000 F 
ATOM     18  F   UNL     1       8.087   4.304  18.159  0.00  0.00    +0.000 F 
ATOM     19  F   UNL     1       7.740   6.454  18.222  0.00  0.00    +0.000 F 
ENDBRANCH   1  16
BRANCH   1  20
ATOM     20  O   UNL     1       5.190   3.831  18.514  0.00  0.00    +0.000 OA
BRANCH  20  21
ATOM     21  C   UNL     1       4.067   3.217  17.877  0.00  0.00    +0.000 C 
BRANCH  21  22
ATOM     22  C   UNL     1       2.908   3.106  18.879  0.00  0.00    +0.000 C 
ATOM     23  C   UNL     1       1.758   2.197  18.389  0.00  0.00    +0.000 C 
ATOM     24  O   UNL     1       1.052   3.346  17.850  0.00  0.00    +0.000 OA
ATOM     25  C   UNL     1       1.869   4.229  18.663  0.00  0.00    +0.000 C 
BRANCH  22  27
ATOM     26  C   UNL     1       2.254   3.319  21.323  0.00  0.00    +0.000 C 
ATOM     27  C   UNL     1       3.308   2.849  20.334  0.00  0.00    +0.000 C 
ENDBRANCH  22  27
ENDBRANCH  21  22
ENDBRANCH  20  21
ENDBRANCH   1  20
TORSDOF 8
ENDMDL
MODEL 9
REMARK VINA RESULT:      -7.5      0.959      1.520
REMARK  Name = 
REMARK  9 active torsions:
REMARK  status: ('A' for Active; 'I' for Inactive)
REMARK    1  A    between atoms: C_1  and  C_2
REMARK    2  A    between atoms: C_2  and  C_3
REMARK    3  A    between atoms: C_3  and  C_4
REMARK    4  A    between atoms: C_4  and  O_5
REMARK    5  A    between atoms: O_5  and  C_6
REMARK    6  A    between atoms: C_6  and  N_7
REMARK    7  A    between atoms: C_6  and  C_16
REMARK    8  A    between atoms: C_6  and  C_20
REMARK    9  A    between atoms: C_8  and  C_10
REMARK                            x       y       z     vdW  Elec       q    Type
REMARK                         _______ _______ _______ _____ _____    ______ ____
ROOT
ATOM      1  C   UNL     1       3.001   3.654  18.803  0.00  0.00    +0.000 C 
ENDROOT
BRANCH   1   2
ATOM      2  N   UNL     1       2.421   5.014  18.678  0.00  0.00    +0.000 N 
ATOM      3  C   UNL     1       3.085   6.109  19.167  0.00  0.00    +0.000 C 
ATOM      4  O   UNL     1       4.176   6.015  19.709  0.00  0.00    +0.000 OA
ATOM      5  H   UNL     1       1.709   5.138  17.973  0.00  0.00    +0.000 HD
BRANCH   3   6
ATOM      6  C   UNL     1       2.415   7.416  19.004  0.00  0.00    +0.000 A 
ATOM      7  C   UNL     1       1.688   8.025  20.033  0.00  0.00    +0.000 A 
ATOM      8  C   UNL     1       1.121   9.276  19.812  0.00  0.00    +0.000 A 
ATOM      9  C   UNL     1       1.304   9.873  18.571  0.00  0.00    +0.000 A 
ATOM     10  N   UNL     1       2.004   9.307  17.564  0.00  0.00    +0.000 NA
ATOM     11  C   UNL     1       2.554   8.097  17.804  0.00  0.00    +0.000 A 
ENDBRANCH   3   6
ENDBRANCH   1   2
BRANCH   1  12
ATOM     12  C   UNL     1       2.342   2.580  17.881  0.00  0.00    +0.000 C 
ATOM     13  F   UNL     1       3.093   1.449  17.841  0.00  0.00    +0.000 F 
ATOM     14  F   UNL     1       1.091   2.206  18.200  0.00  0.00    +0.000 F 
ATOM     15  F   UNL     1       2.293   3.031  16.594  0.00  0.00    +0.000 F 
ENDBRANCH   1  12
BRANCH   1  16
ATOM     16  C   UNL     1       2.938   3.087  20.263  0.00  0.00    +0.000 C 
ATOM     17  F   UNL     1       2.023   2.081  20.356  0.00  0.00    +0.000 F 
ATOM     18  F   UNL     1       4.120   2.513  20.624  0.00  0.00    +0.000 F 
ATOM     19  F   UNL     1       2.615   3.968  21.226  0.00  0.00    +0.000 F 
ENDBRANCH   1  16
BRANCH   1  20
ATOM     20  O   UNL     1       4.423   3.867  18.477  0.00  0.00    +0.000 OA
BRANCH  20  21
ATOM     21  C   UNL     1       4.762   3.904  17.089  0.00  0.00    +0.000 C 
BRANCH  21  22
ATOM     22  C   UNL     1       5.978   4.819  16.883  0.00  0.00    +0.000 C 
ATOM     23  C   UNL     1       5.600   6.261  16.474  0.00  0.00    +0.000 C 
ATOM     24  O   UNL     1       5.741   5.921  15.068  0.00  0.00    +0.000 OA
ATOM     25  C   UNL     1       6.503   4.739  15.432  0.00  0.00    +0.000 C 
BRANCH  22  27
ATOM     26  C   UNL     1       7.583   6.132  18.347  0.00  0.00    +0.000 C 
ATOM     27  C   UNL     1       7.050   4.760  17.975  0.00  0.00    +0.000 C 
ENDBRANCH  22  27
ENDBRANCH  21  22
ENDBRANCH  20  21
ENDBRANCH   1  20
TORSDOF 8
ENDMDL
