MODEL 1
REMARK VINA RESULT:      -7.9      0.000      0.000
REMARK  Name = 
REMARK  4 active torsions:
REMARK  status: ('A' for Active; 'I' for Inactive)
REMARK    1  A    between atoms: C_1  and  C_2
REMARK    2  A    between atoms: C_5  and  C_6
REMARK    3  A    between atoms: C_6  and  O_8
REMARK    4  A    between atoms: C_10  and  C_11
REMARK                            x       y       z     vdW  Elec       q    Type
REMARK                         _______ _______ _______ _____ _____    ______ ____
ROOT
ATOM      1  C   UNL     1       7.197   5.683  17.752  0.00  0.00    +0.000 C 
ATOM      2  C   UNL     1       6.645   5.211  16.426  0.00  0.00    +0.000 A 
ATOM      3  C   UNL     1       7.598   5.042  15.398  0.00  0.00    +0.000 A 
ATOM      4  C   UNL     1       7.249   4.497  14.168  0.00  0.00    +0.000 A 
ATOM      5  C   UNL     1       5.924   4.167  13.913  0.00  0.00    +0.000 A 
ATOM      6  C   UNL     1       4.951   4.431  14.893  0.00  0.00    +0.000 A 
ATOM      7  C   UNL     1       5.272   4.902  16.190  0.00  0.00    +0.000 A 
ENDROOT
BRANCH   7   8
ATOM      8  C   UNL     1       4.180   5.066  17.221  0.00  0.00    +0.000 A 
ATOM      9  C   UNL     1       3.719   6.368  17.513  0.00  0.00    +0.000 A 
ATOM     10  C   UNL     1       2.778   6.638  18.508  0.00  0.00    +0.000 A 
ATOM     11  C   UNL     1       2.167   5.592  19.175  0.00  0.00    +0.000 A 
ATOM     12  C   UNL     1       2.488   4.272  18.846  0.00  0.00    +0.000 A 
ATOM     13  C   UNL     1       3.536   3.995  17.919  0.00  0.00    +0.000 A 
ATOM     14  C   UNL     1       3.886   2.528  17.700  0.00  0.00    +0.000 C 
ATOM     15  C   UNL     1       3.111   1.522  18.567  0.00  0.00    +0.000 C 
ATOM     16  N   UNL     1       1.719   1.918  18.757  0.00  0.00    +0.000 NA
ATOM     17  C   UNL     1       1.704   3.167  19.522  0.00  0.00    +0.000 C 
ATOM     18  H   UNL     1       1.286   2.101  17.853  0.00  0.00    +0.000 HD
ENDBRANCH   7   8
BRANCH   5  19
ATOM     19  C   UNL     1       5.633   3.450  12.638  0.00  0.00    +0.000 C 
ATOM     20  O   UNL     1       4.570   3.564  12.055  0.00  0.00    +0.000 OA
BRANCH  19  21
ATOM     21  O   UNL     1       6.632   2.676  12.166  0.00  0.00    +0.000 OA
ATOM     22  H   UNL     1       7.533   2.967  12.380  0.00  0.00    +0.000 HD
ENDBRANCH  19  21
ENDBRANCH   5  19
TORSDOF 3
ENDMDL
MODEL 2
REMARK VINA RESULT:      -7.8      1.287      2.509
REMARK  Name = 
REMARK  4 active torsions:
REMARK  status: ('A' for Active; 'I' for Inactive)
REMARK    1  A    between atoms: C_1  and  C_2
REMARK    2  A    between atoms: C_5  and  C_6
REMARK    3  A    between atoms: C_6  and  O_8
REMARK    4  A    between atoms: C_10  and  C_11
REMARK                            x       y       z     vdW  Elec       q    Type
REMARK                         _______ _______ _______ _____ _____    ______ ____
ROOT
ATOM      1  C   UNL     1       7.008   5.244  18.059  0.00  0.00    +0.000 C 
ATOM      2  C   UNL     1       6.484   4.856  16.696  0.00  0.00    +0.000 A 
ATOM      3  C   UNL     1       7.353   5.121  15.614  0.00  0.00    +0.000 A 
ATOM      4  C   UNL     1       7.052   4.703  14.323  0.00  0.00    +0.000 A 
ATOM      5  C   UNL     1       5.844   4.066  14.070  0.00  0.00    +0.000 A 
ATOM      6  C   UNL     1       4.927   3.894  15.122  0.00  0.00    +0.000 A 
ATOM      7  C   UNL     1       5.226   4.223  16.466  0.00  0.00    +0.000 A 
ENDROOT
BRANCH   7   8
ATOM      8  C   UNL     1       4.225   3.915  17.555  0.00  0.00    +0.000 A 
ATOM      9  C   UNL     1       4.066   2.573  17.965  0.00  0.00    +0.000 A 
ATOM     10  C   UNL     1       3.110   2.170  18.899  0.00  0.00    +0.000 A 
ATOM     11  C   UNL     1       2.349   3.120  19.555  0.00  0.00    +0.000 A 
ATOM     12  C   UNL     1       2.544   4.478  19.286  0.00  0.00    +0.000 A 
ATOM     13  C   UNL     1       3.431   4.886  18.245  0.00  0.00    +0.000 A 
ATOM     14  C   UNL     1       3.502   6.380  17.954  0.00  0.00    +0.000 C 
ATOM     15  C   UNL     1       2.547   7.264  18.772  0.00  0.00    +0.000 C 
ATOM     16  N   UNL     1       2.408   6.796  20.148  0.00  0.00    +0.000 NA
ATOM     17  C   UNL     1       1.769   5.479  20.116  0.00  0.00    +0.000 C 
ATOM     18  H   UNL     1       3.330   6.687  20.570  0.00  0.00    +0.000 HD
ENDBRANCH   7   8
BRANCH   5  19
ATOM     19  C   UNL     1       5.641   3.509  12.701  0.00  0.00    +0.000 C 
ATOM     20  O   UNL     1       4.580   3.605  12.111  0.00  0.00    +0.000 OA
BRANCH  19  21
ATOM     21  O   UNL     1       6.714   2.901  12.156  0.00  0.00    +0.000 OA
ATOM     22  H   UNL     1       7.511   3.448  12.064  0.00  0.00    +0.000 HD
ENDBRANCH  19  21
ENDBRANCH   5  19
TORSDOF 3
ENDMDL
MODEL 3
REMARK VINA RESULT:      -7.3      3.955      6.628
REMARK  Name = 
REMARK  4 active torsions:
REMARK  status: ('A' for Active; 'I' for Inactive)
REMARK    1  A    between atoms: C_1  and  C_2
REMARK    2  A    between atoms: C_5  and  C_6
REMARK    3  A    between atoms: C_6  and  O_8
REMARK    4  A    between atoms: C_10  and  C_11
REMARK                            x       y       z     vdW  Elec       q    Type
REMARK                         _______ _______ _______ _____ _____    ______ ____
ROOT
ATOM      1  C   UNL     1       2.292   5.314  21.030  0.00  0.00    +0.000 C 
ATOM      2  C   UNL     1       2.020   6.538  20.186  0.00  0.00    +0.000 A 
ATOM      3  C   UNL     1       1.393   7.611  20.858  0.00  0.00    +0.000 A 
ATOM      4  C   UNL     1       1.196   8.839  20.238  0.00  0.00    +0.000 A 
ATOM      5  C   UNL     1       1.563   9.006  18.909  0.00  0.00    +0.000 A 
ATOM      6  C   UNL     1       2.090   7.911  18.202  0.00  0.00    +0.000 A 
ATOM      7  C   UNL     1       2.389   6.670  18.815  0.00  0.00    +0.000 A 
ENDROOT
BRANCH   7   8
ATOM      8  C   UNL     1       3.047   5.574  18.009  0.00  0.00    +0.000 A 
ATOM      9  C   UNL     1       2.291   4.426  17.688  0.00  0.00    +0.000 A 
ATOM     10  C   UNL     1       2.828   3.321  17.025  0.00  0.00    +0.000 A 
ATOM     11  C   UNL     1       4.124   3.372  16.546  0.00  0.00    +0.000 A 
ATOM     12  C   UNL     1       4.888   4.529  16.722  0.00  0.00    +0.000 A 
ATOM     13  C   UNL     1       4.387   5.611  17.505  0.00  0.00    +0.000 A 
ATOM     14  C   UNL     1       5.329   6.787  17.728  0.00  0.00    +0.000 C 
ATOM     15  C   UNL     1       6.741   6.631  17.140  0.00  0.00    +0.000 C 
ATOM     16  N   UNL     1       6.727   5.943  15.852  0.00  0.00    +0.000 NA
ATOM     17  C   UNL     1       6.256   4.574  16.075  0.00  0.00    +0.000 C 
ATOM     18  H   UNL     1       6.069   6.401  15.224  0.00  0.00    +0.000 HD
ENDBRANCH   7   8
BRANCH   5  19
ATOM     19  C   UNL     1       1.467  10.382  18.342  0.00  0.00    +0.000 C 
ATOM     20  O   UNL     1       0.688  11.211  18.777  0.00  0.00    +0.000 OA
BRANCH  19  21
ATOM     21  O   UNL     1       2.309  10.652  17.324  0.00  0.00    +0.000 OA
ATOM     22  H   UNL     1       3.167  11.032  17.571  0.00  0.00    +0.000 HD
ENDBRANCH  19  21
ENDBRANCH   5  19
TORSDOF 3
ENDMDL
MODEL 4
REMARK VINA RESULT:      -7.3      0.966      1.161
REMARK  Name = 
REMARK  4 active torsions:
REMARK  status: ('A' for Active; 'I' for Inactive)
REMARK    1  A    between atoms: C_1  and  C_2
REMARK    2  A    between atoms: C_5  and  C_6
REMARK    3  A    between atoms: C_6  and  O_8
REMARK    4  A    between atoms: C_10  and  C_11
REMARK                            x       y       z     vdW  Elec       q    Type
REMARK                         _______ _______ _______ _____ _____    ______ ____
ROOT
ATOM      1  C   UNL     1       6.801   5.362  19.240  0.00  0.00    +0.000 C 
ATOM      2  C   UNL     1       6.426   5.165  17.789  0.00  0.00    +0.000 A 
ATOM      3  C   UNL     1       7.511   5.074  16.889  0.00  0.00    +0.000 A 
ATOM      4  C   UNL     1       7.317   4.770  15.548  0.00  0.00    +0.000 A 
ATOM      5  C   UNL     1       6.026   4.612  15.058  0.00  0.00    +0.000 A 
ATOM      6  C   UNL     1       4.936   4.806  15.925  0.00  0.00    +0.000 A 
ATOM      7  C   UNL     1       5.088   5.029  17.315  0.00  0.00    +0.000 A 
ENDROOT
BRANCH   7   8
ATOM      8  C   UNL     1       3.865   5.128  18.197  0.00  0.00    +0.000 A 
ATOM      9  C   UNL     1       3.462   6.402  18.651  0.00  0.00    +0.000 A 
ATOM     10  C   UNL     1       2.402   6.595  19.538  0.00  0.00    +0.000 A 
ATOM     11  C   UNL     1       1.619   5.519  19.915  0.00  0.00    +0.000 A 
ATOM     12  C   UNL     1       1.888   4.246  19.402  0.00  0.00    +0.000 A 
ATOM     13  C   UNL     1       3.043   4.025  18.595  0.00  0.00    +0.000 A 
ATOM     14  C   UNL     1       3.312   2.587  18.167  0.00  0.00    +0.000 C 
ATOM     15  C   UNL     1       2.341   1.533  18.722  0.00  0.00    +0.000 C 
ATOM     16  N   UNL     1       0.969   2.030  18.786  0.00  0.00    +0.000 NA
ATOM     17  C   UNL     1       0.930   3.128  19.753  0.00  0.00    +0.000 C 
ATOM     18  H   UNL     1       0.695   2.403  17.878  0.00  0.00    +0.000 HD
ENDBRANCH   7   8
BRANCH   5  19
ATOM     19  C   UNL     1       5.885   4.141  13.650  0.00  0.00    +0.000 C 
ATOM     20  O   UNL     1       4.833   3.713  13.209  0.00  0.00    +0.000 OA
BRANCH  19  21
ATOM     21  O   UNL     1       6.997   4.231  12.892  0.00  0.00    +0.000 OA
ATOM     22  H   UNL     1       6.910   3.935  11.972  0.00  0.00    +0.000 HD
ENDBRANCH  19  21
ENDBRANCH   5  19
TORSDOF 3
ENDMDL
MODEL 5
REMARK VINA RESULT:      -7.1      1.226      1.429
REMARK  Name = 
REMARK  4 active torsions:
REMARK  status: ('A' for Active; 'I' for Inactive)
REMARK    1  A    between atoms: C_1  and  C_2
REMARK    2  A    between atoms: C_5  and  C_6
REMARK    3  A    between atoms: C_6  and  O_8
REMARK    4  A    between atoms: C_10  and  C_11
REMARK                            x       y       z     vdW  Elec       q    Type
REMARK                         _______ _______ _______ _____ _____    ______ ____
ROOT
ATOM      1  C   UNL     1       6.854   5.409  19.156  0.00  0.00    +0.000 C 
ATOM      2  C   UNL     1       6.478   5.219  17.705  0.00  0.00    +0.000 A 
ATOM      3  C   UNL     1       7.533   4.824  16.852  0.00  0.00    +0.000 A 
ATOM      4  C   UNL     1       7.304   4.494  15.522  0.00  0.00    +0.000 A 
ATOM      5  C   UNL     1       6.024   4.612  14.993  0.00  0.00    +0.000 A 
ATOM      6  C   UNL     1       4.990   5.106  15.807  0.00  0.00    +0.000 A 
ATOM      7  C   UNL     1       5.157   5.371  17.188  0.00  0.00    +0.000 A 
ENDROOT
BRANCH   7   8
ATOM      8  C   UNL     1       3.971   5.804  18.018  0.00  0.00    +0.000 A 
ATOM      9  C   UNL     1       3.491   7.123  17.871  0.00  0.00    +0.000 A 
ATOM     10  C   UNL     1       2.459   7.650  18.650  0.00  0.00    +0.000 A 
ATOM     11  C   UNL     1       1.780   6.831  19.533  0.00  0.00    +0.000 A 
ATOM     12  C   UNL     1       2.124   5.480  19.637  0.00  0.00    +0.000 A 
ATOM     13  C   UNL     1       3.255   4.968  18.935  0.00  0.00    +0.000 A 
ATOM     14  C   UNL     1       3.616   3.510  19.189  0.00  0.00    +0.000 C 
ATOM     15  C   UNL     1       2.755   2.783  20.235  0.00  0.00    +0.000 C 
ATOM     16  N   UNL     1       1.353   3.186  20.169  0.00  0.00    +0.000 NA
ATOM     17  C   UNL     1       1.271   4.603  20.530  0.00  0.00    +0.000 C 
ATOM     18  H   UNL     1       1.011   3.087  19.214  0.00  0.00    +0.000 HD
ENDBRANCH   7   8
BRANCH   5  19
ATOM     19  C   UNL     1       5.810   4.104  13.607  0.00  0.00    +0.000 C 
ATOM     20  O   UNL     1       4.711   3.777  13.197  0.00  0.00    +0.000 OA
BRANCH  19  21
ATOM     21  O   UNL     1       6.913   4.042  12.834  0.00  0.00    +0.000 OA
ATOM     22  H   UNL     1       7.740   4.335  13.249  0.00  0.00    +0.000 HD
ENDBRANCH  19  21
ENDBRANCH   5  19
TORSDOF 3
ENDMDL
MODEL 6
REMARK VINA RESULT:      -7.1      5.467      7.482
REMARK  Name = 
REMARK  4 active torsions:
REMARK  status: ('A' for Active; 'I' for Inactive)
REMARK    1  A    between atoms: C_1  and  C_2
REMARK    2  A    between atoms: C_5  and  C_6
REMARK    3  A    between atoms: C_6  and  O_8
REMARK    4  A    between atoms: C_10  and  C_11
REMARK                            x       y       z     vdW  Elec       q    Type
REMARK                         _______ _______ _______ _____ _____    ______ ____
ROOT
ATOM      1  C   UNL     1       2.356   7.306  17.598  0.00  0.00    +0.000 C 
ATOM      2  C   UNL     1       1.894   7.826  18.940  0.00  0.00    +0.000 A 
ATOM      3  C   UNL     1       1.597   9.206  18.986  0.00  0.00    +0.000 A 
ATOM      4  C   UNL     1       1.045   9.791  20.119  0.00  0.00    +0.000 A 
ATOM      5  C   UNL     1       0.836   9.023  21.258  0.00  0.00    +0.000 A 
ATOM      6  C   UNL     1       1.228   7.673  21.255  0.00  0.00    +0.000 A 
ATOM      7  C   UNL     1       1.711   7.014  20.098  0.00  0.00    +0.000 A 
ENDROOT
BRANCH   7   8
ATOM      8  C   UNL     1       2.016   5.535  20.149  0.00  0.00    +0.000 A 
ATOM      9  C   UNL     1       0.971   4.641  20.470  0.00  0.00    +0.000 A 
ATOM     10  C   UNL     1       1.165   3.268  20.628  0.00  0.00    +0.000 A 
ATOM     11  C   UNL     1       2.402   2.714  20.351  0.00  0.00    +0.000 A 
ATOM     12  C   UNL     1       3.448   3.527  19.908  0.00  0.00    +0.000 A 
ATOM     13  C   UNL     1       3.289   4.945  19.864  0.00  0.00    +0.000 A 
ATOM     14  C   UNL     1       4.515   5.758  19.468  0.00  0.00    +0.000 C 
ATOM     15  C   UNL     1       5.803   4.951  19.235  0.00  0.00    +0.000 C 
ATOM     16  N   UNL     1       5.539   3.670  18.588  0.00  0.00    +0.000 NA
ATOM     17  C   UNL     1       4.743   2.854  19.506  0.00  0.00    +0.000 C 
ATOM     18  H   UNL     1       4.988   3.817  17.743  0.00  0.00    +0.000 HD
ENDBRANCH   7   8
BRANCH   5  19
ATOM     19  C   UNL     1       0.106   9.666  22.389  0.00  0.00    +0.000 C 
ATOM     20  O   UNL     1       0.285  10.829  22.701  0.00  0.00    +0.000 OA
BRANCH  19  21
ATOM     21  O   UNL     1      -0.775   8.875  23.036  0.00  0.00    +0.000 OA
ATOM     22  H   UNL     1      -0.399   8.106  23.493  0.00  0.00    +0.000 HD
ENDBRANCH  19  21
ENDBRANCH   5  19
TORSDOF 3
ENDMDL
MODEL 7
REMARK VINA RESULT:      -7.0      3.838      6.387
REMARK  Name = 
REMARK  4 active torsions:
REMARK  status: ('A' for Active; 'I' for Inactive)
REMARK    1  A    between atoms: C_1  and  C_2
REMARK    2  A    between atoms: C_5  and  C_6
REMARK    3  A    between atoms: C_6  and  O_8
REMARK    4  A    between atoms: C_10  and  C_11
REMARK                            x       y       z     vdW  Elec       q    Type
REMARK                         _______ _______ _______ _____ _____    ______ ____
ROOT
ATOM      1  C   UNL     1       3.297   7.653  18.085  0.00  0.00    +0.000 C 
ATOM      2  C   UNL     1       3.064   6.489  19.022  0.00  0.00    +0.000 A 
ATOM      3  C   UNL     1       1.818   6.487  19.687  0.00  0.00    +0.000 A 
ATOM      4  C   UNL     1       1.421   5.417  20.480  0.00  0.00    +0.000 A 
ATOM      5  C   UNL     1       2.288   4.350  20.679  0.00  0.00    +0.000 A 
ATOM      6  C   UNL     1       3.571   4.394  20.106  0.00  0.00    +0.000 A 
ATOM      7  C   UNL     1       3.985   5.419  19.222  0.00  0.00    +0.000 A 
ENDROOT
BRANCH   7   8
ATOM      8  C   UNL     1       5.345   5.343  18.567  0.00  0.00    +0.000 A 
ATOM      9  C   UNL     1       6.488   5.604  19.354  0.00  0.00    +0.000 A 
ATOM     10  C   UNL     1       7.781   5.645  18.830  0.00  0.00    +0.000 A 
ATOM     11  C   UNL     1       7.995   5.305  17.507  0.00  0.00    +0.000 A 
ATOM     12  C   UNL     1       6.920   4.915  16.704  0.00  0.00    +0.000 A 
ATOM     13  C   UNL     1       5.585   4.991  17.200  0.00  0.00    +0.000 A 
ATOM     14  C   UNL     1       4.471   4.645  16.221  0.00  0.00    +0.000 C 
ATOM     15  C   UNL     1       4.920   4.326  14.785  0.00  0.00    +0.000 C 
ATOM     16  N   UNL     1       6.174   3.579  14.755  0.00  0.00    +0.000 NA
ATOM     17  C   UNL     1       7.227   4.439  15.299  0.00  0.00    +0.000 C 
ATOM     18  H   UNL     1       6.100   2.758  15.355  0.00  0.00    +0.000 HD
ENDBRANCH   7   8
BRANCH   5  19
ATOM     19  C   UNL     1       1.755   3.166  21.414  0.00  0.00    +0.000 C 
ATOM     20  O   UNL     1       2.362   2.641  22.329  0.00  0.00    +0.000 OA
BRANCH  19  21
ATOM     21  O   UNL     1       0.548   2.724  21.004  0.00  0.00    +0.000 OA
ATOM     22  H   UNL     1      -0.091   3.408  20.750  0.00  0.00    +0.000 HD
ENDBRANCH  19  21
ENDBRANCH   5  19
TORSDOF 3
ENDMDL
MODEL 8
REMARK VINA RESULT:      -6.9      3.763      6.263
REMARK  Name = 
REMARK  4 active torsions:
REMARK  status: ('A' for Active; 'I' for Inactive)
REMARK    1  A    between atoms: C_1  and  C_2
REMARK    2  A    between atoms: C_5  and  C_6
REMARK    3  A    between atoms: C_6  and  O_8
REMARK    4  A    between atoms: C_10  and  C_11
REMARK                            x       y       z     vdW  Elec       q    Type
REMARK                         _______ _______ _______ _____ _____    ______ ____
ROOT
ATOM      1  C   UNL     1       2.151   5.626  21.213  0.00  0.00    +0.000 C 
ATOM      2  C   UNL     1       1.898   6.841  20.351  0.00  0.00    +0.000 A 
ATOM      3  C   UNL     1       1.211   7.901  20.984  0.00  0.00    +0.000 A 
ATOM      4  C   UNL     1       1.021   9.122  20.349  0.00  0.00    +0.000 A 
ATOM      5  C   UNL     1       1.457   9.294  19.041  0.00  0.00    +0.000 A 
ATOM      6  C   UNL     1       2.046   8.209  18.368  0.00  0.00    +0.000 A 
ATOM      7  C   UNL     1       2.339   6.977  19.001  0.00  0.00    +0.000 A 
ENDROOT
BRANCH   7   8
ATOM      8  C   UNL     1       3.065   5.894  18.237  0.00  0.00    +0.000 A 
ATOM      9  C   UNL     1       4.271   6.223  17.582  0.00  0.00    +0.000 A 
ATOM     10  C   UNL     1       4.973   5.323  16.780  0.00  0.00    +0.000 A 
ATOM     11  C   UNL     1       4.554   4.007  16.698  0.00  0.00    +0.000 A 
ATOM     12  C   UNL     1       3.437   3.584  17.422  0.00  0.00    +0.000 A 
ATOM     13  C   UNL     1       2.646   4.528  18.144  0.00  0.00    +0.000 A 
ATOM     14  C   UNL     1       1.389   3.993  18.818  0.00  0.00    +0.000 C 
ATOM     15  C   UNL     1       1.084   2.506  18.575  0.00  0.00    +0.000 C 
ATOM     16  N   UNL     1       2.296   1.694  18.546  0.00  0.00    +0.000 NA
ATOM     17  C   UNL     1       3.093   2.110  17.390  0.00  0.00    +0.000 C 
ATOM     18  H   UNL     1       2.848   1.868  19.385  0.00  0.00    +0.000 HD
ENDBRANCH   7   8
BRANCH   5  19
ATOM     19  C   UNL     1       1.361  10.666  18.465  0.00  0.00    +0.000 C 
ATOM     20  O   UNL     1       0.577  11.496  18.889  0.00  0.00    +0.000 OA
BRANCH  19  21
ATOM     21  O   UNL     1       2.208  10.931  17.450  0.00  0.00    +0.000 OA
ATOM     22  H   UNL     1       2.233  10.275  16.735  0.00  0.00    +0.000 HD
ENDBRANCH  19  21
ENDBRANCH   5  19
TORSDOF 3
ENDMDL
MODEL 9
REMARK VINA RESULT:      -6.8      3.318      5.117
REMARK  Name = 
REMARK  4 active torsions:
REMARK  status: ('A' for Active; 'I' for Inactive)
REMARK    1  A    between atoms: C_1  and  C_2
REMARK    2  A    between atoms: C_5  and  C_6
REMARK    3  A    between atoms: C_6  and  O_8
REMARK    4  A    between atoms: C_10  and  C_11
REMARK                            x       y       z     vdW  Elec       q    Type
REMARK                         _______ _______ _______ _____ _____    ______ ____
ROOT
ATOM      1  C   UNL     1       1.730   3.927  17.773  0.00  0.00    +0.000 C 
ATOM      2  C   UNL     1       3.091   4.566  17.620  0.00  0.00    +0.000 A 
ATOM      3  C   UNL     1       3.985   3.891  16.759  0.00  0.00    +0.000 A 
ATOM      4  C   UNL     1       5.222   4.431  16.429  0.00  0.00    +0.000 A 
ATOM      5  C   UNL     1       5.624   5.631  17.003  0.00  0.00    +0.000 A 
ATOM      6  C   UNL     1       4.785   6.255  17.943  0.00  0.00    +0.000 A 
ATOM      7  C   UNL     1       3.481   5.789  18.242  0.00  0.00    +0.000 A 
ENDROOT
BRANCH   7   8
ATOM      8  C   UNL     1       2.602   6.573  19.188  0.00  0.00    +0.000 A 
ATOM      9  C   UNL     1       2.248   5.986  20.422  0.00  0.00    +0.000 A 
ATOM     10  C   UNL     1       1.373   6.586  21.328  0.00  0.00    +0.000 A 
ATOM     11  C   UNL     1       0.907   7.866  21.086  0.00  0.00    +0.000 A 
ATOM     12  C   UNL     1       1.319   8.553  19.941  0.00  0.00    +0.000 A 
ATOM     13  C   UNL     1       2.113   7.898  18.954  0.00  0.00    +0.000 A 
ATOM     14  C   UNL     1       2.428   8.692  17.692  0.00  0.00    +0.000 C 
ATOM     15  C   UNL     1       1.784  10.085  17.604  0.00  0.00    +0.000 C 
ATOM     16  N   UNL     1       1.751  10.759  18.899  0.00  0.00    +0.000 NA
ATOM     17  C   UNL     1       0.874   9.993  19.786  0.00  0.00    +0.000 C 
ATOM     18  H   UNL     1       2.685  10.762  19.309  0.00  0.00    +0.000 HD
ENDBRANCH   7   8
BRANCH   5  19
ATOM     19  C   UNL     1       6.891   6.236  16.501  0.00  0.00    +0.000 C 
ATOM     20  O   UNL     1       7.569   5.705  15.640  0.00  0.00    +0.000 OA
BRANCH  19  21
ATOM     21  O   UNL     1       7.231   7.417  17.056  0.00  0.00    +0.000 OA
ATOM     22  H   UNL     1       7.115   8.200  16.495  0.00  0.00    +0.000 HD
ENDBRANCH  19  21
ENDBRANCH   5  19
TORSDOF 3
ENDMDL
