MODEL 1
REMARK VINA RESULT:      -8.9      0.000      0.000
REMARK  Name = 
REMARK  6 active torsions:
REMARK  status: ('A' for Active; 'I' for Inactive)
REMARK    1  A    between atoms: C_2  and  C_4
REMARK    2  A    between atoms: C_9  and  C_10
REMARK    3  A    between atoms: C_13  and  S_14
REMARK    4  A    between atoms: S_14  and  N_17
REMARK    5  A    between atoms: N_17  and  C_18
REMARK    6  A    between atoms: C_18  and  C_19
REMARK                            x       y       z     vdW  Elec       q    Type
REMARK                         _______ _______ _______ _____ _____    ______ ____
ROOT
ATOM      1  C   UNL     1       8.046   8.410  18.267  0.00  0.00    +0.000 A 
ATOM      2  C   UNL     1       8.375   7.249  18.984  0.00  0.00    +0.000 A 
ATOM      3  C   UNL     1       7.650   6.068  18.806  0.00  0.00    +0.000 A 
ATOM      4  C   UNL     1       6.578   6.038  17.914  0.00  0.00    +0.000 A 
ATOM      5  C   UNL     1       6.240   7.175  17.178  0.00  0.00    +0.000 A 
ATOM      6  C   UNL     1       6.969   8.358  17.366  0.00  0.00    +0.000 A 
ENDROOT
BRANCH   1  12
ATOM      7  C   UNL     1      11.003  13.604  18.360  0.00  0.00    +0.000 A 
ATOM      8  C   UNL     1      11.458  13.153  19.609  0.00  0.00    +0.000 A 
ATOM      9  C   UNL     1      11.043  11.925  20.134  0.00  0.00    +0.000 A 
ATOM     10  C   UNL     1      10.169  11.180  19.342  0.00  0.00    +0.000 A 
ATOM     11  N   UNL     1       9.584   9.955  19.523  0.00  0.00    +0.000 N 
ATOM     12  C   UNL     1       8.806   9.657  18.424  0.00  0.00    +0.000 A 
ATOM     13  N   UNL     1       8.869  10.652  17.554  0.00  0.00    +0.000 NA
ATOM     14  C   UNL     1       9.709  11.591  18.101  0.00  0.00    +0.000 A 
ATOM     15  C   UNL     1      10.129  12.824  17.586  0.00  0.00    +0.000 A 
ATOM     16  H   UNL     1       9.722   9.365  20.328  0.00  0.00    +0.000 HD
BRANCH   7  18
ATOM     17  N   UNL     1      11.254  15.211  16.554  0.00  0.00    +0.000 N 
ATOM     18  C   UNL     1      11.489  14.916  17.868  0.00  0.00    +0.000 C 
ATOM     19  O   UNL     1      12.043  15.717  18.610  0.00  0.00    +0.000 OA
ATOM     20  H   UNL     1      11.506  16.139  16.243  0.00  0.00    +0.000 HD
ATOM     21  H   UNL     1      10.610  14.680  15.986  0.00  0.00    +0.000 HD
ENDBRANCH   7  18
ENDBRANCH   1  12
BRANCH   4  22
ATOM     22  S   UNL     1       5.724   4.499  17.654  0.00  0.00    +0.000 S 
ATOM     23  O   UNL     1       6.091   3.996  16.350  0.00  0.00    +0.000 OA
ATOM     24  O   UNL     1       5.897   3.713  18.857  0.00  0.00    +0.000 OA
BRANCH  22  25
ATOM     25  N   UNL     1       4.106   4.996  17.620  0.00  0.00    +0.000 NA
ATOM     26  H   UNL     1       3.536   4.366  17.056  0.00  0.00    +0.000 HD
BRANCH  25  27
ATOM     27  C   UNL     1       3.515   5.272  18.937  0.00  0.00    +0.000 C 
BRANCH  27  28
ATOM     28  C   UNL     1       2.762   6.583  18.960  0.00  0.00    +0.000 A 
ATOM     29  C   UNL     1       2.751   7.423  17.836  0.00  0.00    +0.000 A 
ATOM     30  C   UNL     1       2.121   8.670  17.887  0.00  0.00    +0.000 A 
ATOM     31  C   UNL     1       1.492   9.095  19.061  0.00  0.00    +0.000 A 
ATOM     32 CL   UNL     1       0.749  10.654  19.062  0.00  0.00    +0.000 Cl
ATOM     33  C   UNL     1       1.489   8.262  20.184  0.00  0.00    +0.000 A 
ATOM     34 CL   UNL     1       0.742   8.717  21.675  0.00  0.00    +0.000 Cl
ATOM     35  C   UNL     1       2.121   7.014  20.131  0.00  0.00    +0.000 A 
ENDBRANCH  27  28
ENDBRANCH  25  27
ENDBRANCH  22  25
ENDBRANCH   4  22
TORSDOF 6
ENDMDL
MODEL 2
REMARK VINA RESULT:      -8.7      6.085      8.867
REMARK  Name = 
REMARK  6 active torsions:
REMARK  status: ('A' for Active; 'I' for Inactive)
REMARK    1  A    between atoms: C_2  and  C_4
REMARK    2  A    between atoms: C_9  and  C_10
REMARK    3  A    between atoms: C_13  and  S_14
REMARK    4  A    between atoms: S_14  and  N_17
REMARK    5  A    between atoms: N_17  and  C_18
REMARK    6  A    between atoms: C_18  and  C_19
REMARK                            x       y       z     vdW  Elec       q    Type
REMARK                         _______ _______ _______ _____ _____    ______ ____
ROOT
ATOM      1  C   UNL     1       1.881   8.197  19.155  0.00  0.00    +0.000 A 
ATOM      2  C   UNL     1       1.297   9.325  18.558  0.00  0.00    +0.000 A 
ATOM      3  C   UNL     1       0.501  10.199  19.302  0.00  0.00    +0.000 A 
ATOM      4  C   UNL     1       0.269   9.946  20.655  0.00  0.00    +0.000 A 
ATOM      5  C   UNL     1       0.850   8.839  21.275  0.00  0.00    +0.000 A 
ATOM      6  C   UNL     1       1.643   7.965  20.521  0.00  0.00    +0.000 A 
ENDROOT
BRANCH   1  12
ATOM      7  C   UNL     1       5.558   4.911  15.777  0.00  0.00    +0.000 A 
ATOM      8  C   UNL     1       4.900   3.826  16.376  0.00  0.00    +0.000 A 
ATOM      9  C   UNL     1       3.892   4.021  17.327  0.00  0.00    +0.000 A 
ATOM     10  C   UNL     1       3.578   5.347  17.628  0.00  0.00    +0.000 A 
ATOM     11  N   UNL     1       2.657   5.902  18.476  0.00  0.00    +0.000 N 
ATOM     12  C   UNL     1       2.737   7.276  18.396  0.00  0.00    +0.000 A 
ATOM     13  N   UNL     1       3.681   7.616  17.534  0.00  0.00    +0.000 NA
ATOM     14  C   UNL     1       4.201   6.440  17.048  0.00  0.00    +0.000 A 
ATOM     15  C   UNL     1       5.211   6.233  16.100  0.00  0.00    +0.000 A 
ATOM     16  H   UNL     1       2.014   5.379  19.049  0.00  0.00    +0.000 HD
BRANCH   7  18
ATOM     17  N   UNL     1       6.378   3.603  13.901  0.00  0.00    +0.000 N 
ATOM     18  C   UNL     1       6.615   4.625  14.776  0.00  0.00    +0.000 C 
ATOM     19  O   UNL     1       7.638   5.295  14.710  0.00  0.00    +0.000 OA
ATOM     20  H   UNL     1       7.057   3.466  13.165  0.00  0.00    +0.000 HD
ATOM     21  H   UNL     1       5.464   3.190  13.783  0.00  0.00    +0.000 HD
ENDBRANCH   7  18
ENDBRANCH   1  12
BRANCH   4  22
ATOM     22  S   UNL     1      -0.687  11.118  21.592  0.00  0.00    +0.000 S 
ATOM     23  O   UNL     1      -1.659  11.716  20.707  0.00  0.00    +0.000 OA
ATOM     24  O   UNL     1      -1.071  10.459  22.822  0.00  0.00    +0.000 OA
BRANCH  22  25
ATOM     25  N   UNL     1       0.479  12.277  21.999  0.00  0.00    +0.000 NA
ATOM     26  H   UNL     1       1.406  11.999  21.679  0.00  0.00    +0.000 HD
BRANCH  25  27
ATOM     27  C   UNL     1       0.138  13.657  21.625  0.00  0.00    +0.000 C 
BRANCH  27  28
ATOM     28  C   UNL     1       0.955  14.146  20.451  0.00  0.00    +0.000 A 
ATOM     29  C   UNL     1       2.120  13.472  20.058  0.00  0.00    +0.000 A 
ATOM     30  C   UNL     1       2.916  13.972  19.022  0.00  0.00    +0.000 A 
ATOM     31  C   UNL     1       2.557  15.153  18.365  0.00  0.00    +0.000 A 
ATOM     32 CL   UNL     1       3.594  15.726  17.109  0.00  0.00    +0.000 Cl
ATOM     33  C   UNL     1       1.393  15.828  18.744  0.00  0.00    +0.000 A 
ATOM     34 CL   UNL     1       0.886  17.297  17.988  0.00  0.00    +0.000 Cl
ATOM     35  C   UNL     1       0.598  15.325  19.780  0.00  0.00    +0.000 A 
ENDBRANCH  27  28
ENDBRANCH  25  27
ENDBRANCH  22  25
ENDBRANCH   4  22
TORSDOF 6
ENDMDL
MODEL 3
REMARK VINA RESULT:      -8.7      0.833      1.641
REMARK  Name = 
REMARK  6 active torsions:
REMARK  status: ('A' for Active; 'I' for Inactive)
REMARK    1  A    between atoms: C_2  and  C_4
REMARK    2  A    between atoms: C_9  and  C_10
REMARK    3  A    between atoms: C_13  and  S_14
REMARK    4  A    between atoms: S_14  and  N_17
REMARK    5  A    between atoms: N_17  and  C_18
REMARK    6  A    between atoms: C_18  and  C_19
REMARK                            x       y       z     vdW  Elec       q    Type
REMARK                         _______ _______ _______ _____ _____    ______ ____
ROOT
ATOM      1  C   UNL     1       7.850   8.211  18.137  0.00  0.00    +0.000 A 
ATOM      2  C   UNL     1       6.757   8.166  17.257  0.00  0.00    +0.000 A 
ATOM      3  C   UNL     1       6.050   6.978  17.053  0.00  0.00    +0.000 A 
ATOM      4  C   UNL     1       6.437   5.816  17.721  0.00  0.00    +0.000 A 
ATOM      5  C   UNL     1       7.512   5.838  18.612  0.00  0.00    +0.000 A 
ATOM      6  C   UNL     1       8.219   7.032  18.807  0.00  0.00    +0.000 A 
ENDROOT
BRANCH   1  12
ATOM      7  C   UNL     1      10.754  13.416  18.586  0.00  0.00    +0.000 A 
ATOM      8  C   UNL     1      11.192  12.897  19.815  0.00  0.00    +0.000 A 
ATOM      9  C   UNL     1      10.780  11.637  20.260  0.00  0.00    +0.000 A 
ATOM     10  C   UNL     1       9.927  10.932  19.410  0.00  0.00    +0.000 A 
ATOM     11  N   UNL     1       9.352   9.693  19.509  0.00  0.00    +0.000 N 
ATOM     12  C   UNL     1       8.596   9.453  18.381  0.00  0.00    +0.000 A 
ATOM     13  N   UNL     1       8.663  10.498  17.572  0.00  0.00    +0.000 NA
ATOM     14  C   UNL     1       9.485  11.410  18.187  0.00  0.00    +0.000 A 
ATOM     15  C   UNL     1       9.901  12.675  17.753  0.00  0.00    +0.000 A 
ATOM     16  H   UNL     1       9.481   9.058  20.280  0.00  0.00    +0.000 HD
BRANCH   7  18
ATOM     17  N   UNL     1      10.723  15.831  18.856  0.00  0.00    +0.000 N 
ATOM     18  C   UNL     1      11.236  14.760  18.181  0.00  0.00    +0.000 C 
ATOM     19  O   UNL     1      12.081  14.903  17.307  0.00  0.00    +0.000 OA
ATOM     20  H   UNL     1      11.116  16.737  18.640  0.00  0.00    +0.000 HD
ATOM     21  H   UNL     1      10.208  15.733  19.719  0.00  0.00    +0.000 HD
ENDBRANCH   7  18
ENDBRANCH   1  12
BRANCH   4  22
ATOM     22  S   UNL     1       5.470   4.339  17.498  0.00  0.00    +0.000 S 
ATOM     23  O   UNL     1       5.791   3.783  16.204  0.00  0.00    +0.000 OA
ATOM     24  O   UNL     1       5.593   3.568  18.717  0.00  0.00    +0.000 OA
BRANCH  22  25
ATOM     25  N   UNL     1       3.893   4.953  17.462  0.00  0.00    +0.000 NA
ATOM     26  H   UNL     1       3.383   4.618  16.645  0.00  0.00    +0.000 HD
BRANCH  25  27
ATOM     27  C   UNL     1       3.136   4.791  18.711  0.00  0.00    +0.000 C 
BRANCH  27  28
ATOM     28  C   UNL     1       2.578   6.104  19.213  0.00  0.00    +0.000 A 
ATOM     29  C   UNL     1       1.979   6.192  20.478  0.00  0.00    +0.000 A 
ATOM     30  C   UNL     1       1.394   7.387  20.907  0.00  0.00    +0.000 A 
ATOM     31  C   UNL     1       1.401   8.512  20.076  0.00  0.00    +0.000 A 
ATOM     32 CL   UNL     1       0.644   9.951  20.659  0.00  0.00    +0.000 Cl
ATOM     33  C   UNL     1       2.003   8.438  18.817  0.00  0.00    +0.000 A 
ATOM     34 CL   UNL     1       2.045   9.780  17.728  0.00  0.00    +0.000 Cl
ATOM     35  C   UNL     1       2.588   7.240  18.390  0.00  0.00    +0.000 A 
ENDBRANCH  27  28
ENDBRANCH  25  27
ENDBRANCH  22  25
ENDBRANCH   4  22
TORSDOF 6
ENDMDL
MODEL 4
REMARK VINA RESULT:      -8.6      5.807      8.723
REMARK  Name = 
REMARK  6 active torsions:
REMARK  status: ('A' for Active; 'I' for Inactive)
REMARK    1  A    between atoms: C_2  and  C_4
REMARK    2  A    between atoms: C_9  and  C_10
REMARK    3  A    between atoms: C_13  and  S_14
REMARK    4  A    between atoms: S_14  and  N_17
REMARK    5  A    between atoms: N_17  and  C_18
REMARK    6  A    between atoms: C_18  and  C_19
REMARK                            x       y       z     vdW  Elec       q    Type
REMARK                         _______ _______ _______ _____ _____    ______ ____
ROOT
ATOM      1  C   UNL     1       1.940   8.223  19.129  0.00  0.00    +0.000 A 
ATOM      2  C   UNL     1       1.446   9.407  18.559  0.00  0.00    +0.000 A 
ATOM      3  C   UNL     1       0.652  10.284  19.302  0.00  0.00    +0.000 A 
ATOM      4  C   UNL     1       0.332   9.979  20.625  0.00  0.00    +0.000 A 
ATOM      5  C   UNL     1       0.822   8.815  21.220  0.00  0.00    +0.000 A 
ATOM      6  C   UNL     1       1.614   7.938  20.466  0.00  0.00    +0.000 A 
ENDROOT
BRANCH   1  12
ATOM      7  C   UNL     1       5.585   4.912  15.742  0.00  0.00    +0.000 A 
ATOM      8  C   UNL     1       4.963   3.832  16.388  0.00  0.00    +0.000 A 
ATOM      9  C   UNL     1       3.978   4.036  17.360  0.00  0.00    +0.000 A 
ATOM     10  C   UNL     1       3.648   5.363  17.634  0.00  0.00    +0.000 A 
ATOM     11  N   UNL     1       2.740   5.925  18.491  0.00  0.00    +0.000 N 
ATOM     12  C   UNL     1       2.792   7.297  18.372  0.00  0.00    +0.000 A 
ATOM     13  N   UNL     1       3.706   7.630  17.475  0.00  0.00    +0.000 NA
ATOM     14  C   UNL     1       4.234   6.451  17.007  0.00  0.00    +0.000 A 
ATOM     15  C   UNL     1       5.222   6.236  16.038  0.00  0.00    +0.000 A 
ATOM     16  H   UNL     1       2.122   5.407  19.096  0.00  0.00    +0.000 HD
BRANCH   7  18
ATOM     17  N   UNL     1       6.371   3.577  13.870  0.00  0.00    +0.000 N 
ATOM     18  C   UNL     1       6.620   4.617  14.720  0.00  0.00    +0.000 C 
ATOM     19  O   UNL     1       7.633   5.295  14.617  0.00  0.00    +0.000 OA
ATOM     20  H   UNL     1       7.033   3.433  13.119  0.00  0.00    +0.000 HD
ATOM     21  H   UNL     1       5.459   3.153  13.782  0.00  0.00    +0.000 HD
ENDBRANCH   7  18
ENDBRANCH   1  12
BRANCH   4  22
ATOM     22  S   UNL     1      -0.618  11.152  21.568  0.00  0.00    +0.000 S 
ATOM     23  O   UNL     1      -1.669  11.665  20.718  0.00  0.00    +0.000 OA
ATOM     24  O   UNL     1      -0.897  10.536  22.847  0.00  0.00    +0.000 OA
BRANCH  22  25
ATOM     25  N   UNL     1       0.516  12.377  21.850  0.00  0.00    +0.000 NA
ATOM     26  H   UNL     1       1.470  12.021  21.789  0.00  0.00    +0.000 HD
BRANCH  25  27
ATOM     27  C   UNL     1       0.315  13.601  21.061  0.00  0.00    +0.000 C 
BRANCH  27  28
ATOM     28  C   UNL     1       1.535  13.957  20.242  0.00  0.00    +0.000 A 
ATOM     29  C   UNL     1       1.522  13.832  18.845  0.00  0.00    +0.000 A 
ATOM     30  C   UNL     1       2.677  14.086  18.098  0.00  0.00    +0.000 A 
ATOM     31  C   UNL     1       3.860  14.469  18.738  0.00  0.00    +0.000 A 
ATOM     32 CL   UNL     1       5.255  14.748  17.758  0.00  0.00    +0.000 Cl
ATOM     33  C   UNL     1       3.881  14.605  20.129  0.00  0.00    +0.000 A 
ATOM     34 CL   UNL     1       5.305  15.066  20.994  0.00  0.00    +0.000 Cl
ATOM     35  C   UNL     1       2.724  14.351  20.875  0.00  0.00    +0.000 A 
ENDBRANCH  27  28
ENDBRANCH  25  27
ENDBRANCH  22  25
ENDBRANCH   4  22
TORSDOF 6
ENDMDL
MODEL 5
REMARK VINA RESULT:      -8.5      6.596      9.370
REMARK  Name = 
REMARK  6 active torsions:
REMARK  status: ('A' for Active; 'I' for Inactive)
REMARK    1  A    between atoms: C_2  and  C_4
REMARK    2  A    between atoms: C_9  and  C_10
REMARK    3  A    between atoms: C_13  and  S_14
REMARK    4  A    between atoms: S_14  and  N_17
REMARK    5  A    between atoms: N_17  and  C_18
REMARK    6  A    between atoms: C_18  and  C_19
REMARK                            x       y       z     vdW  Elec       q    Type
REMARK                         _______ _______ _______ _____ _____    ______ ____
ROOT
ATOM      1  C   UNL     1       2.018   8.202  19.271  0.00  0.00    +0.000 A 
ATOM      2  C   UNL     1       1.678   7.918  20.603  0.00  0.00    +0.000 A 
ATOM      3  C   UNL     1       0.916   8.815  21.356  0.00  0.00    +0.000 A 
ATOM      4  C   UNL     1       0.493  10.016  20.785  0.00  0.00    +0.000 A 
ATOM      5  C   UNL     1       0.806  10.315  19.458  0.00  0.00    +0.000 A 
ATOM      6  C   UNL     1       1.575   9.412  18.712  0.00  0.00    +0.000 A 
ENDROOT
BRANCH   1  12
ATOM      7  C   UNL     1       5.415   4.847  15.676  0.00  0.00    +0.000 A 
ATOM      8  C   UNL     1       4.723   3.777  16.264  0.00  0.00    +0.000 A 
ATOM      9  C   UNL     1       3.757   3.992  17.254  0.00  0.00    +0.000 A 
ATOM     10  C   UNL     1       3.520   5.321  17.605  0.00  0.00    +0.000 A 
ATOM     11  N   UNL     1       2.656   5.894  18.498  0.00  0.00    +0.000 N 
ATOM     12  C   UNL     1       2.802   7.264  18.457  0.00  0.00    +0.000 A 
ATOM     13  N   UNL     1       3.734   7.584  17.574  0.00  0.00    +0.000 NA
ATOM     14  C   UNL     1       4.178   6.400  17.036  0.00  0.00    +0.000 A 
ATOM     15  C   UNL     1       5.146   6.173  16.049  0.00  0.00    +0.000 A 
ATOM     16  H   UNL     1       2.006   5.386  19.078  0.00  0.00    +0.000 HD
BRANCH   7  18
ATOM     17  N   UNL     1       7.588   5.254  14.667  0.00  0.00    +0.000 N 
ATOM     18  C   UNL     1       6.424   4.540  14.632  0.00  0.00    +0.000 C 
ATOM     19  O   UNL     1       6.240   3.663  13.798  0.00  0.00    +0.000 OA
ATOM     20  H   UNL     1       8.309   4.984  14.012  0.00  0.00    +0.000 HD
ATOM     21  H   UNL     1       7.860   5.811  15.465  0.00  0.00    +0.000 HD
ENDBRANCH   7  18
ENDBRANCH   1  12
BRANCH   4  22
ATOM     22  S   UNL     1      -0.540  11.102  21.744  0.00  0.00    +0.000 S 
ATOM     23  O   UNL     1      -1.089  10.344  22.845  0.00  0.00    +0.000 OA
ATOM     24  O   UNL     1       0.211  12.322  21.951  0.00  0.00    +0.000 OA
BRANCH  22  25
ATOM     25  N   UNL     1      -1.779  11.467  20.649  0.00  0.00    +0.000 NA
ATOM     26  H   UNL     1      -2.518  10.765  20.678  0.00  0.00    +0.000 HD
BRANCH  25  27
ATOM     27  C   UNL     1      -2.295  12.840  20.733  0.00  0.00    +0.000 C 
BRANCH  27  28
ATOM     28  C   UNL     1      -3.547  12.926  21.576  0.00  0.00    +0.000 A 
ATOM     29  C   UNL     1      -3.465  13.053  22.971  0.00  0.00    +0.000 A 
ATOM     30  C   UNL     1      -4.624  13.053  23.754  0.00  0.00    +0.000 A 
ATOM     31  C   UNL     1      -5.880  12.927  23.154  0.00  0.00    +0.000 A 
ATOM     32 CL   UNL     1      -7.269  12.914  24.181  0.00  0.00    +0.000 Cl
ATOM     33  C   UNL     1      -5.974  12.809  21.764  0.00  0.00    +0.000 A 
ATOM     34 CL   UNL     1      -7.488  12.640  20.948  0.00  0.00    +0.000 Cl
ATOM     35  C   UNL     1      -4.813  12.810  20.982  0.00  0.00    +0.000 A 
ENDBRANCH  27  28
ENDBRANCH  25  27
ENDBRANCH  22  25
ENDBRANCH   4  22
TORSDOF 6
ENDMDL
MODEL 6
REMARK VINA RESULT:      -8.4      6.865      9.940
REMARK  Name = 
REMARK  6 active torsions:
REMARK  status: ('A' for Active; 'I' for Inactive)
REMARK    1  A    between atoms: C_2  and  C_4
REMARK    2  A    between atoms: C_9  and  C_10
REMARK    3  A    between atoms: C_13  and  S_14
REMARK    4  A    between atoms: S_14  and  N_17
REMARK    5  A    between atoms: N_17  and  C_18
REMARK    6  A    between atoms: C_18  and  C_19
REMARK                            x       y       z     vdW  Elec       q    Type
REMARK                         _______ _______ _______ _____ _____    ______ ____
ROOT
ATOM      1  C   UNL     1       1.607   8.569  19.625  0.00  0.00    +0.000 A 
ATOM      2  C   UNL     1       0.818   9.259  20.559  0.00  0.00    +0.000 A 
ATOM      3  C   UNL     1       0.410  10.573  20.321  0.00  0.00    +0.000 A 
ATOM      4  C   UNL     1       0.796  11.219  19.146  0.00  0.00    +0.000 A 
ATOM      5  C   UNL     1       1.569  10.550  18.195  0.00  0.00    +0.000 A 
ATOM      6  C   UNL     1       1.979   9.234  18.444  0.00  0.00    +0.000 A 
ENDROOT
BRANCH   1  12
ATOM      7  C   UNL     1       3.643   2.965  20.041  0.00  0.00    +0.000 A 
ATOM      8  C   UNL     1       2.719   2.864  21.092  0.00  0.00    +0.000 A 
ATOM      9  C   UNL     1       1.928   3.954  21.472  0.00  0.00    +0.000 A 
ATOM     10  C   UNL     1       2.105   5.128  20.741  0.00  0.00    +0.000 A 
ATOM     11  N   UNL     1       1.505   6.357  20.818  0.00  0.00    +0.000 N 
ATOM     12  C   UNL     1       2.032   7.181  19.846  0.00  0.00    +0.000 A 
ATOM     13  N   UNL     1       2.950   6.523  19.158  0.00  0.00    +0.000 NA
ATOM     14  C   UNL     1       3.000   5.258  19.691  0.00  0.00    +0.000 A 
ATOM     15  C   UNL     1       3.789   4.162  19.321  0.00  0.00    +0.000 A 
ATOM     16  H   UNL     1       0.781   6.603  21.475  0.00  0.00    +0.000 HD
BRANCH   7  18
ATOM     17  N   UNL     1       4.184   1.173  18.491  0.00  0.00    +0.000 N 
ATOM     18  C   UNL     1       4.445   1.766  19.694  0.00  0.00    +0.000 C 
ATOM     19  O   UNL     1       5.327   1.346  20.432  0.00  0.00    +0.000 OA
ATOM     20  H   UNL     1       4.790   0.411  18.217  0.00  0.00    +0.000 HD
ATOM     21  H   UNL     1       3.634   1.622  17.772  0.00  0.00    +0.000 HD
ENDBRANCH   7  18
ENDBRANCH   1  12
BRANCH   4  22
ATOM     22  S   UNL     1       0.197  12.866  18.838  0.00  0.00    +0.000 S 
ATOM     23  O   UNL     1      -0.428  13.350  20.047  0.00  0.00    +0.000 OA
ATOM     24  O   UNL     1       1.268  13.588  18.185  0.00  0.00    +0.000 OA
BRANCH  22  25
ATOM     25  N   UNL     1      -0.996  12.593  17.668  0.00  0.00    +0.000 NA
ATOM     26  H   UNL     1      -0.621  12.699  16.725  0.00  0.00    +0.000 HD
BRANCH  25  27
ATOM     27  C   UNL     1      -1.760  11.349  17.840  0.00  0.00    +0.000 C 
BRANCH  27  28
ATOM     28  C   UNL     1      -3.226  11.614  18.096  0.00  0.00    +0.000 A 
ATOM     29  C   UNL     1      -4.174  11.442  17.077  0.00  0.00    +0.000 A 
ATOM     30  C   UNL     1      -5.518  11.763  17.294  0.00  0.00    +0.000 A 
ATOM     31  C   UNL     1      -5.932  12.260  18.534  0.00  0.00    +0.000 A 
ATOM     32 CL   UNL     1      -7.602  12.655  18.729  0.00  0.00    +0.000 Cl
ATOM     33  C   UNL     1      -4.997  12.427  19.559  0.00  0.00    +0.000 A 
ATOM     34 CL   UNL     1      -5.427  13.043  21.115  0.00  0.00    +0.000 Cl
ATOM     35  C   UNL     1      -3.653  12.104  19.340  0.00  0.00    +0.000 A 
ENDBRANCH  27  28
ENDBRANCH  25  27
ENDBRANCH  22  25
ENDBRANCH   4  22
TORSDOF 6
ENDMDL
MODEL 7
REMARK VINA RESULT:      -8.4      6.092      8.953
REMARK  Name = 
REMARK  6 active torsions:
REMARK  status: ('A' for Active; 'I' for Inactive)
REMARK    1  A    between atoms: C_2  and  C_4
REMARK    2  A    between atoms: C_9  and  C_10
REMARK    3  A    between atoms: C_13  and  S_14
REMARK    4  A    between atoms: S_14  and  N_17
REMARK    5  A    between atoms: N_17  and  C_18
REMARK    6  A    between atoms: C_18  and  C_19
REMARK                            x       y       z     vdW  Elec       q    Type
REMARK                         _______ _______ _______ _____ _____    ______ ____
ROOT
ATOM      1  C   UNL     1       2.007   8.241  19.204  0.00  0.00    +0.000 A 
ATOM      2  C   UNL     1       1.539   9.449  18.663  0.00  0.00    +0.000 A 
ATOM      3  C   UNL     1       0.793  10.340  19.438  0.00  0.00    +0.000 A 
ATOM      4  C   UNL     1       0.497  10.027  20.766  0.00  0.00    +0.000 A 
ATOM      5  C   UNL     1       0.964   8.839  21.332  0.00  0.00    +0.000 A 
ATOM      6  C   UNL     1       1.707   7.948  20.546  0.00  0.00    +0.000 A 
ENDROOT
BRANCH   1  12
ATOM      7  C   UNL     1       5.486   4.866  15.707  0.00  0.00    +0.000 A 
ATOM      8  C   UNL     1       4.775   3.800  16.281  0.00  0.00    +0.000 A 
ATOM      9  C   UNL     1       3.785   4.020  17.244  0.00  0.00    +0.000 A 
ATOM     10  C   UNL     1       3.543   5.351  17.585  0.00  0.00    +0.000 A 
ATOM     11  N   UNL     1       2.658   5.929  18.455  0.00  0.00    +0.000 N 
ATOM     12  C   UNL     1       2.809   7.299  18.413  0.00  0.00    +0.000 A 
ATOM     13  N   UNL     1       3.765   7.613  17.554  0.00  0.00    +0.000 NA
ATOM     14  C   UNL     1       4.219   6.427  17.031  0.00  0.00    +0.000 A 
ATOM     15  C   UNL     1       5.211   6.194  16.070  0.00  0.00    +0.000 A 
ATOM     16  H   UNL     1       1.992   5.425  19.018  0.00  0.00    +0.000 HD
BRANCH   7  18
ATOM     17  N   UNL     1       6.284   3.481  13.877  0.00  0.00    +0.000 N 
ATOM     18  C   UNL     1       6.520   4.553  14.690  0.00  0.00    +0.000 C 
ATOM     19  O   UNL     1       7.522   5.244  14.559  0.00  0.00    +0.000 OA
ATOM     20  H   UNL     1       6.945   3.322  13.128  0.00  0.00    +0.000 HD
ATOM     21  H   UNL     1       5.378   3.040  13.809  0.00  0.00    +0.000 HD
ENDBRANCH   7  18
ENDBRANCH   1  12
BRANCH   4  22
ATOM     22  S   UNL     1      -0.390  11.216  21.748  0.00  0.00    +0.000 S 
ATOM     23  O   UNL     1      -1.613  11.549  21.055  0.00  0.00    +0.000 OA
ATOM     24  O   UNL     1      -0.387  10.724  23.109  0.00  0.00    +0.000 OA
BRANCH  22  25
ATOM     25  N   UNL     1       0.651  12.552  21.707  0.00  0.00    +0.000 NA
ATOM     26  H   UNL     1       1.445  12.384  21.089  0.00  0.00    +0.000 HD
BRANCH  25  27
ATOM     27  C   UNL     1      -0.006  13.841  21.452  0.00  0.00    +0.000 C 
BRANCH  27  28
ATOM     28  C   UNL     1       0.734  14.663  20.421  0.00  0.00    +0.000 A 
ATOM     29  C   UNL     1       0.062  15.625  19.653  0.00  0.00    +0.000 A 
ATOM     30  C   UNL     1       0.732  16.326  18.646  0.00  0.00    +0.000 A 
ATOM     31  C   UNL     1       2.084  16.076  18.394  0.00  0.00    +0.000 A 
ATOM     32 CL   UNL     1       2.846  16.963  17.122  0.00  0.00    +0.000 Cl
ATOM     33  C   UNL     1       2.766  15.126  19.159  0.00  0.00    +0.000 A 
ATOM     34 CL   UNL     1       4.434  14.753  18.903  0.00  0.00    +0.000 Cl
ATOM     35  C   UNL     1       2.094  14.425  20.167  0.00  0.00    +0.000 A 
ENDBRANCH  27  28
ENDBRANCH  25  27
ENDBRANCH  22  25
ENDBRANCH   4  22
TORSDOF 6
ENDMDL
MODEL 8
REMARK VINA RESULT:      -8.3      6.527      9.366
REMARK  Name = 
REMARK  6 active torsions:
REMARK  status: ('A' for Active; 'I' for Inactive)
REMARK    1  A    between atoms: C_2  and  C_4
REMARK    2  A    between atoms: C_9  and  C_10
REMARK    3  A    between atoms: C_13  and  S_14
REMARK    4  A    between atoms: S_14  and  N_17
REMARK    5  A    between atoms: N_17  and  C_18
REMARK    6  A    between atoms: C_18  and  C_19
REMARK                            x       y       z     vdW  Elec       q    Type
REMARK                         _______ _______ _______ _____ _____    ______ ____
ROOT
ATOM      1  C   UNL     1       1.983   8.193  19.175  0.00  0.00    +0.000 A 
ATOM      2  C   UNL     1       1.480   9.378  18.616  0.00  0.00    +0.000 A 
ATOM      3  C   UNL     1       0.705  10.257  19.377  0.00  0.00    +0.000 A 
ATOM      4  C   UNL     1       0.414   9.953  20.707  0.00  0.00    +0.000 A 
ATOM      5  C   UNL     1       0.914   8.788  21.290  0.00  0.00    +0.000 A 
ATOM      6  C   UNL     1       1.686   7.909  20.519  0.00  0.00    +0.000 A 
ENDROOT
BRANCH   1  12
ATOM      7  C   UNL     1       5.553   4.874  15.717  0.00  0.00    +0.000 A 
ATOM      8  C   UNL     1       4.922   3.795  16.354  0.00  0.00    +0.000 A 
ATOM      9  C   UNL     1       3.948   4.000  17.337  0.00  0.00    +0.000 A 
ATOM     10  C   UNL     1       3.638   5.328  17.631  0.00  0.00    +0.000 A 
ATOM     11  N   UNL     1       2.745   5.892  18.502  0.00  0.00    +0.000 N 
ATOM     12  C   UNL     1       2.816   7.265  18.399  0.00  0.00    +0.000 A 
ATOM     13  N   UNL     1       3.728   7.596  17.500  0.00  0.00    +0.000 NA
ATOM     14  C   UNL     1       4.235   6.416  17.013  0.00  0.00    +0.000 A 
ATOM     15  C   UNL     1       5.212   6.198  16.032  0.00  0.00    +0.000 A 
ATOM     16  H   UNL     1       2.125   5.375  19.105  0.00  0.00    +0.000 HD
BRANCH   7  18
ATOM     17  N   UNL     1       6.299   3.560  13.813  0.00  0.00    +0.000 N 
ATOM     18  C   UNL     1       6.575   4.577  14.683  0.00  0.00    +0.000 C 
ATOM     19  O   UNL     1       7.603   5.235  14.587  0.00  0.00    +0.000 OA
ATOM     20  H   UNL     1       6.954   3.417  13.056  0.00  0.00    +0.000 HD
ATOM     21  H   UNL     1       5.377   3.158  13.723  0.00  0.00    +0.000 HD
ENDBRANCH   7  18
ENDBRANCH   1  12
BRANCH   4  22
ATOM     22  S   UNL     1      -0.512  11.129  21.670  0.00  0.00    +0.000 S 
ATOM     23  O   UNL     1      -1.125  10.423  22.772  0.00  0.00    +0.000 OA
ATOM     24  O   UNL     1       0.348  12.275  21.875  0.00  0.00    +0.000 OA
BRANCH  22  25
ATOM     25  N   UNL     1      -1.716  11.607  20.579  0.00  0.00    +0.000 NA
ATOM     26  H   UNL     1      -2.534  11.001  20.642  0.00  0.00    +0.000 HD
BRANCH  25  27
ATOM     27  C   UNL     1      -2.060  13.035  20.623  0.00  0.00    +0.000 C 
BRANCH  27  28
ATOM     28  C   UNL     1      -3.250  13.306  21.516  0.00  0.00    +0.000 A 
ATOM     29  C   UNL     1      -4.491  12.706  21.257  0.00  0.00    +0.000 A 
ATOM     30  C   UNL     1      -5.608  13.021  22.038  0.00  0.00    +0.000 A 
ATOM     31  C   UNL     1      -5.499  13.939  23.087  0.00  0.00    +0.000 A 
ATOM     32 CL   UNL     1      -6.923  14.296  23.998  0.00  0.00    +0.000 Cl
ATOM     33  C   UNL     1      -4.265  14.535  23.358  0.00  0.00    +0.000 A 
ATOM     34 CL   UNL     1      -4.050  15.685  24.631  0.00  0.00    +0.000 Cl
ATOM     35  C   UNL     1      -3.148  14.218  22.577  0.00  0.00    +0.000 A 
ENDBRANCH  27  28
ENDBRANCH  25  27
ENDBRANCH  22  25
ENDBRANCH   4  22
TORSDOF 6
ENDMDL
MODEL 9
REMARK VINA RESULT:      -8.3      3.925      8.842
REMARK  Name = 
REMARK  6 active torsions:
REMARK  status: ('A' for Active; 'I' for Inactive)
REMARK    1  A    between atoms: C_2  and  C_4
REMARK    2  A    between atoms: C_9  and  C_10
REMARK    3  A    between atoms: C_13  and  S_14
REMARK    4  A    between atoms: S_14  and  N_17
REMARK    5  A    between atoms: N_17  and  C_18
REMARK    6  A    between atoms: C_18  and  C_19
REMARK                            x       y       z     vdW  Elec       q    Type
REMARK                         _______ _______ _______ _____ _____    ______ ____
ROOT
ATOM      1  C   UNL     1       8.838  10.292  18.407  0.00  0.00    +0.000 A 
ATOM      2  C   UNL     1       8.363  11.407  17.699  0.00  0.00    +0.000 A 
ATOM      3  C   UNL     1       8.899  12.678  17.921  0.00  0.00    +0.000 A 
ATOM      4  C   UNL     1       9.912  12.850  18.865  0.00  0.00    +0.000 A 
ATOM      5  C   UNL     1      10.411  11.755  19.572  0.00  0.00    +0.000 A 
ATOM      6  C   UNL     1       9.865  10.484  19.347  0.00  0.00    +0.000 A 
ENDROOT
BRANCH   1  12
ATOM      7  C   UNL     1       6.310   5.043  17.070  0.00  0.00    +0.000 A 
ATOM      8  C   UNL     1       7.039   4.578  18.176  0.00  0.00    +0.000 A 
ATOM      9  C   UNL     1       7.875   5.429  18.906  0.00  0.00    +0.000 A 
ATOM     10  C   UNL     1       7.928   6.756  18.479  0.00  0.00    +0.000 A 
ATOM     11  N   UNL     1       8.607   7.847  18.953  0.00  0.00    +0.000 N 
ATOM     12  C   UNL     1       8.303   8.944  18.175  0.00  0.00    +0.000 A 
ATOM     13  N   UNL     1       7.460   8.590  17.220  0.00  0.00    +0.000 NA
ATOM     14  C   UNL     1       7.214   7.250  17.399  0.00  0.00    +0.000 A 
ATOM     15  C   UNL     1       6.382   6.388  16.673  0.00  0.00    +0.000 A 
ATOM     16  H   UNL     1       9.217   7.841  19.755  0.00  0.00    +0.000 HD
BRANCH   7  18
ATOM     17  N   UNL     1       6.052   3.261  15.439  0.00  0.00    +0.000 N 
ATOM     18  C   UNL     1       5.443   4.081  16.346  0.00  0.00    +0.000 C 
ATOM     19  O   UNL     1       4.243   3.998  16.576  0.00  0.00    +0.000 OA
ATOM     20  H   UNL     1       5.477   2.547  15.012  0.00  0.00    +0.000 HD
ATOM     21  H   UNL     1       7.054   3.149  15.395  0.00  0.00    +0.000 HD
ENDBRANCH   7  18
ENDBRANCH   1  12
BRANCH   4  22
ATOM     22  S   UNL     1      10.625  14.467  19.070  0.00  0.00    +0.000 S 
ATOM     23  O   UNL     1      11.958  14.306  19.603  0.00  0.00    +0.000 OA
ATOM     24  O   UNL     1      10.370  15.197  17.846  0.00  0.00    +0.000 OA
BRANCH  22  25
ATOM     25  N   UNL     1       9.629  15.143  20.261  0.00  0.00    +0.000 NA
ATOM     26  H   UNL     1       8.648  14.916  20.096  0.00  0.00    +0.000 HD
BRANCH  25  27
ATOM     27  C   UNL     1      10.049  14.877  21.644  0.00  0.00    +0.000 C 
BRANCH  27  28
ATOM     28  C   UNL     1       9.043  14.033  22.392  0.00  0.00    +0.000 A 
ATOM     29  C   UNL     1       9.189  12.640  22.464  0.00  0.00    +0.000 A 
ATOM     30  C   UNL     1       8.215  11.854  23.089  0.00  0.00    +0.000 A 
ATOM     31  C   UNL     1       7.082  12.451  23.651  0.00  0.00    +0.000 A 
ATOM     32 CL   UNL     1       5.909  11.420  24.390  0.00  0.00    +0.000 Cl
ATOM     33  C   UNL     1       6.931  13.839  23.592  0.00  0.00    +0.000 A 
ATOM     34 CL   UNL     1       5.556  14.651  24.254  0.00  0.00    +0.000 Cl
ATOM     35  C   UNL     1       7.907  14.623  22.967  0.00  0.00    +0.000 A 
ENDBRANCH  27  28
ENDBRANCH  25  27
ENDBRANCH  22  25
ENDBRANCH   4  22
TORSDOF 6
ENDMDL
