MODEL 1
REMARK VINA RESULT:     -10.0      0.000      0.000
REMARK  Name = 
REMARK  6 active torsions:
REMARK  status: ('A' for Active; 'I' for Inactive)
REMARK    1  A    between atoms: C_1  and  C_2
REMARK    2  A    between atoms: C_9  and  C_10
REMARK    3  A    between atoms: C_10  and  C_11
REMARK    4  A    between atoms: C_11  and  N_12
REMARK    5  A    between atoms: C_15  and  C_16
REMARK    6  A    between atoms: N_24  and  C_25
REMARK                            x       y       z     vdW  Elec       q    Type
REMARK                         _______ _______ _______ _____ _____    ______ ____
ROOT
ATOM      1  C   UNL     1       7.064   4.713  14.422  0.00  0.00    +0.000 C 
ATOM      2  C   UNL     1       6.001   4.925  15.452  0.00  0.00    +0.000 A 
ATOM      3  C   UNL     1       5.394   3.802  16.035  0.00  0.00    +0.000 A 
ATOM      4  C   UNL     1       4.384   3.953  16.983  0.00  0.00    +0.000 A 
ATOM      5  C   UNL     1       4.012   5.254  17.411  0.00  0.00    +0.000 A 
ATOM      6  C   UNL     1       4.540   6.387  16.818  0.00  0.00    +0.000 A 
ATOM      7  C   UNL     1       5.552   6.201  15.835  0.00  0.00    +0.000 A 
ATOM      8  N   UNL     1       3.916   7.539  17.298  0.00  0.00    +0.000 NA
ATOM      9  C   UNL     1       3.014   7.153  18.198  0.00  0.00    +0.000 A 
ATOM     10  N   UNL     1       3.086   5.734  18.352  0.00  0.00    +0.000 N 
ENDROOT
BRANCH  10  11
ATOM     11  C   UNL     1       2.343   4.840  19.197  0.00  0.00    +0.000 A 
ATOM     12  C   UNL     1       1.428   3.937  18.663  0.00  0.00    +0.000 A 
ATOM     13  C   UNL     1       0.856   2.948  19.486  0.00  0.00    +0.000 A 
ATOM     14  C   UNL     1       1.181   2.862  20.840  0.00  0.00    +0.000 A 
ATOM     15  C   UNL     1       2.077   3.771  21.389  0.00  0.00    +0.000 A 
ATOM     16  C   UNL     1       2.641   4.760  20.576  0.00  0.00    +0.000 A 
ENDBRANCH  10  11
BRANCH   9  17
ATOM     17  C   UNL     1       2.049   8.092  18.990  0.00  0.00    +0.000 C 
BRANCH  17  18
ATOM     18  C   UNL     1       1.523   9.521  18.393  0.00  0.00    +0.000 C 
BRANCH  18  19
ATOM     19  N   UNL     1       0.871  10.440  19.328  0.00  0.00    +0.000 N 
ATOM     20  C   UNL     1       0.631  11.700  18.825  0.00  0.00    +0.000 A 
ATOM     21  O   UNL     1       1.367  12.452  18.218  0.00  0.00    +0.000 OA
ATOM     22  C   UNL     1      -0.742  12.114  19.273  0.00  0.00    +0.000 A 
ATOM     23  C   UNL     1      -1.871  11.208  18.783  0.00  0.00    +0.000 C 
ATOM     24  N   UNL     1      -0.722  12.552  20.493  0.00  0.00    +0.000 NA
ATOM     25  C   UNL     1      -0.205  11.496  21.314  0.00  0.00    +0.000 A 
ATOM     26  C   UNL     1      -0.648  11.561  22.625  0.00  0.00    +0.000 A 
ATOM     27  C   UNL     1      -0.940  10.366  23.238  0.00  0.00    +0.000 A 
ATOM     28  C   UNL     1      -0.612   9.194  22.543  0.00  0.00    +0.000 A 
ATOM     29  N   UNL     1       0.094   9.093  21.348  0.00  0.00    +0.000 NA
ATOM     30  C   UNL     1       0.312  10.249  20.708  0.00  0.00    +0.000 A 
ENDBRANCH  18  19
ENDBRANCH  17  18
ENDBRANCH   9  17
TORSDOF 4
ENDMDL
MODEL 2
REMARK VINA RESULT:      -9.7      1.428      2.403
REMARK  Name = 
REMARK  6 active torsions:
REMARK  status: ('A' for Active; 'I' for Inactive)
REMARK    1  A    between atoms: C_1  and  C_2
REMARK    2  A    between atoms: C_9  and  C_10
REMARK    3  A    between atoms: C_10  and  C_11
REMARK    4  A    between atoms: C_11  and  N_12
REMARK    5  A    between atoms: C_15  and  C_16
REMARK    6  A    between atoms: N_24  and  C_25
REMARK                            x       y       z     vdW  Elec       q    Type
REMARK                         _______ _______ _______ _____ _____    ______ ____
ROOT
ATOM      1  C   UNL     1       7.249   4.790  14.740  0.00  0.00    +0.000 C 
ATOM      2  C   UNL     1       6.121   4.990  15.701  0.00  0.00    +0.000 A 
ATOM      3  C   UNL     1       5.552   3.864  16.316  0.00  0.00    +0.000 A 
ATOM      4  C   UNL     1       4.485   4.001  17.201  0.00  0.00    +0.000 A 
ATOM      5  C   UNL     1       4.012   5.298  17.533  0.00  0.00    +0.000 A 
ATOM      6  C   UNL     1       4.501   6.428  16.903  0.00  0.00    +0.000 A 
ATOM      7  C   UNL     1       5.575   6.253  15.986  0.00  0.00    +0.000 A 
ATOM      8  N   UNL     1       3.784   7.563  17.284  0.00  0.00    +0.000 NA
ATOM      9  C   UNL     1       2.859   7.170  18.158  0.00  0.00    +0.000 A 
ATOM     10  N   UNL     1       3.008   5.769  18.397  0.00  0.00    +0.000 N 
ENDROOT
BRANCH  10  11
ATOM     11  C   UNL     1       2.276   4.877  19.253  0.00  0.00    +0.000 A 
ATOM     12  C   UNL     1       1.364   3.964  18.732  0.00  0.00    +0.000 A 
ATOM     13  C   UNL     1       0.803   2.977  19.566  0.00  0.00    +0.000 A 
ATOM     14  C   UNL     1       1.136   2.903  20.919  0.00  0.00    +0.000 A 
ATOM     15  C   UNL     1       2.030   3.823  21.455  0.00  0.00    +0.000 A 
ATOM     16  C   UNL     1       2.583   4.809  20.630  0.00  0.00    +0.000 A 
ENDBRANCH  10  11
BRANCH   9  17
ATOM     17  C   UNL     1       1.797   8.087  18.843  0.00  0.00    +0.000 C 
BRANCH  17  18
ATOM     18  C   UNL     1       1.596   9.658  18.437  0.00  0.00    +0.000 C 
BRANCH  18  19
ATOM     19  N   UNL     1       0.318  10.284  18.788  0.00  0.00    +0.000 N 
ATOM     20  C   UNL     1       0.369  11.127  19.876  0.00  0.00    +0.000 A 
ATOM     21  O   UNL     1       0.868  10.959  20.971  0.00  0.00    +0.000 OA
ATOM     22  C   UNL     1      -0.452  12.341  19.549  0.00  0.00    +0.000 A 
ATOM     23  C   UNL     1       0.038  13.135  18.339  0.00  0.00    +0.000 C 
ATOM     24  N   UNL     1      -1.715  12.111  19.726  0.00  0.00    +0.000 NA
ATOM     25  C   UNL     1      -2.066  11.004  18.883  0.00  0.00    +0.000 A 
ATOM     26  C   UNL     1      -3.401  11.008  18.511  0.00  0.00    +0.000 A 
ATOM     27  C   UNL     1      -3.683  10.620  17.222  0.00  0.00    +0.000 A 
ATOM     28  C   UNL     1      -2.623  10.106  16.463  0.00  0.00    +0.000 A 
ATOM     29  N   UNL     1      -1.332   9.823  16.901  0.00  0.00    +0.000 NA
ATOM     30  C   UNL     1      -1.029  10.270  18.126  0.00  0.00    +0.000 A 
ENDBRANCH  18  19
ENDBRANCH  17  18
ENDBRANCH   9  17
TORSDOF 4
ENDMDL
MODEL 3
REMARK VINA RESULT:      -9.3      0.873      1.244
REMARK  Name = 
REMARK  6 active torsions:
REMARK  status: ('A' for Active; 'I' for Inactive)
REMARK    1  A    between atoms: C_1  and  C_2
REMARK    2  A    between atoms: C_9  and  C_10
REMARK    3  A    between atoms: C_10  and  C_11
REMARK    4  A    between atoms: C_11  and  N_12
REMARK    5  A    between atoms: C_15  and  C_16
REMARK    6  A    between atoms: N_24  and  C_25
REMARK                            x       y       z     vdW  Elec       q    Type
REMARK                         _______ _______ _______ _____ _____    ______ ____
ROOT
ATOM      1  C   UNL     1       7.583   4.852  13.656  0.00  0.00    +0.000 C 
ATOM      2  C   UNL     1       6.545   4.901  14.732  0.00  0.00    +0.000 A 
ATOM      3  C   UNL     1       5.999   3.695  15.196  0.00  0.00    +0.000 A 
ATOM      4  C   UNL     1       5.014   3.694  16.183  0.00  0.00    +0.000 A 
ATOM      5  C   UNL     1       4.607   4.922  16.767  0.00  0.00    +0.000 A 
ATOM      6  C   UNL     1       5.073   6.136  16.296  0.00  0.00    +0.000 A 
ATOM      7  C   UNL     1       6.061   6.105  15.272  0.00  0.00    +0.000 A 
ATOM      8  N   UNL     1       4.422   7.199  16.922  0.00  0.00    +0.000 NA
ATOM      9  C   UNL     1       3.563   6.676  17.795  0.00  0.00    +0.000 A 
ATOM     10  N   UNL     1       3.693   5.253  17.782  0.00  0.00    +0.000 N 
ENDROOT
BRANCH  10  11
ATOM     11  C   UNL     1       3.010   4.238  18.537  0.00  0.00    +0.000 A 
ATOM     12  C   UNL     1       3.507   3.793  19.759  0.00  0.00    +0.000 A 
ATOM     13  C   UNL     1       2.727   2.942  20.565  0.00  0.00    +0.000 A 
ATOM     14  C   UNL     1       1.461   2.522  20.156  0.00  0.00    +0.000 A 
ATOM     15  C   UNL     1       0.963   2.944  18.929  0.00  0.00    +0.000 A 
ATOM     16  C   UNL     1       1.739   3.784  18.121  0.00  0.00    +0.000 A 
ENDBRANCH  10  11
BRANCH   9  17
ATOM     17  C   UNL     1       2.588   7.478  18.715  0.00  0.00    +0.000 C 
BRANCH  17  18
ATOM     18  C   UNL     1       1.607   8.655  18.146  0.00  0.00    +0.000 C 
BRANCH  18  19
ATOM     19  N   UNL     1       1.220   9.716  19.079  0.00  0.00    +0.000 N 
ATOM     20  C   UNL     1       1.374  10.996  18.593  0.00  0.00    +0.000 A 
ATOM     21  O   UNL     1       2.318  11.506  18.022  0.00  0.00    +0.000 OA
ATOM     22  C   UNL     1       0.167  11.788  19.006  0.00  0.00    +0.000 A 
ATOM     23  C   UNL     1      -1.159  11.257  18.466  0.00  0.00    +0.000 C 
ATOM     24  N   UNL     1       0.272  12.190  20.235  0.00  0.00    +0.000 NA
ATOM     25  C   UNL     1       0.430  11.021  21.050  0.00  0.00    +0.000 A 
ATOM     26  C   UNL     1      -0.019  11.201  22.349  0.00  0.00    +0.000 A 
ATOM     27  C   UNL     1      -0.669  10.137  22.930  0.00  0.00    +0.000 A 
ATOM     28  C   UNL     1      -0.673   8.927  22.223  0.00  0.00    +0.000 A 
ATOM     29  N   UNL     1       0.014   8.636  21.048  0.00  0.00    +0.000 NA
ATOM     30  C   UNL     1       0.581   9.684  20.437  0.00  0.00    +0.000 A 
ENDBRANCH  18  19
ENDBRANCH  17  18
ENDBRANCH   9  17
TORSDOF 4
ENDMDL
MODEL 4
REMARK VINA RESULT:      -9.2      0.813      1.286
REMARK  Name = 
REMARK  6 active torsions:
REMARK  status: ('A' for Active; 'I' for Inactive)
REMARK    1  A    between atoms: C_1  and  C_2
REMARK    2  A    between atoms: C_9  and  C_10
REMARK    3  A    between atoms: C_10  and  C_11
REMARK    4  A    between atoms: C_11  and  N_12
REMARK    5  A    between atoms: C_15  and  C_16
REMARK    6  A    between atoms: N_24  and  C_25
REMARK                            x       y       z     vdW  Elec       q    Type
REMARK                         _______ _______ _______ _____ _____    ______ ____
ROOT
ATOM      1  C   UNL     1       7.030   5.163  14.453  0.00  0.00    +0.000 C 
ATOM      2  C   UNL     1       5.957   5.209  15.494  0.00  0.00    +0.000 A 
ATOM      3  C   UNL     1       5.570   4.012  16.115  0.00  0.00    +0.000 A 
ATOM      4  C   UNL     1       4.560   4.004  17.076  0.00  0.00    +0.000 A 
ATOM      5  C   UNL     1       3.964   5.228  17.475  0.00  0.00    +0.000 A 
ATOM      6  C   UNL     1       4.271   6.421  16.845  0.00  0.00    +0.000 A 
ATOM      7  C   UNL     1       5.290   6.393  15.852  0.00  0.00    +0.000 A 
ATOM      8  N   UNL     1       3.455   7.455  17.306  0.00  0.00    +0.000 NA
ATOM      9  C   UNL     1       2.648   6.938  18.230  0.00  0.00    +0.000 A 
ATOM     10  N   UNL     1       2.977   5.560  18.419  0.00  0.00    +0.000 N 
ENDROOT
BRANCH  10  11
ATOM     11  C   UNL     1       2.417   4.571  19.299  0.00  0.00    +0.000 A 
ATOM     12  C   UNL     1       2.766   4.523  20.645  0.00  0.00    +0.000 A 
ATOM     13  C   UNL     1       2.067   3.673  21.522  0.00  0.00    +0.000 A 
ATOM     14  C   UNL     1       1.030   2.860  21.063  0.00  0.00    +0.000 A 
ATOM     15  C   UNL     1       0.686   2.883  19.717  0.00  0.00    +0.000 A 
ATOM     16  C   UNL     1       1.385   3.722  18.841  0.00  0.00    +0.000 A 
ENDBRANCH  10  11
BRANCH   9  17
ATOM     17  C   UNL     1       1.538   7.709  19.013  0.00  0.00    +0.000 C 
BRANCH  17  18
ATOM     18  C   UNL     1       1.878   8.753  20.225  0.00  0.00    +0.000 C 
BRANCH  18  19
ATOM     19  N   UNL     1       1.120  10.006  20.263  0.00  0.00    +0.000 N 
ATOM     20  C   UNL     1       1.125  10.719  19.085  0.00  0.00    +0.000 A 
ATOM     21  O   UNL     1       2.052  11.016  18.356  0.00  0.00    +0.000 OA
ATOM     22  C   UNL     1      -0.266  11.236  18.860  0.00  0.00    +0.000 A 
ATOM     23  C   UNL     1      -1.335  10.152  18.727  0.00  0.00    +0.000 C 
ATOM     24  N   UNL     1      -0.485  12.305  19.562  0.00  0.00    +0.000 NA
ATOM     25  C   UNL     1      -0.276  11.958  20.937  0.00  0.00    +0.000 A 
ATOM     26  C   UNL     1      -1.001  12.751  21.813  0.00  0.00    +0.000 A 
ATOM     27  C   UNL     1      -1.542  12.123  22.910  0.00  0.00    +0.000 A 
ATOM     28  C   UNL     1      -1.178  10.787  23.126  0.00  0.00    +0.000 A 
ATOM     29  N   UNL     1      -0.229  10.048  22.425  0.00  0.00    +0.000 NA
ATOM     30  C   UNL     1       0.242  10.624  21.312  0.00  0.00    +0.000 A 
ENDBRANCH  18  19
ENDBRANCH  17  18
ENDBRANCH   9  17
TORSDOF 4
ENDMDL
MODEL 5
REMARK VINA RESULT:      -9.0      1.335      2.005
REMARK  Name = 
REMARK  6 active torsions:
REMARK  status: ('A' for Active; 'I' for Inactive)
REMARK    1  A    between atoms: C_1  and  C_2
REMARK    2  A    between atoms: C_9  and  C_10
REMARK    3  A    between atoms: C_10  and  C_11
REMARK    4  A    between atoms: C_11  and  N_12
REMARK    5  A    between atoms: C_15  and  C_16
REMARK    6  A    between atoms: N_24  and  C_25
REMARK                            x       y       z     vdW  Elec       q    Type
REMARK                         _______ _______ _______ _____ _____    ______ ____
ROOT
ATOM      1  C   UNL     1       7.232   4.582  14.442  0.00  0.00    +0.000 C 
ATOM      2  C   UNL     1       6.136   4.887  15.412  0.00  0.00    +0.000 A 
ATOM      3  C   UNL     1       5.514   3.822  16.082  0.00  0.00    +0.000 A 
ATOM      4  C   UNL     1       4.474   4.058  16.979  0.00  0.00    +0.000 A 
ATOM      5  C   UNL     1       4.084   5.392  17.266  0.00  0.00    +0.000 A 
ATOM      6  C   UNL     1       4.627   6.465  16.582  0.00  0.00    +0.000 A 
ATOM      7  C   UNL     1       5.671   6.191  15.656  0.00  0.00    +0.000 A 
ATOM      8  N   UNL     1       3.984   7.655  16.929  0.00  0.00    +0.000 NA
ATOM      9  C   UNL     1       3.055   7.353  17.833  0.00  0.00    +0.000 A 
ATOM     10  N   UNL     1       3.126   5.956  18.126  0.00  0.00    +0.000 N 
ENDROOT
BRANCH  10  11
ATOM     11  C   UNL     1       2.360   5.144  19.030  0.00  0.00    +0.000 A 
ATOM     12  C   UNL     1       1.432   4.219  18.559  0.00  0.00    +0.000 A 
ATOM     13  C   UNL     1       0.834   3.307  19.450  0.00  0.00    +0.000 A 
ATOM     14  C   UNL     1       1.146   3.319  20.810  0.00  0.00    +0.000 A 
ATOM     15  C   UNL     1       2.055   4.251  21.295  0.00  0.00    +0.000 A 
ATOM     16  C   UNL     1       2.645   5.164  20.414  0.00  0.00    +0.000 A 
ENDBRANCH  10  11
BRANCH   9  17
ATOM     17  C   UNL     1       2.062   8.358  18.498  0.00  0.00    +0.000 C 
BRANCH  17  18
ATOM     18  C   UNL     1       2.032   9.949  18.119  0.00  0.00    +0.000 C 
BRANCH  18  19
ATOM     19  N   UNL     1       0.975  10.763  18.723  0.00  0.00    +0.000 N 
ATOM     20  C   UNL     1      -0.290  10.224  18.634  0.00  0.00    +0.000 A 
ATOM     21  O   UNL     1      -0.868   9.743  17.679  0.00  0.00    +0.000 OA
ATOM     22  C   UNL     1      -0.971  10.440  19.955  0.00  0.00    +0.000 A 
ATOM     23  C   UNL     1      -0.279   9.774  21.144  0.00  0.00    +0.000 C 
ATOM     24  N   UNL     1      -1.438  11.646  20.046  0.00  0.00    +0.000 NA
ATOM     25  C   UNL     1      -0.332  12.543  19.880  0.00  0.00    +0.000 A 
ATOM     26  C   UNL     1      -0.525  13.764  20.506  0.00  0.00    +0.000 A 
ATOM     27  C   UNL     1       0.572  14.324  21.117  0.00  0.00    +0.000 A 
ATOM     28  C   UNL     1       1.808  13.695  20.914  0.00  0.00    +0.000 A 
ATOM     29  N   UNL     1       2.081  12.631  20.058  0.00  0.00    +0.000 NA
ATOM     30  C   UNL     1       1.010  12.033  19.523  0.00  0.00    +0.000 A 
ENDBRANCH  18  19
ENDBRANCH  17  18
ENDBRANCH   9  17
TORSDOF 4
ENDMDL
MODEL 6
REMARK VINA RESULT:      -8.8      1.363      2.525
REMARK  Name = 
REMARK  6 active torsions:
REMARK  status: ('A' for Active; 'I' for Inactive)
REMARK    1  A    between atoms: C_1  and  C_2
REMARK    2  A    between atoms: C_9  and  C_10
REMARK    3  A    between atoms: C_10  and  C_11
REMARK    4  A    between atoms: C_11  and  N_12
REMARK    5  A    between atoms: C_15  and  C_16
REMARK    6  A    between atoms: N_24  and  C_25
REMARK                            x       y       z     vdW  Elec       q    Type
REMARK                         _______ _______ _______ _____ _____    ______ ____
ROOT
ATOM      1  C   UNL     1       7.253   4.819  14.242  0.00  0.00    +0.000 C 
ATOM      2  C   UNL     1       6.182   5.019  15.266  0.00  0.00    +0.000 A 
ATOM      3  C   UNL     1       5.670   3.895  15.933  0.00  0.00    +0.000 A 
ATOM      4  C   UNL     1       4.656   4.032  16.880  0.00  0.00    +0.000 A 
ATOM      5  C   UNL     1       4.183   5.326  17.218  0.00  0.00    +0.000 A 
ATOM      6  C   UNL     1       4.614   6.453  16.541  0.00  0.00    +0.000 A 
ATOM      7  C   UNL     1       5.633   6.278  15.563  0.00  0.00    +0.000 A 
ATOM      8  N   UNL     1       3.902   7.583  16.945  0.00  0.00    +0.000 NA
ATOM      9  C   UNL     1       3.039   7.191  17.880  0.00  0.00    +0.000 A 
ATOM     10  N   UNL     1       3.226   5.797  18.133  0.00  0.00    +0.000 N 
ENDROOT
BRANCH  10  11
ATOM     11  C   UNL     1       2.562   4.909  19.047  0.00  0.00    +0.000 A 
ATOM     12  C   UNL     1       2.817   4.959  20.415  0.00  0.00    +0.000 A 
ATOM     13  C   UNL     1       2.020   4.215  21.306  0.00  0.00    +0.000 A 
ATOM     14  C   UNL     1       0.978   3.411  20.841  0.00  0.00    +0.000 A 
ATOM     15  C   UNL     1       0.728   3.337  19.476  0.00  0.00    +0.000 A 
ATOM     16  C   UNL     1       1.522   4.070  18.587  0.00  0.00    +0.000 A 
ENDBRANCH  10  11
BRANCH   9  17
ATOM     17  C   UNL     1       2.006   8.104  18.614  0.00  0.00    +0.000 C 
BRANCH  17  18
ATOM     18  C   UNL     1       1.206   9.313  17.858  0.00  0.00    +0.000 C 
BRANCH  18  19
ATOM     19  N   UNL     1       0.690  10.401  18.693  0.00  0.00    +0.000 N 
ATOM     20  C   UNL     1      -0.416  10.074  19.447  0.00  0.00    +0.000 A 
ATOM     21  O   UNL     1      -1.441   9.507  19.125  0.00  0.00    +0.000 OA
ATOM     22  C   UNL     1      -0.229  10.673  20.812  0.00  0.00    +0.000 A 
ATOM     23  C   UNL     1       0.999  10.166  21.567  0.00  0.00    +0.000 C 
ATOM     24  N   UNL     1      -0.539  11.932  20.814  0.00  0.00    +0.000 NA
ATOM     25  C   UNL     1       0.299  12.576  19.845  0.00  0.00    +0.000 A 
ATOM     26  C   UNL     1       0.517  13.917  20.123  0.00  0.00    +0.000 A 
ATOM     27  C   UNL     1       1.779  14.401  19.870  0.00  0.00    +0.000 A 
ATOM     28  C   UNL     1       2.671  13.547  19.210  0.00  0.00    +0.000 A 
ATOM     29  N   UNL     1       2.393  12.297  18.663  0.00  0.00    +0.000 NA
ATOM     30  C   UNL     1       1.195  11.787  18.973  0.00  0.00    +0.000 A 
ENDBRANCH  18  19
ENDBRANCH  17  18
ENDBRANCH   9  17
TORSDOF 4
ENDMDL
MODEL 7
REMARK VINA RESULT:      -8.8      1.157      4.057
REMARK  Name = 
REMARK  6 active torsions:
REMARK  status: ('A' for Active; 'I' for Inactive)
REMARK    1  A    between atoms: C_1  and  C_2
REMARK    2  A    between atoms: C_9  and  C_10
REMARK    3  A    between atoms: C_10  and  C_11
REMARK    4  A    between atoms: C_11  and  N_12
REMARK    5  A    between atoms: C_15  and  C_16
REMARK    6  A    between atoms: N_24  and  C_25
REMARK                            x       y       z     vdW  Elec       q    Type
REMARK                         _______ _______ _______ _____ _____    ______ ____
ROOT
ATOM      1  C   UNL     1       1.682   2.065  22.071  0.00  0.00    +0.000 C 
ATOM      2  C   UNL     1       2.281   3.043  21.111  0.00  0.00    +0.000 A 
ATOM      3  C   UNL     1       3.470   2.696  20.451  0.00  0.00    +0.000 A 
ATOM      4  C   UNL     1       4.075   3.584  19.564  0.00  0.00    +0.000 A 
ATOM      5  C   UNL     1       3.448   4.824  19.276  0.00  0.00    +0.000 A 
ATOM      6  C   UNL     1       2.311   5.231  19.951  0.00  0.00    +0.000 A 
ATOM      7  C   UNL     1       1.729   4.312  20.868  0.00  0.00    +0.000 A 
ATOM      8  N   UNL     1       1.967   6.539  19.607  0.00  0.00    +0.000 NA
ATOM      9  C   UNL     1       2.860   6.959  18.713  0.00  0.00    +0.000 A 
ATOM     10  N   UNL     1       3.768   5.895  18.424  0.00  0.00    +0.000 N 
ENDROOT
BRANCH  10  11
ATOM     11  C   UNL     1       4.891   5.832  17.530  0.00  0.00    +0.000 A 
ATOM     12  C   UNL     1       6.181   6.109  17.974  0.00  0.00    +0.000 A 
ATOM     13  C   UNL     1       7.282   5.858  17.133  0.00  0.00    +0.000 A 
ATOM     14  C   UNL     1       7.104   5.345  15.847  0.00  0.00    +0.000 A 
ATOM     15  C   UNL     1       5.820   5.085  15.386  0.00  0.00    +0.000 A 
ATOM     16  C   UNL     1       4.723   5.340  16.217  0.00  0.00    +0.000 A 
ENDBRANCH  10  11
BRANCH   9  17
ATOM     17  C   UNL     1       2.900   8.375  18.054  0.00  0.00    +0.000 C 
BRANCH  17  18
ATOM     18  C   UNL     1       1.560   9.288  17.842  0.00  0.00    +0.000 C 
BRANCH  18  19
ATOM     19  N   UNL     1       1.185  10.193  18.931  0.00  0.00    +0.000 N 
ATOM     20  C   UNL     1       1.318  11.532  18.638  0.00  0.00    +0.000 A 
ATOM     21  O   UNL     1       2.246  12.132  18.131  0.00  0.00    +0.000 OA
ATOM     22  C   UNL     1       0.114  12.240  19.190  0.00  0.00    +0.000 A 
ATOM     23  C   UNL     1      -1.219  11.781  18.604  0.00  0.00    +0.000 C 
ATOM     24  N   UNL     1       0.243  12.455  20.463  0.00  0.00    +0.000 NA
ATOM     25  C   UNL     1       0.429  11.180  21.091  0.00  0.00    +0.000 A 
ATOM     26  C   UNL     1       0.006  11.158  22.411  0.00  0.00    +0.000 A 
ATOM     27  C   UNL     1      -0.622  10.013  22.839  0.00  0.00    +0.000 A 
ATOM     28  C   UNL     1      -0.632   8.922  21.959  0.00  0.00    +0.000 A 
ATOM     29  N   UNL     1       0.032   8.817  20.740  0.00  0.00    +0.000 NA
ATOM     30  C   UNL     1       0.577   9.950  20.282  0.00  0.00    +0.000 A 
ENDBRANCH  18  19
ENDBRANCH  17  18
ENDBRANCH   9  17
TORSDOF 4
ENDMDL
MODEL 8
REMARK VINA RESULT:      -8.8      1.349      2.409
REMARK  Name = 
REMARK  6 active torsions:
REMARK  status: ('A' for Active; 'I' for Inactive)
REMARK    1  A    between atoms: C_1  and  C_2
REMARK    2  A    between atoms: C_9  and  C_10
REMARK    3  A    between atoms: C_10  and  C_11
REMARK    4  A    between atoms: C_11  and  N_12
REMARK    5  A    between atoms: C_15  and  C_16
REMARK    6  A    between atoms: N_24  and  C_25
REMARK                            x       y       z     vdW  Elec       q    Type
REMARK                         _______ _______ _______ _____ _____    ______ ____
ROOT
ATOM      1  C   UNL     1       7.409   5.137  14.653  0.00  0.00    +0.000 C 
ATOM      2  C   UNL     1       6.269   5.192  15.619  0.00  0.00    +0.000 A 
ATOM      3  C   UNL     1       5.877   4.009  16.266  0.00  0.00    +0.000 A 
ATOM      4  C   UNL     1       4.806   4.009  17.158  0.00  0.00    +0.000 A 
ATOM      5  C   UNL     1       4.148   5.229  17.464  0.00  0.00    +0.000 A 
ATOM      6  C   UNL     1       4.461   6.403  16.803  0.00  0.00    +0.000 A 
ATOM      7  C   UNL     1       5.544   6.367  15.881  0.00  0.00    +0.000 A 
ATOM      8  N   UNL     1       3.586   7.429  17.164  0.00  0.00    +0.000 NA
ATOM      9  C   UNL     1       2.735   6.925  18.056  0.00  0.00    +0.000 A 
ATOM     10  N   UNL     1       3.091   5.568  18.326  0.00  0.00    +0.000 N 
ENDROOT
BRANCH  10  11
ATOM     11  C   UNL     1       2.504   4.598  19.210  0.00  0.00    +0.000 A 
ATOM     12  C   UNL     1       2.777   4.609  20.575  0.00  0.00    +0.000 A 
ATOM     13  C   UNL     1       2.048   3.775  21.443  0.00  0.00    +0.000 A 
ATOM     14  C   UNL     1       1.056   2.921  20.958  0.00  0.00    +0.000 A 
ATOM     15  C   UNL     1       0.789   2.887  19.595  0.00  0.00    +0.000 A 
ATOM     16  C   UNL     1       1.518   3.709  18.728  0.00  0.00    +0.000 A 
ENDBRANCH  10  11
BRANCH   9  17
ATOM     17  C   UNL     1       1.553   7.692  18.730  0.00  0.00    +0.000 C 
BRANCH  17  18
ATOM     18  C   UNL     1       1.786   8.879  19.830  0.00  0.00    +0.000 C 
BRANCH  18  19
ATOM     19  N   UNL     1       0.720   9.871  19.983  0.00  0.00    +0.000 N 
ATOM     20  C   UNL     1       0.841  10.683  21.090  0.00  0.00    +0.000 A 
ATOM     21  O   UNL     1       1.074  10.394  22.247  0.00  0.00    +0.000 OA
ATOM     22  C   UNL     1       0.494  12.082  20.668  0.00  0.00    +0.000 A 
ATOM     23  C   UNL     1       1.398  12.662  19.581  0.00  0.00    +0.000 C 
ATOM     24  N   UNL     1      -0.791  12.250  20.626  0.00  0.00    +0.000 NA
ATOM     25  C   UNL     1      -1.314  11.285  19.703  0.00  0.00    +0.000 A 
ATOM     26  C   UNL     1      -2.503  11.687  19.115  0.00  0.00    +0.000 A 
ATOM     27  C   UNL     1      -2.670  11.375  17.786  0.00  0.00    +0.000 A 
ATOM     28  C   UNL     1      -1.705  10.547  17.198  0.00  0.00    +0.000 A 
ATOM     29  N   UNL     1      -0.653   9.894  17.835  0.00  0.00    +0.000 NA
ATOM     30  C   UNL     1      -0.438  10.254  19.106  0.00  0.00    +0.000 A 
ENDBRANCH  18  19
ENDBRANCH  17  18
ENDBRANCH   9  17
TORSDOF 4
ENDMDL
MODEL 9
REMARK VINA RESULT:      -8.6      1.565      2.536
REMARK  Name = 
REMARK  6 active torsions:
REMARK  status: ('A' for Active; 'I' for Inactive)
REMARK    1  A    between atoms: C_1  and  C_2
REMARK    2  A    between atoms: C_9  and  C_10
REMARK    3  A    between atoms: C_10  and  C_11
REMARK    4  A    between atoms: C_11  and  N_12
REMARK    5  A    between atoms: C_15  and  C_16
REMARK    6  A    between atoms: N_24  and  C_25
REMARK                            x       y       z     vdW  Elec       q    Type
REMARK                         _______ _______ _______ _____ _____    ______ ____
ROOT
ATOM      1  C   UNL     1       6.861   5.117  14.362  0.00  0.00    +0.000 C 
ATOM      2  C   UNL     1       5.875   5.125  15.487  0.00  0.00    +0.000 A 
ATOM      3  C   UNL     1       5.465   3.899  16.031  0.00  0.00    +0.000 A 
ATOM      4  C   UNL     1       4.532   3.857  17.066  0.00  0.00    +0.000 A 
ATOM      5  C   UNL     1       4.043   5.070  17.617  0.00  0.00    +0.000 A 
ATOM      6  C   UNL     1       4.372   6.297  17.070  0.00  0.00    +0.000 A 
ATOM      7  C   UNL     1       5.309   6.305  15.999  0.00  0.00    +0.000 A 
ATOM      8  N   UNL     1       3.657   7.326  17.683  0.00  0.00    +0.000 NA
ATOM      9  C   UNL     1       2.893   6.771  18.621  0.00  0.00    +0.000 A 
ATOM     10  N   UNL     1       3.152   5.366  18.663  0.00  0.00    +0.000 N 
ENDROOT
BRANCH  10  11
ATOM     11  C   UNL     1       2.602   4.332  19.495  0.00  0.00    +0.000 A 
ATOM     12  C   UNL     1       3.273   3.887  20.630  0.00  0.00    +0.000 A 
ATOM     13  C   UNL     1       2.631   3.014  21.529  0.00  0.00    +0.000 A 
ATOM     14  C   UNL     1       1.328   2.571  21.297  0.00  0.00    +0.000 A 
ATOM     15  C   UNL     1       0.655   2.992  20.157  0.00  0.00    +0.000 A 
ATOM     16  C   UNL     1       1.293   3.854  19.257  0.00  0.00    +0.000 A 
ENDBRANCH  10  11
BRANCH   9  17
ATOM     17  C   UNL     1       1.894   7.526  19.555  0.00  0.00    +0.000 C 
BRANCH  17  18
ATOM     18  C   UNL     1       1.421   9.066  19.278  0.00  0.00    +0.000 C 
BRANCH  18  19
ATOM     19  N   UNL     1       0.722   9.759  20.363  0.00  0.00    +0.000 N 
ATOM     20  C   UNL     1       0.103   8.930  21.272  0.00  0.00    +0.000 A 
ATOM     21  O   UNL     1      -0.622   7.972  21.088  0.00  0.00    +0.000 OA
ATOM     22  C   UNL     1       0.360   9.486  22.643  0.00  0.00    +0.000 A 
ATOM     23  C   UNL     1       1.835   9.562  23.034  0.00  0.00    +0.000 C 
ATOM     24  N   UNL     1      -0.451  10.462  22.909  0.00  0.00    +0.000 NA
ATOM     25  C   UNL     1      -0.255  11.461  21.899  0.00  0.00    +0.000 A 
ATOM     26  C   UNL     1      -0.573  12.739  22.332  0.00  0.00    +0.000 A 
ATOM     27  C   UNL     1       0.244  13.757  21.898  0.00  0.00    +0.000 A 
ATOM     28  C   UNL     1       1.213  13.436  20.939  0.00  0.00    +0.000 A 
ATOM     29  N   UNL     1       1.370  12.223  20.274  0.00  0.00    +0.000 NA
ATOM     30  C   UNL     1       0.634  11.208  20.745  0.00  0.00    +0.000 A 
ENDBRANCH  18  19
ENDBRANCH  17  18
ENDBRANCH   9  17
TORSDOF 4
ENDMDL
