MODEL 1
REMARK VINA RESULT:      -7.5      0.000      0.000
REMARK  Name = 
REMARK  7 active torsions:
REMARK  status: ('A' for Active; 'I' for Inactive)
REMARK    1  A    between atoms: C_1  and  O_2
REMARK    2  A    between atoms: O_2  and  C_3
REMARK    3  A    between atoms: C_5  and  C_6
REMARK    4  A    between atoms: C_12  and  C_13
REMARK    5  A    between atoms: C_15  and  C_16
REMARK    6  A    between atoms: C_16  and  O_17
REMARK    7  A    between atoms: C_16  and  C_18
REMARK                            x       y       z     vdW  Elec       q    Type
REMARK                         _______ _______ _______ _____ _____    ______ ____
ROOT
ATOM      1  C   UNL     1       2.188   8.739  18.450  0.00  0.00    +0.000 A 
ATOM      2  C   UNL     1       1.353   8.945  19.533  0.00  0.00    +0.000 A 
ATOM      3  C   UNL     1       1.133   7.910  20.454  0.00  0.00    +0.000 A 
ATOM      4  C   UNL     1       0.152   8.143  21.576  0.00  0.00    +0.000 C 
ATOM      5  C   UNL     1       1.799   6.681  20.338  0.00  0.00    +0.000 A 
ATOM      6  N   UNL     1       1.537   5.768  21.278  0.00  0.00    +0.000 NA
ATOM      7  C   UNL     1       2.195   4.615  21.152  0.00  0.00    +0.000 A 
ATOM      8  N   UNL     1       2.057   3.537  21.973  0.00  0.00    +0.000 N 
ATOM      9  N   UNL     1       2.843   2.496  21.649  0.00  0.00    +0.000 NA
ATOM     10  C   UNL     1       3.499   2.930  20.556  0.00  0.00    +0.000 A 
ATOM     11  C   UNL     1       4.468   2.011  19.904  0.00  0.00    +0.000 C 
ATOM     12  C   UNL     1       3.133   4.269  20.200  0.00  0.00    +0.000 A 
ATOM     13  C   UNL     1       3.452   5.230  19.203  0.00  0.00    +0.000 A 
ATOM     14  C   UNL     1       2.705   6.466  19.258  0.00  0.00    +0.000 A 
ATOM     15  C   UNL     1       2.807   7.498  18.293  0.00  0.00    +0.000 A 
ATOM     16  H   UNL     1       1.439   3.459  22.772  0.00  0.00    +0.000 HD
ENDROOT
BRANCH   1  18
ATOM     17  C   UNL     1       2.286  11.020  17.868  0.00  0.00    +0.000 C 
ATOM     18  O   UNL     1       2.445   9.660  17.473  0.00  0.00    +0.000 OA
ENDBRANCH   1  18
BRANCH  13  19
ATOM     19  C   UNL     1       4.490   4.883  18.160  0.00  0.00    +0.000 C 
BRANCH  19  20
ATOM     20  C   UNL     1       5.885   5.426  18.282  0.00  0.00    +0.000 A 
ATOM     21  N   UNL     1       6.840   5.090  19.135  0.00  0.00    +0.000 NA
ATOM     22  C   UNL     1       7.838   6.000  18.893  0.00  0.00    +0.000 A 
ATOM     23  C   UNL     1       7.465   6.839  17.873  0.00  0.00    +0.000 A 
ATOM     24  O   UNL     1       6.215   6.483  17.466  0.00  0.00    +0.000 OA
ENDBRANCH  19  20
BRANCH  19  25
ATOM     25  O   UNL     1       3.946   5.201  16.875  0.00  0.00    +0.000 OA
ATOM     26  H   UNL     1       4.631   4.966  16.225  0.00  0.00    +0.000 HD
ENDBRANCH  19  25
ENDBRANCH  13  19
TORSDOF 4
ENDMDL
MODEL 2
REMARK VINA RESULT:      -7.1      2.500      5.169
REMARK  Name = 
REMARK  7 active torsions:
REMARK  status: ('A' for Active; 'I' for Inactive)
REMARK    1  A    between atoms: C_1  and  O_2
REMARK    2  A    between atoms: O_2  and  C_3
REMARK    3  A    between atoms: C_5  and  C_6
REMARK    4  A    between atoms: C_12  and  C_13
REMARK    5  A    between atoms: C_15  and  C_16
REMARK    6  A    between atoms: C_16  and  O_17
REMARK    7  A    between atoms: C_16  and  C_18
REMARK                            x       y       z     vdW  Elec       q    Type
REMARK                         _______ _______ _______ _____ _____    ______ ____
ROOT
ATOM      1  C   UNL     1       6.096   6.834  16.839  0.00  0.00    +0.000 A 
ATOM      2  C   UNL     1       6.455   5.847  15.939  0.00  0.00    +0.000 A 
ATOM      3  C   UNL     1       5.781   4.618  15.942  0.00  0.00    +0.000 A 
ATOM      4  C   UNL     1       6.254   3.535  15.003  0.00  0.00    +0.000 C 
ATOM      5  C   UNL     1       4.694   4.387  16.799  0.00  0.00    +0.000 A 
ATOM      6  N   UNL     1       4.106   3.191  16.710  0.00  0.00    +0.000 NA
ATOM      7  C   UNL     1       3.067   3.005  17.525  0.00  0.00    +0.000 A 
ATOM      8  N   UNL     1       2.344   1.856  17.627  0.00  0.00    +0.000 N 
ATOM      9  N   UNL     1       1.332   1.920  18.510  0.00  0.00    +0.000 NA
ATOM     10  C   UNL     1       1.431   3.168  19.006  0.00  0.00    +0.000 A 
ATOM     11  C   UNL     1       0.457   3.594  20.044  0.00  0.00    +0.000 C 
ATOM     12  C   UNL     1       2.509   3.903  18.414  0.00  0.00    +0.000 A 
ATOM     13  C   UNL     1       3.097   5.193  18.511  0.00  0.00    +0.000 A 
ATOM     14  C   UNL     1       4.274   5.411  17.699  0.00  0.00    +0.000 A 
ATOM     15  C   UNL     1       5.057   6.591  17.738  0.00  0.00    +0.000 A 
ATOM     16  H   UNL     1       2.497   0.996  17.115  0.00  0.00    +0.000 HD
ENDROOT
BRANCH   1  18
ATOM     17  C   UNL     1       7.892   8.063  17.741  0.00  0.00    +0.000 C 
ATOM     18  O   UNL     1       6.707   8.052  16.951  0.00  0.00    +0.000 OA
ENDBRANCH   1  18
BRANCH  13  19
ATOM     19  C   UNL     1       2.494   6.201  19.461  0.00  0.00    +0.000 C 
BRANCH  19  20
ATOM     20  C   UNL     1       2.046   7.540  18.948  0.00  0.00    +0.000 A 
ATOM     21  N   UNL     1       2.134   8.037  17.725  0.00  0.00    +0.000 NA
ATOM     22  C   UNL     1       1.713   9.336  17.862  0.00  0.00    +0.000 A 
ATOM     23  C   UNL     1       1.350   9.572  19.164  0.00  0.00    +0.000 A 
ATOM     24  O   UNL     1       1.555   8.429  19.876  0.00  0.00    +0.000 OA
ENDBRANCH  19  20
BRANCH  19  25
ATOM     25  O   UNL     1       3.398   6.369  20.558  0.00  0.00    +0.000 OA
ATOM     26  H   UNL     1       2.846   6.486  21.350  0.00  0.00    +0.000 HD
ENDBRANCH  19  25
ENDBRANCH  13  19
TORSDOF 4
ENDMDL
MODEL 3
REMARK VINA RESULT:      -7.0      3.867      7.095
REMARK  Name = 
REMARK  7 active torsions:
REMARK  status: ('A' for Active; 'I' for Inactive)
REMARK    1  A    between atoms: C_1  and  O_2
REMARK    2  A    between atoms: O_2  and  C_3
REMARK    3  A    between atoms: C_5  and  C_6
REMARK    4  A    between atoms: C_12  and  C_13
REMARK    5  A    between atoms: C_15  and  C_16
REMARK    6  A    between atoms: C_16  and  O_17
REMARK    7  A    between atoms: C_16  and  C_18
REMARK                            x       y       z     vdW  Elec       q    Type
REMARK                         _______ _______ _______ _____ _____    ______ ____
ROOT
ATOM      1  C   UNL     1       5.604   3.430  12.441  0.00  0.00    +0.000 A 
ATOM      2  C   UNL     1       6.741   4.155  12.135  0.00  0.00    +0.000 A 
ATOM      3  C   UNL     1       7.378   4.912  13.129  0.00  0.00    +0.000 A 
ATOM      4  C   UNL     1       8.567   5.756  12.740  0.00  0.00    +0.000 C 
ATOM      5  C   UNL     1       6.923   4.897  14.456  0.00  0.00    +0.000 A 
ATOM      6  N   UNL     1       7.611   5.634  15.332  0.00  0.00    +0.000 NA
ATOM      7  C   UNL     1       7.166   5.590  16.589  0.00  0.00    +0.000 A 
ATOM      8  N   UNL     1       7.690   6.286  17.634  0.00  0.00    +0.000 N 
ATOM      9  N   UNL     1       7.076   6.061  18.809  0.00  0.00    +0.000 NA
ATOM     10  C   UNL     1       6.101   5.191  18.487  0.00  0.00    +0.000 A 
ATOM     11  C   UNL     1       5.192   4.719  19.564  0.00  0.00    +0.000 C 
ATOM     12  C   UNL     1       6.114   4.852  17.095  0.00  0.00    +0.000 A 
ATOM     13  C   UNL     1       5.380   4.036  16.191  0.00  0.00    +0.000 A 
ATOM     14  C   UNL     1       5.782   4.115  14.804  0.00  0.00    +0.000 A 
ATOM     15  C   UNL     1       5.108   3.459  13.745  0.00  0.00    +0.000 A 
ATOM     16  H   UNL     1       8.471   6.931  17.602  0.00  0.00    +0.000 HD
ENDROOT
BRANCH   1  18
ATOM     17  C   UNL     1       3.741   3.347  11.001  0.00  0.00    +0.000 C 
ATOM     18  O   UNL     1       4.882   2.691  11.546  0.00  0.00    +0.000 OA
ENDBRANCH   1  18
BRANCH  13  19
ATOM     19  C   UNL     1       4.237   3.203  16.722  0.00  0.00    +0.000 C 
BRANCH  19  20
ATOM     20  C   UNL     1       3.082   3.869  17.413  0.00  0.00    +0.000 A 
ATOM     21  N   UNL     1       2.730   5.145  17.410  0.00  0.00    +0.000 NA
ATOM     22  C   UNL     1       1.704   5.210  18.319  0.00  0.00    +0.000 A 
ATOM     23  C   UNL     1       1.445   3.958  18.819  0.00  0.00    +0.000 A 
ATOM     24  O   UNL     1       2.319   3.084  18.247  0.00  0.00    +0.000 OA
ENDBRANCH  19  20
BRANCH  19  25
ATOM     25  O   UNL     1       4.788   2.179  17.556  0.00  0.00    +0.000 OA
ATOM     26  H   UNL     1       4.031   1.694  17.927  0.00  0.00    +0.000 HD
ENDBRANCH  19  25
ENDBRANCH  13  19
TORSDOF 4
ENDMDL
MODEL 4
REMARK VINA RESULT:      -6.8      2.592      4.687
REMARK  Name = 
REMARK  7 active torsions:
REMARK  status: ('A' for Active; 'I' for Inactive)
REMARK    1  A    between atoms: C_1  and  O_2
REMARK    2  A    between atoms: O_2  and  C_3
REMARK    3  A    between atoms: C_5  and  C_6
REMARK    4  A    between atoms: C_12  and  C_13
REMARK    5  A    between atoms: C_15  and  C_16
REMARK    6  A    between atoms: C_16  and  O_17
REMARK    7  A    between atoms: C_16  and  C_18
REMARK                            x       y       z     vdW  Elec       q    Type
REMARK                         _______ _______ _______ _____ _____    ______ ____
ROOT
ATOM      1  C   UNL     1       0.439   8.530  21.109  0.00  0.00    +0.000 A 
ATOM      2  C   UNL     1       0.417   9.563  20.190  0.00  0.00    +0.000 A 
ATOM      3  C   UNL     1       1.267   9.526  19.075  0.00  0.00    +0.000 A 
ATOM      4  C   UNL     1       1.276  10.708  18.138  0.00  0.00    +0.000 C 
ATOM      5  C   UNL     1       2.098   8.422  18.832  0.00  0.00    +0.000 A 
ATOM      6  N   UNL     1       2.854   8.474  17.732  0.00  0.00    +0.000 NA
ATOM      7  C   UNL     1       3.623   7.406  17.518  0.00  0.00    +0.000 A 
ATOM      8  N   UNL     1       4.495   7.259  16.482  0.00  0.00    +0.000 N 
ATOM      9  N   UNL     1       5.146   6.082  16.474  0.00  0.00    +0.000 NA
ATOM     10  C   UNL     1       4.676   5.460  17.571  0.00  0.00    +0.000 A 
ATOM     11  C   UNL     1       5.198   4.106  17.893  0.00  0.00    +0.000 C 
ATOM     12  C   UNL     1       3.704   6.249  18.268  0.00  0.00    +0.000 A 
ATOM     13  C   UNL     1       2.890   6.154  19.430  0.00  0.00    +0.000 A 
ATOM     14  C   UNL     1       2.098   7.323  19.741  0.00  0.00    +0.000 A 
ATOM     15  C   UNL     1       1.307   7.457  20.909  0.00  0.00    +0.000 A 
ATOM     16  H   UNL     1       4.684   7.932  15.750  0.00  0.00    +0.000 HD
ENDROOT
BRANCH   1  18
ATOM     17  C   UNL     1      -0.182   9.604  23.112  0.00  0.00    +0.000 C 
ATOM     18  O   UNL     1      -0.316   8.479  22.248  0.00  0.00    +0.000 OA
ENDBRANCH   1  18
BRANCH  13  19
ATOM     19  C   UNL     1       2.944   4.891  20.258  0.00  0.00    +0.000 C 
BRANCH  19  20
ATOM     20  C   UNL     1       2.246   3.650  19.778  0.00  0.00    +0.000 A 
ATOM     21  N   UNL     1       2.711   2.415  19.685  0.00  0.00    +0.000 NA
ATOM     22  C   UNL     1       1.707   1.728  19.050  0.00  0.00    +0.000 A 
ATOM     23  C   UNL     1       0.649   2.568  18.810  0.00  0.00    +0.000 A 
ATOM     24  O   UNL     1       0.977   3.806  19.272  0.00  0.00    +0.000 OA
ENDBRANCH  19  20
BRANCH  19  25
ATOM     25  O   UNL     1       2.519   5.215  21.585  0.00  0.00    +0.000 OA
ATOM     26  H   UNL     1       3.077   4.692  22.185  0.00  0.00    +0.000 HD
ENDBRANCH  19  25
ENDBRANCH  13  19
TORSDOF 4
ENDMDL
MODEL 5
REMARK VINA RESULT:      -6.8      2.611      4.875
REMARK  Name = 
REMARK  7 active torsions:
REMARK  status: ('A' for Active; 'I' for Inactive)
REMARK    1  A    between atoms: C_1  and  O_2
REMARK    2  A    between atoms: O_2  and  C_3
REMARK    3  A    between atoms: C_5  and  C_6
REMARK    4  A    between atoms: C_12  and  C_13
REMARK    5  A    between atoms: C_15  and  C_16
REMARK    6  A    between atoms: C_16  and  O_17
REMARK    7  A    between atoms: C_16  and  C_18
REMARK                            x       y       z     vdW  Elec       q    Type
REMARK                         _______ _______ _______ _____ _____    ______ ____
ROOT
ATOM      1  C   UNL     1       1.551   7.555  20.322  0.00  0.00    +0.000 A 
ATOM      2  C   UNL     1       1.491   8.715  19.570  0.00  0.00    +0.000 A 
ATOM      3  C   UNL     1       2.259   8.832  18.402  0.00  0.00    +0.000 A 
ATOM      4  C   UNL     1       2.232  10.141  17.653  0.00  0.00    +0.000 C 
ATOM      5  C   UNL     1       3.042   7.765  17.938  0.00  0.00    +0.000 A 
ATOM      6  N   UNL     1       3.720   7.971  16.805  0.00  0.00    +0.000 NA
ATOM      7  C   UNL     1       4.444   6.935  16.378  0.00  0.00    +0.000 A 
ATOM      8  N   UNL     1       5.236   6.932  15.271  0.00  0.00    +0.000 N 
ATOM      9  N   UNL     1       5.854   5.761  15.040  0.00  0.00    +0.000 NA
ATOM     10  C   UNL     1       5.448   4.988  16.065  0.00  0.00    +0.000 A 
ATOM     11  C   UNL     1       5.956   3.594  16.143  0.00  0.00    +0.000 C 
ATOM     12  C   UNL     1       4.548   5.678  16.941  0.00  0.00    +0.000 A 
ATOM     13  C   UNL     1       3.817   5.422  18.132  0.00  0.00    +0.000 A 
ATOM     14  C   UNL     1       3.078   6.542  18.671  0.00  0.00    +0.000 A 
ATOM     15  C   UNL     1       2.376   6.512  19.901  0.00  0.00    +0.000 A 
ATOM     16  H   UNL     1       5.390   7.705  14.634  0.00  0.00    +0.000 HD
ENDROOT
BRANCH   1  18
ATOM     17  C   UNL     1      -0.027   8.382  21.864  0.00  0.00    +0.000 C 
ATOM     18  O   UNL     1       0.878   7.346  21.493  0.00  0.00    +0.000 OA
ENDBRANCH   1  18
BRANCH  13  19
ATOM     19  C   UNL     1       3.896   4.048  18.757  0.00  0.00    +0.000 C 
BRANCH  19  20
ATOM     20  C   UNL     1       2.710   3.487  19.489  0.00  0.00    +0.000 A 
ATOM     21  N   UNL     1       1.480   3.280  19.048  0.00  0.00    +0.000 NA
ATOM     22  C   UNL     1       0.785   2.900  20.168  0.00  0.00    +0.000 A 
ATOM     23  C   UNL     1       1.629   2.858  21.248  0.00  0.00    +0.000 A 
ATOM     24  O   UNL     1       2.871   3.230  20.830  0.00  0.00    +0.000 OA
ENDBRANCH  19  20
BRANCH  19  25
ATOM     25  O   UNL     1       5.056   4.012  19.595  0.00  0.00    +0.000 OA
ATOM     26  H   UNL     1       4.871   3.354  20.287  0.00  0.00    +0.000 HD
ENDBRANCH  19  25
ENDBRANCH  13  19
TORSDOF 4
ENDMDL
MODEL 6
REMARK VINA RESULT:      -6.7      8.740     11.387
REMARK  Name = 
REMARK  7 active torsions:
REMARK  status: ('A' for Active; 'I' for Inactive)
REMARK    1  A    between atoms: C_1  and  O_2
REMARK    2  A    between atoms: O_2  and  C_3
REMARK    3  A    between atoms: C_5  and  C_6
REMARK    4  A    between atoms: C_12  and  C_13
REMARK    5  A    between atoms: C_15  and  C_16
REMARK    6  A    between atoms: C_16  and  O_17
REMARK    7  A    between atoms: C_16  and  C_18
REMARK                            x       y       z     vdW  Elec       q    Type
REMARK                         _______ _______ _______ _____ _____    ______ ____
ROOT
ATOM      1  C   UNL     1      -3.589  11.336  17.159  0.00  0.00    +0.000 A 
ATOM      2  C   UNL     1      -2.279  11.614  17.503  0.00  0.00    +0.000 A 
ATOM      3  C   UNL     1      -1.988  12.176  18.755  0.00  0.00    +0.000 A 
ATOM      4  C   UNL     1      -0.557  12.543  19.063  0.00  0.00    +0.000 C 
ATOM      5  C   UNL     1      -2.998  12.402  19.701  0.00  0.00    +0.000 A 
ATOM      6  N   UNL     1      -2.614  12.922  20.871  0.00  0.00    +0.000 NA
ATOM      7  C   UNL     1      -3.593  13.112  21.758  0.00  0.00    +0.000 A 
ATOM      8  N   UNL     1      -3.437  13.659  22.995  0.00  0.00    +0.000 N 
ATOM      9  N   UNL     1      -4.573  13.731  23.711  0.00  0.00    +0.000 NA
ATOM     10  C   UNL     1      -5.498  13.221  22.877  0.00  0.00    +0.000 A 
ATOM     11  C   UNL     1      -6.908  13.155  23.343  0.00  0.00    +0.000 C 
ATOM     12  C   UNL     1      -4.933  12.807  21.627  0.00  0.00    +0.000 A 
ATOM     13  C   UNL     1      -5.365  12.228  20.403  0.00  0.00    +0.000 A 
ATOM     14  C   UNL     1      -4.349  12.075  19.386  0.00  0.00    +0.000 A 
ATOM     15  C   UNL     1      -4.607  11.616  18.070  0.00  0.00    +0.000 A 
ATOM     16  H   UNL     1      -2.575  14.000  23.403  0.00  0.00    +0.000 HD
ENDROOT
BRANCH   1  18
ATOM     17  C   UNL     1      -2.936  10.421  15.088  0.00  0.00    +0.000 C 
ATOM     18  O   UNL     1      -3.991  10.825  15.956  0.00  0.00    +0.000 OA
ENDBRANCH   1  18
BRANCH  13  19
ATOM     19  C   UNL     1      -6.823  11.865  20.242  0.00  0.00    +0.000 C 
BRANCH  19  20
ATOM     20  C   UNL     1      -7.263  10.438  20.407  0.00  0.00    +0.000 A 
ATOM     21  N   UNL     1      -7.915   9.877  21.412  0.00  0.00    +0.000 NA
ATOM     22  C   UNL     1      -7.916   8.540  21.103  0.00  0.00    +0.000 A 
ATOM     23  C   UNL     1      -7.292   8.340  19.898  0.00  0.00    +0.000 A 
ATOM     24  O   UNL     1      -6.868   9.549  19.435  0.00  0.00    +0.000 OA
ENDBRANCH  19  20
BRANCH  19  25
ATOM     25  O   UNL     1      -7.268  12.377  18.981  0.00  0.00    +0.000 OA
ATOM     26  H   UNL     1      -7.768  13.188  19.178  0.00  0.00    +0.000 HD
ENDBRANCH  19  25
ENDBRANCH  13  19
TORSDOF 4
ENDMDL
MODEL 7
REMARK VINA RESULT:      -6.5      6.920     10.638
REMARK  Name = 
REMARK  7 active torsions:
REMARK  status: ('A' for Active; 'I' for Inactive)
REMARK    1  A    between atoms: C_1  and  O_2
REMARK    2  A    between atoms: O_2  and  C_3
REMARK    3  A    between atoms: C_5  and  C_6
REMARK    4  A    between atoms: C_12  and  C_13
REMARK    5  A    between atoms: C_15  and  C_16
REMARK    6  A    between atoms: C_16  and  O_17
REMARK    7  A    between atoms: C_16  and  C_18
REMARK                            x       y       z     vdW  Elec       q    Type
REMARK                         _______ _______ _______ _____ _____    ______ ____
ROOT
ATOM      1  C   UNL     1      -3.171  10.763  16.909  0.00  0.00    +0.000 A 
ATOM      2  C   UNL     1      -1.908  10.209  17.015  0.00  0.00    +0.000 A 
ATOM      3  C   UNL     1      -1.123  10.468  18.147  0.00  0.00    +0.000 A 
ATOM      4  C   UNL     1       0.280   9.915  18.191  0.00  0.00    +0.000 C 
ATOM      5  C   UNL     1      -1.619  11.229  19.216  0.00  0.00    +0.000 A 
ATOM      6  N   UNL     1      -0.800  11.401  20.258  0.00  0.00    +0.000 NA
ATOM      7  C   UNL     1      -1.302  12.115  21.266  0.00  0.00    +0.000 A 
ATOM      8  N   UNL     1      -0.635  12.443  22.407  0.00  0.00    +0.000 N 
ATOM      9  N   UNL     1      -1.363  13.157  23.283  0.00  0.00    +0.000 NA
ATOM     10  C   UNL     1      -2.544  13.306  22.657  0.00  0.00    +0.000 A 
ATOM     11  C   UNL     1      -3.615  14.075  23.343  0.00  0.00    +0.000 C 
ATOM     12  C   UNL     1      -2.566  12.661  21.377  0.00  0.00    +0.000 A 
ATOM     13  C   UNL     1      -3.468  12.471  20.296  0.00  0.00    +0.000 A 
ATOM     14  C   UNL     1      -2.938  11.767  19.150  0.00  0.00    +0.000 A 
ATOM     15  C   UNL     1      -3.648  11.573  17.940  0.00  0.00    +0.000 A 
ATOM     16  H   UNL     1       0.321  12.202  22.641  0.00  0.00    +0.000 HD
ENDROOT
BRANCH   1  18
ATOM     17  C   UNL     1      -3.374  10.175  14.636  0.00  0.00    +0.000 C 
ATOM     18  O   UNL     1      -4.006  10.610  15.837  0.00  0.00    +0.000 OA
ENDBRANCH   1  18
BRANCH  13  19
ATOM     19  C   UNL     1      -4.864  13.041  20.401  0.00  0.00    +0.000 C 
BRANCH  19  20
ATOM     20  C   UNL     1      -6.027  12.130  20.672  0.00  0.00    +0.000 A 
ATOM     21  N   UNL     1      -6.655  11.310  19.846  0.00  0.00    +0.000 NA
ATOM     22  C   UNL     1      -7.719  10.848  20.579  0.00  0.00    +0.000 A 
ATOM     23  C   UNL     1      -7.679  11.381  21.843  0.00  0.00    +0.000 A 
ATOM     24  O   UNL     1      -6.598  12.205  21.921  0.00  0.00    +0.000 OA
ENDBRANCH  19  20
BRANCH  19  25
ATOM     25  O   UNL     1      -5.111  13.822  19.226  0.00  0.00    +0.000 OA
ATOM     26  H   UNL     1      -5.721  13.301  18.677  0.00  0.00    +0.000 HD
ENDBRANCH  19  25
ENDBRANCH  13  19
TORSDOF 4
ENDMDL
MODEL 8
REMARK VINA RESULT:      -6.2      3.128      6.820
REMARK  Name = 
REMARK  7 active torsions:
REMARK  status: ('A' for Active; 'I' for Inactive)
REMARK    1  A    between atoms: C_1  and  O_2
REMARK    2  A    between atoms: O_2  and  C_3
REMARK    3  A    between atoms: C_5  and  C_6
REMARK    4  A    between atoms: C_12  and  C_13
REMARK    5  A    between atoms: C_15  and  C_16
REMARK    6  A    between atoms: C_16  and  O_17
REMARK    7  A    between atoms: C_16  and  C_18
REMARK                            x       y       z     vdW  Elec       q    Type
REMARK                         _______ _______ _______ _____ _____    ______ ____
ROOT
ATOM      1  C   UNL     1       2.855   7.405  17.988  0.00  0.00    +0.000 A 
ATOM      2  C   UNL     1       2.877   6.360  18.893  0.00  0.00    +0.000 A 
ATOM      3  C   UNL     1       2.252   6.500  20.140  0.00  0.00    +0.000 A 
ATOM      4  C   UNL     1       2.367   5.371  21.134  0.00  0.00    +0.000 C 
ATOM      5  C   UNL     1       1.539   7.663  20.468  0.00  0.00    +0.000 A 
ATOM      6  N   UNL     1       0.961   7.691  21.673  0.00  0.00    +0.000 NA
ATOM      7  C   UNL     1       0.278   8.801  21.952  0.00  0.00    +0.000 A 
ATOM      8  N   UNL     1      -0.358   9.058  23.128  0.00  0.00    +0.000 N 
ATOM      9  N   UNL     1      -0.993  10.243  23.161  0.00  0.00    +0.000 NA
ATOM     10  C   UNL     1      -0.730  10.771  21.952  0.00  0.00    +0.000 A 
ATOM     11  C   UNL     1      -1.277  12.116  21.634  0.00  0.00    +0.000 C 
ATOM     12  C   UNL     1       0.066   9.899  21.141  0.00  0.00    +0.000 A 
ATOM     13  C   UNL     1       0.646   9.886  19.843  0.00  0.00    +0.000 A 
ATOM     14  C   UNL     1       1.460   8.733  19.528  0.00  0.00    +0.000 A 
ATOM     15  C   UNL     1       2.201   8.589  18.330  0.00  0.00    +0.000 A 
ATOM     16  H   UNL     1      -0.393   8.457  23.942  0.00  0.00    +0.000 HD
ENDROOT
BRANCH   1  18
ATOM     17  C   UNL     1       4.709   6.707  16.713  0.00  0.00    +0.000 C 
ATOM     18  O   UNL     1       3.461   7.393  16.762  0.00  0.00    +0.000 OA
ENDBRANCH   1  18
BRANCH  13  19
ATOM     19  C   UNL     1       0.414  11.066  18.928  0.00  0.00    +0.000 C 
BRANCH  19  20
ATOM     20  C   UNL     1      -0.788  11.089  18.025  0.00  0.00    +0.000 A 
ATOM     21  N   UNL     1      -1.661  12.062  17.825  0.00  0.00    +0.000 NA
ATOM     22  C   UNL     1      -2.620  11.489  17.028  0.00  0.00    +0.000 A 
ATOM     23  C   UNL     1      -2.275  10.192  16.744  0.00  0.00    +0.000 A 
ATOM     24  O   UNL     1      -1.099   9.918  17.374  0.00  0.00    +0.000 OA
ENDBRANCH  19  20
BRANCH  19  25
ATOM     25  O   UNL     1       1.608  11.276  18.167  0.00  0.00    +0.000 OA
ATOM     26  H   UNL     1       1.671  12.235  18.021  0.00  0.00    +0.000 HD
ENDBRANCH  19  25
ENDBRANCH  13  19
TORSDOF 4
ENDMDL
MODEL 9
REMARK VINA RESULT:      -6.1      6.171      9.125
REMARK  Name = 
REMARK  7 active torsions:
REMARK  status: ('A' for Active; 'I' for Inactive)
REMARK    1  A    between atoms: C_1  and  O_2
REMARK    2  A    between atoms: O_2  and  C_3
REMARK    3  A    between atoms: C_5  and  C_6
REMARK    4  A    between atoms: C_12  and  C_13
REMARK    5  A    between atoms: C_15  and  C_16
REMARK    6  A    between atoms: C_16  and  O_17
REMARK    7  A    between atoms: C_16  and  C_18
REMARK                            x       y       z     vdW  Elec       q    Type
REMARK                         _______ _______ _______ _____ _____    ______ ____
ROOT
ATOM      1  C   UNL     1      -3.369  11.296  16.491  0.00  0.00    +0.000 A 
ATOM      2  C   UNL     1      -4.735  11.496  16.579  0.00  0.00    +0.000 A 
ATOM      3  C   UNL     1      -5.318  11.813  17.815  0.00  0.00    +0.000 A 
ATOM      4  C   UNL     1      -6.819  11.942  17.889  0.00  0.00    +0.000 C 
ATOM      5  C   UNL     1      -4.532  12.000  18.961  0.00  0.00    +0.000 A 
ATOM      6  N   UNL     1      -5.181  12.321  20.085  0.00  0.00    +0.000 NA
ATOM      7  C   UNL     1      -4.408  12.508  21.156  0.00  0.00    +0.000 A 
ATOM      8  N   UNL     1      -4.857  12.805  22.406  0.00  0.00    +0.000 N 
ATOM      9  N   UNL     1      -3.880  12.962  23.317  0.00  0.00    +0.000 NA
ATOM     10  C   UNL     1      -2.757  12.734  22.611  0.00  0.00    +0.000 A 
ATOM     11  C   UNL     1      -1.452  12.812  23.317  0.00  0.00    +0.000 C 
ATOM     12  C   UNL     1      -3.031  12.448  21.234  0.00  0.00    +0.000 A 
ATOM     13  C   UNL     1      -2.312  12.135  20.048  0.00  0.00    +0.000 A 
ATOM     14  C   UNL     1      -3.116  11.850  18.881  0.00  0.00    +0.000 A 
ATOM     15  C   UNL     1      -2.587  11.419  17.639  0.00  0.00    +0.000 A 
ATOM     16  H   UNL     1      -5.822  12.914  22.694  0.00  0.00    +0.000 HD
ENDROOT
BRANCH   1  18
ATOM     17  C   UNL     1      -3.437  10.132  14.444  0.00  0.00    +0.000 C 
ATOM     18  O   UNL     1      -2.701  10.948  15.350  0.00  0.00    +0.000 OA
ENDBRANCH   1  18
BRANCH  13  19
ATOM     19  C   UNL     1      -0.803  12.083  20.102  0.00  0.00    +0.000 C 
BRANCH  19  20
ATOM     20  C   UNL     1      -0.116  10.958  20.824  0.00  0.00    +0.000 A 
ATOM     21  N   UNL     1       0.980  10.988  21.564  0.00  0.00    +0.000 NA
ATOM     22  C   UNL     1       1.228   9.667  21.844  0.00  0.00    +0.000 A 
ATOM     23  C   UNL     1       0.249   8.882  21.289  0.00  0.00    +0.000 A 
ATOM     24  O   UNL     1      -0.625   9.695  20.632  0.00  0.00    +0.000 OA
ENDBRANCH  19  20
BRANCH  19  25
ATOM     25  O   UNL     1      -0.335  13.344  20.593  0.00  0.00    +0.000 OA
ATOM     26  H   UNL     1       0.506  13.163  21.047  0.00  0.00    +0.000 HD
ENDBRANCH  19  25
ENDBRANCH  13  19
TORSDOF 4
ENDMDL
