MODEL 1
REMARK VINA RESULT:      -7.8      0.000      0.000
REMARK  Name = 
REMARK  9 active torsions:
REMARK  status: ('A' for Active; 'I' for Inactive)
REMARK    1  A    between atoms: O_1  and  C_2
REMARK    2  A    between atoms: C_2  and  C_3
REMARK    3  A    between atoms: C_2  and  C_20
REMARK    4  A    between atoms: C_2  and  C_26
REMARK    5  A    between atoms: C_3  and  S_4
REMARK    6  A    between atoms: S_4  and  C_5
REMARK    7  A    between atoms: C_5  and  N_7
REMARK    8  A    between atoms: N_10  and  C_11
REMARK    9  A    between atoms: C_20  and  N_21
REMARK                            x       y       z     vdW  Elec       q    Type
REMARK                         _______ _______ _______ _____ _____    ______ ____
ROOT
ATOM      1  C   UNL     1       2.824   5.998  18.412  0.00  0.00    +0.000 C 
ENDROOT
BRANCH   1   2
ATOM      2  C   UNL     1       4.020   5.720  17.489  0.00  0.00    +0.000 A 
ATOM      3  C   UNL     1       4.946   6.736  17.181  0.00  0.00    +0.000 A 
ATOM      4  C   UNL     1       6.025   6.495  16.320  0.00  0.00    +0.000 A 
ATOM      5  C   UNL     1       6.187   5.239  15.756  0.00  0.00    +0.000 A 
ATOM      6  F   UNL     1       7.216   5.014  14.925  0.00  0.00    +0.000 F 
ATOM      7  C   UNL     1       5.305   4.212  16.048  0.00  0.00    +0.000 A 
ATOM      8  C   UNL     1       4.247   4.454  16.923  0.00  0.00    +0.000 A 
ATOM      9  F   UNL     1       3.448   3.426  17.235  0.00  0.00    +0.000 F 
ENDBRANCH   1   2
BRANCH   1  10
ATOM     10  O   UNL     1       1.716   5.184  17.953  0.00  0.00    +0.000 OA
ATOM     11  H   UNL     1       1.461   4.594  18.688  0.00  0.00    +0.000 HD
ENDBRANCH   1  10
BRANCH   1  12
ATOM     12  C   UNL     1       2.390   7.491  18.255  0.00  0.00    +0.000 C 
BRANCH  12  13
ATOM     13  S   UNL     1       1.674   8.172  19.812  0.00  0.00    +0.000 S 
BRANCH  13  14
ATOM     14  C   UNL     1       1.170   9.793  19.305  0.00  0.00    +0.000 C 
ATOM     15  S   UNL     1       1.963  10.548  18.030  0.00  0.00    +0.000 S 
BRANCH  14  16
ATOM     16  N   UNL     1       0.094  10.336  20.013  0.00  0.00    +0.000 N 
ATOM     17  C   UNL     1       0.015  10.421  21.490  0.00  0.00    +0.000 C 
ATOM     18  C   UNL     1      -0.498  11.795  21.971  0.00  0.00    +0.000 C 
ATOM     19  N   UNL     1      -1.769  12.115  21.302  0.00  0.00    +0.000 N 
ATOM     20  C   UNL     1      -1.723  12.038  19.830  0.00  0.00    +0.000 C 
ATOM     21  C   UNL     1      -1.206  10.656  19.376  0.00  0.00    +0.000 C 
BRANCH  19  22
ATOM     22  C   UNL     1      -2.906  12.467  21.999  0.00  0.00    +0.000 A 
ATOM     23  C   UNL     1      -3.990  13.112  21.374  0.00  0.00    +0.000 A 
ATOM     24  C   UNL     1      -5.141  13.497  22.079  0.00  0.00    +0.000 A 
ATOM     25  C   UNL     1      -5.239  13.240  23.438  0.00  0.00    +0.000 A 
ATOM     26  C   UNL     1      -4.188  12.599  24.073  0.00  0.00    +0.000 A 
ATOM     27  F   UNL     1      -4.265  12.350  25.389  0.00  0.00    +0.000 F 
ATOM     28  C   UNL     1      -3.042  12.219  23.372  0.00  0.00    +0.000 A 
ENDBRANCH  19  22
ENDBRANCH  14  16
ENDBRANCH  13  14
ENDBRANCH  12  13
ENDBRANCH   1  12
BRANCH   1  29
ATOM     29  C   UNL     1       3.073   5.638  19.903  0.00  0.00    +0.000 C 
BRANCH  29  30
ATOM     30  N   UNL     1       2.465   4.392  20.333  0.00  0.00    +0.000 N 
ATOM     31  C   UNL     1       3.045   3.164  20.426  0.00  0.00    +0.000 A 
ATOM     32  N   UNL     1       2.141   2.276  20.767  0.00  0.00    +0.000 NA
ATOM     33  C   UNL     1       1.000   3.019  20.857  0.00  0.00    +0.000 A 
ATOM     34  N   UNL     1       1.141   4.317  20.574  0.00  0.00    +0.000 NA
ENDBRANCH  29  30
ENDBRANCH   1  29
TORSDOF 9
ENDMDL
MODEL 2
REMARK VINA RESULT:      -7.8      2.479      4.209
REMARK  Name = 
REMARK  9 active torsions:
REMARK  status: ('A' for Active; 'I' for Inactive)
REMARK    1  A    between atoms: O_1  and  C_2
REMARK    2  A    between atoms: C_2  and  C_3
REMARK    3  A    between atoms: C_2  and  C_20
REMARK    4  A    between atoms: C_2  and  C_26
REMARK    5  A    between atoms: C_3  and  S_4
REMARK    6  A    between atoms: S_4  and  C_5
REMARK    7  A    between atoms: C_5  and  N_7
REMARK    8  A    between atoms: N_10  and  C_11
REMARK    9  A    between atoms: C_20  and  N_21
REMARK                            x       y       z     vdW  Elec       q    Type
REMARK                         _______ _______ _______ _____ _____    ______ ____
ROOT
ATOM      1  C   UNL     1       3.391   5.649  18.791  0.00  0.00    +0.000 C 
ENDROOT
BRANCH   1   2
ATOM      2  C   UNL     1       2.628   4.669  19.694  0.00  0.00    +0.000 A 
ATOM      3  C   UNL     1       2.999   4.489  21.041  0.00  0.00    +0.000 A 
ATOM      4  C   UNL     1       2.322   3.579  21.863  0.00  0.00    +0.000 A 
ATOM      5  C   UNL     1       1.271   2.837  21.347  0.00  0.00    +0.000 A 
ATOM      6  F   UNL     1       0.630   1.960  22.134  0.00  0.00    +0.000 F 
ATOM      7  C   UNL     1       0.868   2.998  20.032  0.00  0.00    +0.000 A 
ATOM      8  C   UNL     1       1.533   3.923  19.227  0.00  0.00    +0.000 A 
ATOM      9  F   UNL     1       1.081   4.102  17.980  0.00  0.00    +0.000 F 
ENDBRANCH   1   2
BRANCH   1  10
ATOM     10  O   UNL     1       4.514   6.163  19.550  0.00  0.00    +0.000 OA
ATOM     11  H   UNL     1       4.242   7.021  19.929  0.00  0.00    +0.000 HD
ENDBRANCH   1  10
BRANCH   1  12
ATOM     12  C   UNL     1       2.468   6.866  18.459  0.00  0.00    +0.000 C 
BRANCH  12  13
ATOM     13  S   UNL     1       1.844   7.698  19.983  0.00  0.00    +0.000 S 
BRANCH  13  14
ATOM     14  C   UNL     1       1.357   9.283  19.361  0.00  0.00    +0.000 C 
ATOM     15  S   UNL     1       1.872   9.772  17.836  0.00  0.00    +0.000 S 
BRANCH  14  16
ATOM     16  N   UNL     1       0.530  10.031  20.204  0.00  0.00    +0.000 N 
ATOM     17  C   UNL     1      -0.262   9.468  21.321  0.00  0.00    +0.000 C 
ATOM     18  C   UNL     1      -0.165  10.327  22.600  0.00  0.00    +0.000 C 
ATOM     19  N   UNL     1      -0.508  11.724  22.289  0.00  0.00    +0.000 N 
ATOM     20  C   UNL     1       0.263  12.313  21.179  0.00  0.00    +0.000 C 
ATOM     21  C   UNL     1       0.150  11.435  19.916  0.00  0.00    +0.000 C 
BRANCH  19  22
ATOM     22  C   UNL     1      -1.469  12.425  22.989  0.00  0.00    +0.000 A 
ATOM     23  C   UNL     1      -2.733  11.871  23.272  0.00  0.00    +0.000 A 
ATOM     24  C   UNL     1      -3.726  12.583  23.962  0.00  0.00    +0.000 A 
ATOM     25  C   UNL     1      -3.477  13.878  24.392  0.00  0.00    +0.000 A 
ATOM     26  C   UNL     1      -2.238  14.441  24.131  0.00  0.00    +0.000 A 
ATOM     27  F   UNL     1      -1.986  15.695  24.535  0.00  0.00    +0.000 F 
ATOM     28  C   UNL     1      -1.252  13.733  23.444  0.00  0.00    +0.000 A 
ENDBRANCH  19  22
ENDBRANCH  14  16
ENDBRANCH  13  14
ENDBRANCH  12  13
ENDBRANCH   1  12
BRANCH   1  29
ATOM     29  C   UNL     1       3.965   5.008  17.496  0.00  0.00    +0.000 C 
BRANCH  29  30
ATOM     30  N   UNL     1       5.409   5.087  17.372  0.00  0.00    +0.000 N 
ATOM     31  C   UNL     1       6.135   5.786  16.458  0.00  0.00    +0.000 A 
ATOM     32  N   UNL     1       7.412   5.528  16.621  0.00  0.00    +0.000 NA
ATOM     33  C   UNL     1       7.415   4.637  17.654  0.00  0.00    +0.000 A 
ATOM     34  N   UNL     1       6.210   4.314  18.132  0.00  0.00    +0.000 NA
ENDBRANCH  29  30
ENDBRANCH   1  29
TORSDOF 9
ENDMDL
MODEL 3
REMARK VINA RESULT:      -7.7      2.491      4.154
REMARK  Name = 
REMARK  9 active torsions:
REMARK  status: ('A' for Active; 'I' for Inactive)
REMARK    1  A    between atoms: O_1  and  C_2
REMARK    2  A    between atoms: C_2  and  C_3
REMARK    3  A    between atoms: C_2  and  C_20
REMARK    4  A    between atoms: C_2  and  C_26
REMARK    5  A    between atoms: C_3  and  S_4
REMARK    6  A    between atoms: S_4  and  C_5
REMARK    7  A    between atoms: C_5  and  N_7
REMARK    8  A    between atoms: N_10  and  C_11
REMARK    9  A    between atoms: C_20  and  N_21
REMARK                            x       y       z     vdW  Elec       q    Type
REMARK                         _______ _______ _______ _____ _____    ______ ____
ROOT
ATOM      1  C   UNL     1       3.393   5.637  18.647  0.00  0.00    +0.000 C 
ENDROOT
BRANCH   1   2
ATOM      2  C   UNL     1       2.659   4.665  19.583  0.00  0.00    +0.000 A 
ATOM      3  C   UNL     1       3.105   4.458  20.903  0.00  0.00    +0.000 A 
ATOM      4  C   UNL     1       2.456   3.555  21.753  0.00  0.00    +0.000 A 
ATOM      5  C   UNL     1       1.357   2.845  21.292  0.00  0.00    +0.000 A 
ATOM      6  F   UNL     1       0.742   1.974  22.106  0.00  0.00    +0.000 F 
ATOM      7  C   UNL     1       0.881   3.034  20.005  0.00  0.00    +0.000 A 
ATOM      8  C   UNL     1       1.520   3.952  19.174  0.00  0.00    +0.000 A 
ATOM      9  F   UNL     1       1.000   4.159  17.957  0.00  0.00    +0.000 F 
ENDBRANCH   1   2
BRANCH   1  10
ATOM     10  O   UNL     1       4.542   6.154  19.363  0.00  0.00    +0.000 OA
ATOM     11  H   UNL     1       5.139   6.559  18.704  0.00  0.00    +0.000 HD
ENDBRANCH   1  10
BRANCH   1  12
ATOM     12  C   UNL     1       2.461   6.854  18.339  0.00  0.00    +0.000 C 
BRANCH  12  13
ATOM     13  S   UNL     1       1.907   7.708  19.877  0.00  0.00    +0.000 S 
BRANCH  13  14
ATOM     14  C   UNL     1       1.438   9.302  19.263  0.00  0.00    +0.000 C 
ATOM     15  S   UNL     1       1.966   9.794  17.744  0.00  0.00    +0.000 S 
BRANCH  14  16
ATOM     16  N   UNL     1       0.615  10.053  20.106  0.00  0.00    +0.000 N 
ATOM     17  C   UNL     1      -0.327   9.478  21.094  0.00  0.00    +0.000 C 
ATOM     18  C   UNL     1      -0.263  10.202  22.455  0.00  0.00    +0.000 C 
ATOM     19  N   UNL     1      -0.440  11.650  22.258  0.00  0.00    +0.000 N 
ATOM     20  C   UNL     1       0.483  12.253  21.279  0.00  0.00    +0.000 C 
ATOM     21  C   UNL     1       0.400  11.509  19.929  0.00  0.00    +0.000 C 
BRANCH  19  22
ATOM     22  C   UNL     1      -1.388  12.381  22.944  0.00  0.00    +0.000 A 
ATOM     23  C   UNL     1      -1.218  13.753  23.210  0.00  0.00    +0.000 A 
ATOM     24  C   UNL     1      -2.164  14.501  23.928  0.00  0.00    +0.000 A 
ATOM     25  C   UNL     1      -3.316  13.890  24.399  0.00  0.00    +0.000 A 
ATOM     26  C   UNL     1      -3.509  12.542  24.143  0.00  0.00    +0.000 A 
ATOM     27  F   UNL     1      -4.615  11.936  24.599  0.00  0.00    +0.000 F 
ATOM     28  C   UNL     1      -2.567  11.799  23.431  0.00  0.00    +0.000 A 
ENDBRANCH  19  22
ENDBRANCH  14  16
ENDBRANCH  13  14
ENDBRANCH  12  13
ENDBRANCH   1  12
BRANCH   1  29
ATOM     29  C   UNL     1       3.920   4.987  17.338  0.00  0.00    +0.000 C 
BRANCH  29  30
ATOM     30  N   UNL     1       5.335   5.190  17.090  0.00  0.00    +0.000 N 
ATOM     31  C   UNL     1       6.346   4.287  17.207  0.00  0.00    +0.000 A 
ATOM     32  N   UNL     1       7.495   4.880  16.982  0.00  0.00    +0.000 NA
ATOM     33  C   UNL     1       7.130   6.173  16.743  0.00  0.00    +0.000 A 
ATOM     34  N   UNL     1       5.819   6.420  16.824  0.00  0.00    +0.000 NA
ENDBRANCH  29  30
ENDBRANCH   1  29
TORSDOF 9
ENDMDL
MODEL 4
REMARK VINA RESULT:      -7.6      1.225      1.438
REMARK  Name = 
REMARK  9 active torsions:
REMARK  status: ('A' for Active; 'I' for Inactive)
REMARK    1  A    between atoms: O_1  and  C_2
REMARK    2  A    between atoms: C_2  and  C_3
REMARK    3  A    between atoms: C_2  and  C_20
REMARK    4  A    between atoms: C_2  and  C_26
REMARK    5  A    between atoms: C_3  and  S_4
REMARK    6  A    between atoms: S_4  and  C_5
REMARK    7  A    between atoms: C_5  and  N_7
REMARK    8  A    between atoms: N_10  and  C_11
REMARK    9  A    between atoms: C_20  and  N_21
REMARK                            x       y       z     vdW  Elec       q    Type
REMARK                         _______ _______ _______ _____ _____    ______ ____
ROOT
ATOM      1  C   UNL     1       3.002   5.965  18.421  0.00  0.00    +0.000 C 
ENDROOT
BRANCH   1   2
ATOM      2  C   UNL     1       4.205   5.629  17.527  0.00  0.00    +0.000 A 
ATOM      3  C   UNL     1       5.262   6.546  17.363  0.00  0.00    +0.000 A 
ATOM      4  C   UNL     1       6.350   6.256  16.530  0.00  0.00    +0.000 A 
ATOM      5  C   UNL     1       6.391   5.049  15.849  0.00  0.00    +0.000 A 
ATOM      6  F   UNL     1       7.430   4.777  15.045  0.00  0.00    +0.000 F 
ATOM      7  C   UNL     1       5.378   4.116  15.997  0.00  0.00    +0.000 A 
ATOM      8  C   UNL     1       4.310   4.404  16.846  0.00  0.00    +0.000 A 
ATOM      9  F   UNL     1       3.377   3.459  17.018  0.00  0.00    +0.000 F 
ENDBRANCH   1   2
BRANCH   1  10
ATOM     10  O   UNL     1       1.843   5.294  17.868  0.00  0.00    +0.000 OA
ATOM     11  H   UNL     1       1.049   5.728  18.237  0.00  0.00    +0.000 HD
ENDBRANCH   1  10
BRANCH   1  12
ATOM     12  C   UNL     1       2.720   7.501  18.345  0.00  0.00    +0.000 C 
BRANCH  12  13
ATOM     13  S   UNL     1       1.767   8.102  19.806  0.00  0.00    +0.000 S 
BRANCH  13  14
ATOM     14  C   UNL     1       1.270   9.718  19.279  0.00  0.00    +0.000 C 
ATOM     15  S   UNL     1       1.781  10.299  17.785  0.00  0.00    +0.000 S 
BRANCH  14  16
ATOM     16  N   UNL     1       0.439  10.411  20.164  0.00  0.00    +0.000 N 
ATOM     17  C   UNL     1      -0.434   9.770  21.174  0.00  0.00    +0.000 C 
ATOM     18  C   UNL     1      -0.359  10.474  22.545  0.00  0.00    +0.000 C 
ATOM     19  N   UNL     1      -0.619  11.913  22.381  0.00  0.00    +0.000 N 
ATOM     20  C   UNL     1       0.235  12.580  21.381  0.00  0.00    +0.000 C 
ATOM     21  C   UNL     1       0.142  11.856  20.021  0.00  0.00    +0.000 C 
BRANCH  19  22
ATOM     22  C   UNL     1      -1.579  12.582  23.114  0.00  0.00    +0.000 A 
ATOM     23  C   UNL     1      -2.821  11.994  23.421  0.00  0.00    +0.000 A 
ATOM     24  C   UNL     1      -3.814  12.674  24.143  0.00  0.00    +0.000 A 
ATOM     25  C   UNL     1      -3.585  13.969  24.584  0.00  0.00    +0.000 A 
ATOM     26  C   UNL     1      -2.367  14.565  24.300  0.00  0.00    +0.000 A 
ATOM     27  F   UNL     1      -2.134  15.820  24.713  0.00  0.00    +0.000 F 
ATOM     28  C   UNL     1      -1.381  13.889  23.579  0.00  0.00    +0.000 A 
ENDBRANCH  19  22
ENDBRANCH  14  16
ENDBRANCH  13  14
ENDBRANCH  12  13
ENDBRANCH   1  12
BRANCH   1  29
ATOM     29  C   UNL     1       3.150   5.491  19.893  0.00  0.00    +0.000 C 
BRANCH  29  30
ATOM     30  N   UNL     1       2.422   4.278  20.213  0.00  0.00    +0.000 N 
ATOM     31  C   UNL     1       2.866   2.993  20.151  0.00  0.00    +0.000 A 
ATOM     32  N   UNL     1       1.881   2.173  20.433  0.00  0.00    +0.000 NA
ATOM     33  C   UNL     1       0.831   3.018  20.649  0.00  0.00    +0.000 A 
ATOM     34  N   UNL     1       1.106   4.317  20.499  0.00  0.00    +0.000 NA
ENDBRANCH  29  30
ENDBRANCH   1  29
TORSDOF 9
ENDMDL
MODEL 5
REMARK VINA RESULT:      -7.6      1.902      2.562
REMARK  Name = 
REMARK  9 active torsions:
REMARK  status: ('A' for Active; 'I' for Inactive)
REMARK    1  A    between atoms: O_1  and  C_2
REMARK    2  A    between atoms: C_2  and  C_3
REMARK    3  A    between atoms: C_2  and  C_20
REMARK    4  A    between atoms: C_2  and  C_26
REMARK    5  A    between atoms: C_3  and  S_4
REMARK    6  A    between atoms: S_4  and  C_5
REMARK    7  A    between atoms: C_5  and  N_7
REMARK    8  A    between atoms: N_10  and  C_11
REMARK    9  A    between atoms: C_20  and  N_21
REMARK                            x       y       z     vdW  Elec       q    Type
REMARK                         _______ _______ _______ _____ _____    ______ ____
ROOT
ATOM      1  C   UNL     1       3.891   4.485  18.519  0.00  0.00    +0.000 C 
ENDROOT
BRANCH   1   2
ATOM      2  C   UNL     1       4.961   4.584  17.421  0.00  0.00    +0.000 A 
ATOM      3  C   UNL     1       4.597   4.625  16.060  0.00  0.00    +0.000 A 
ATOM      4  C   UNL     1       5.569   4.691  15.053  0.00  0.00    +0.000 A 
ATOM      5  C   UNL     1       6.913   4.711  15.395  0.00  0.00    +0.000 A 
ATOM      6  F   UNL     1       7.842   4.765  14.428  0.00  0.00    +0.000 F 
ATOM      7  C   UNL     1       7.307   4.688  16.723  0.00  0.00    +0.000 A 
ATOM      8  C   UNL     1       6.332   4.646  17.719  0.00  0.00    +0.000 A 
ATOM      9  F   UNL     1       6.741   4.687  18.993  0.00  0.00    +0.000 F 
ENDBRANCH   1   2
BRANCH   1  10
ATOM     10  O   UNL     1       2.594   4.503  17.872  0.00  0.00    +0.000 OA
ATOM     11  H   UNL     1       2.186   5.371  18.060  0.00  0.00    +0.000 HD
ENDBRANCH   1  10
BRANCH   1  12
ATOM     12  C   UNL     1       3.967   5.757  19.425  0.00  0.00    +0.000 C 
BRANCH  12  13
ATOM     13  S   UNL     1       2.293   6.391  19.870  0.00  0.00    +0.000 S 
BRANCH  13  14
ATOM     14  C   UNL     1       2.231   7.918  18.976  0.00  0.00    +0.000 C 
ATOM     15  S   UNL     1       3.019   8.048  17.496  0.00  0.00    +0.000 S 
BRANCH  14  16
ATOM     16  N   UNL     1       1.484   8.936  19.576  0.00  0.00    +0.000 N 
ATOM     17  C   UNL     1       1.238  10.266  18.973  0.00  0.00    +0.000 C 
ATOM     18  C   UNL     1      -0.232  10.713  19.119  0.00  0.00    +0.000 C 
ATOM     19  N   UNL     1      -0.641  10.630  20.531  0.00  0.00    +0.000 N 
ATOM     20  C   UNL     1      -0.406   9.317  21.160  0.00  0.00    +0.000 C 
ATOM     21  C   UNL     1       1.069   8.895  20.999  0.00  0.00    +0.000 C 
BRANCH  19  22
ATOM     22  C   UNL     1      -1.205  11.694  21.204  0.00  0.00    +0.000 A 
ATOM     23  C   UNL     1      -0.803  12.046  22.506  0.00  0.00    +0.000 A 
ATOM     24  C   UNL     1      -1.387  13.111  23.209  0.00  0.00    +0.000 A 
ATOM     25  C   UNL     1      -2.394  13.860  22.620  0.00  0.00    +0.000 A 
ATOM     26  C   UNL     1      -2.801  13.537  21.336  0.00  0.00    +0.000 A 
ATOM     27  F   UNL     1      -3.779  14.248  20.755  0.00  0.00    +0.000 F 
ATOM     28  C   UNL     1      -2.221  12.476  20.638  0.00  0.00    +0.000 A 
ENDBRANCH  19  22
ENDBRANCH  14  16
ENDBRANCH  13  14
ENDBRANCH  12  13
ENDBRANCH   1  12
BRANCH   1  29
ATOM     29  C   UNL     1       3.965   3.184  19.366  0.00  0.00    +0.000 C 
BRANCH  29  30
ATOM     30  N   UNL     1       2.823   2.962  20.233  0.00  0.00    +0.000 N 
ATOM     31  C   UNL     1       2.801   2.908  21.592  0.00  0.00    +0.000 A 
ATOM     32  N   UNL     1       1.592   2.599  22.000  0.00  0.00    +0.000 NA
ATOM     33  C   UNL     1       0.902   2.454  20.832  0.00  0.00    +0.000 A 
ATOM     34  N   UNL     1       1.619   2.641  19.720  0.00  0.00    +0.000 NA
ENDBRANCH  29  30
ENDBRANCH   1  29
TORSDOF 9
ENDMDL
MODEL 6
REMARK VINA RESULT:      -7.6      1.183      1.442
REMARK  Name = 
REMARK  9 active torsions:
REMARK  status: ('A' for Active; 'I' for Inactive)
REMARK    1  A    between atoms: O_1  and  C_2
REMARK    2  A    between atoms: C_2  and  C_3
REMARK    3  A    between atoms: C_2  and  C_20
REMARK    4  A    between atoms: C_2  and  C_26
REMARK    5  A    between atoms: C_3  and  S_4
REMARK    6  A    between atoms: S_4  and  C_5
REMARK    7  A    between atoms: C_5  and  N_7
REMARK    8  A    between atoms: N_10  and  C_11
REMARK    9  A    between atoms: C_20  and  N_21
REMARK                            x       y       z     vdW  Elec       q    Type
REMARK                         _______ _______ _______ _____ _____    ______ ____
ROOT
ATOM      1  C   UNL     1       3.335   5.809  18.481  0.00  0.00    +0.000 C 
ENDROOT
BRANCH   1   2
ATOM      2  C   UNL     1       4.441   5.535  17.451  0.00  0.00    +0.000 A 
ATOM      3  C   UNL     1       5.487   6.456  17.252  0.00  0.00    +0.000 A 
ATOM      4  C   UNL     1       6.486   6.223  16.298  0.00  0.00    +0.000 A 
ATOM      5  C   UNL     1       6.446   5.070  15.529  0.00  0.00    +0.000 A 
ATOM      6  F   UNL     1       7.399   4.853  14.610  0.00  0.00    +0.000 F 
ATOM      7  C   UNL     1       5.441   4.133  15.708  0.00  0.00    +0.000 A 
ATOM      8  C   UNL     1       4.465   4.363  16.676  0.00  0.00    +0.000 A 
ATOM      9  F   UNL     1       3.542   3.412  16.869  0.00  0.00    +0.000 F 
ENDBRANCH   1   2
BRANCH   1  10
ATOM     10  O   UNL     1       2.087   5.323  17.926  0.00  0.00    +0.000 OA
ATOM     11  H   UNL     1       1.394   5.973  18.151  0.00  0.00    +0.000 HD
ENDBRANCH   1  10
BRANCH   1  12
ATOM     12  C   UNL     1       3.180   7.353  18.668  0.00  0.00    +0.000 C 
BRANCH  12  13
ATOM     13  S   UNL     1       1.865   7.774  19.892  0.00  0.00    +0.000 S 
BRANCH  13  14
ATOM     14  C   UNL     1       1.248   9.306  19.254  0.00  0.00    +0.000 C 
ATOM     15  S   UNL     1       1.615   9.758  17.677  0.00  0.00    +0.000 S 
BRANCH  14  16
ATOM     16  N   UNL     1       0.451  10.046  20.133  0.00  0.00    +0.000 N 
ATOM     17  C   UNL     1      -0.241   9.485  21.316  0.00  0.00    +0.000 C 
ATOM     18  C   UNL     1      -0.090  10.383  22.563  0.00  0.00    +0.000 C 
ATOM     19  N   UNL     1      -0.509  11.756  22.242  0.00  0.00    +0.000 N 
ATOM     20  C   UNL     1       0.161  12.343  21.066  0.00  0.00    +0.000 C 
ATOM     21  C   UNL     1      -0.003  11.426  19.836  0.00  0.00    +0.000 C 
BRANCH  19  22
ATOM     22  C   UNL     1      -1.448  12.439  22.988  0.00  0.00    +0.000 A 
ATOM     23  C   UNL     1      -1.207  13.739  23.473  0.00  0.00    +0.000 A 
ATOM     24  C   UNL     1      -2.144  14.433  24.254  0.00  0.00    +0.000 A 
ATOM     25  C   UNL     1      -3.357  13.841  24.569  0.00  0.00    +0.000 A 
ATOM     26  C   UNL     1      -3.619  12.565  24.097  0.00  0.00    +0.000 A 
ATOM     27  F   UNL     1      -4.786  11.976  24.400  0.00  0.00    +0.000 F 
ATOM     28  C   UNL     1      -2.686  11.874  23.322  0.00  0.00    +0.000 A 
ENDBRANCH  19  22
ENDBRANCH  14  16
ENDBRANCH  13  14
ENDBRANCH  12  13
ENDBRANCH   1  12
BRANCH   1  29
ATOM     29  C   UNL     1       3.542   5.094  19.845  0.00  0.00    +0.000 C 
BRANCH  29  30
ATOM     30  N   UNL     1       2.573   4.054  20.135  0.00  0.00    +0.000 N 
ATOM     31  C   UNL     1       1.538   4.093  21.017  0.00  0.00    +0.000 A 
ATOM     32  N   UNL     1       0.947   2.922  21.056  0.00  0.00    +0.000 NA
ATOM     33  C   UNL     1       1.681   2.180  20.175  0.00  0.00    +0.000 A 
ATOM     34  N   UNL     1       2.705   2.821  19.605  0.00  0.00    +0.000 NA
ENDBRANCH  29  30
ENDBRANCH   1  29
TORSDOF 9
ENDMDL
MODEL 7
REMARK VINA RESULT:      -7.6      1.176      1.509
REMARK  Name = 
REMARK  9 active torsions:
REMARK  status: ('A' for Active; 'I' for Inactive)
REMARK    1  A    between atoms: O_1  and  C_2
REMARK    2  A    between atoms: C_2  and  C_3
REMARK    3  A    between atoms: C_2  and  C_20
REMARK    4  A    between atoms: C_2  and  C_26
REMARK    5  A    between atoms: C_3  and  S_4
REMARK    6  A    between atoms: S_4  and  C_5
REMARK    7  A    between atoms: C_5  and  N_7
REMARK    8  A    between atoms: N_10  and  C_11
REMARK    9  A    between atoms: C_20  and  N_21
REMARK                            x       y       z     vdW  Elec       q    Type
REMARK                         _______ _______ _______ _____ _____    ______ ____
ROOT
ATOM      1  C   UNL     1       3.019   5.334  18.296  0.00  0.00    +0.000 C 
ENDROOT
BRANCH   1   2
ATOM      2  C   UNL     1       4.106   5.247  17.214  0.00  0.00    +0.000 A 
ATOM      3  C   UNL     1       4.617   6.411  16.609  0.00  0.00    +0.000 A 
ATOM      4  C   UNL     1       5.591   6.337  15.604  0.00  0.00    +0.000 A 
ATOM      5  C   UNL     1       6.061   5.099  15.193  0.00  0.00    +0.000 A 
ATOM      6  F   UNL     1       6.988   5.031  14.225  0.00  0.00    +0.000 F 
ATOM      7  C   UNL     1       5.593   3.934  15.777  0.00  0.00    +0.000 A 
ATOM      8  C   UNL     1       4.641   4.018  16.791  0.00  0.00    +0.000 A 
ATOM      9  F   UNL     1       4.253   2.880  17.379  0.00  0.00    +0.000 F 
ENDBRANCH   1   2
BRANCH   1  10
ATOM     10  O   UNL     1       2.105   4.228  18.091  0.00  0.00    +0.000 OA
ATOM     11  H   UNL     1       2.044   3.738  18.934  0.00  0.00    +0.000 HD
ENDBRANCH   1  10
BRANCH   1  12
ATOM     12  C   UNL     1       2.197   6.648  18.093  0.00  0.00    +0.000 C 
BRANCH  12  13
ATOM     13  S   UNL     1       1.939   7.555  19.679  0.00  0.00    +0.000 S 
BRANCH  13  14
ATOM     14  C   UNL     1       1.470   9.165  19.108  0.00  0.00    +0.000 C 
ATOM     15  S   UNL     1       2.246   9.831  17.773  0.00  0.00    +0.000 S 
BRANCH  14  16
ATOM     16  N   UNL     1       0.436   9.778  19.821  0.00  0.00    +0.000 N 
ATOM     17  C   UNL     1       0.222   9.640  21.280  0.00  0.00    +0.000 C 
ATOM     18  C   UNL     1      -0.097  10.990  21.955  0.00  0.00    +0.000 C 
ATOM     19  N   UNL     1      -1.220  11.641  21.263  0.00  0.00    +0.000 N 
ATOM     20  C   UNL     1      -1.038  11.792  19.807  0.00  0.00    +0.000 C 
ATOM     21  C   UNL     1      -0.719  10.429  19.158  0.00  0.00    +0.000 C 
BRANCH  19  22
ATOM     22  C   UNL     1      -2.347  12.081  21.927  0.00  0.00    +0.000 A 
ATOM     23  C   UNL     1      -2.483  11.952  23.323  0.00  0.00    +0.000 A 
ATOM     24  C   UNL     1      -3.634  12.374  24.005  0.00  0.00    +0.000 A 
ATOM     25  C   UNL     1      -4.686  12.943  23.303  0.00  0.00    +0.000 A 
ATOM     26  C   UNL     1      -4.572  13.086  21.930  0.00  0.00    +0.000 A 
ATOM     27  F   UNL     1      -5.584  13.628  21.237  0.00  0.00    +0.000 F 
ATOM     28  C   UNL     1      -3.427  12.665  21.252  0.00  0.00    +0.000 A 
ENDBRANCH  19  22
ENDBRANCH  14  16
ENDBRANCH  13  14
ENDBRANCH  12  13
ENDBRANCH   1  12
BRANCH   1  29
ATOM     29  C   UNL     1       3.556   5.224  19.750  0.00  0.00    +0.000 C 
BRANCH  29  30
ATOM     30  N   UNL     1       3.016   4.112  20.511  0.00  0.00    +0.000 N 
ATOM     31  C   UNL     1       2.103   4.151  21.519  0.00  0.00    +0.000 A 
ATOM     32  N   UNL     1       1.941   2.945  22.012  0.00  0.00    +0.000 NA
ATOM     33  C   UNL     1       2.804   2.192  21.270  0.00  0.00    +0.000 A 
ATOM     34  N   UNL     1       3.506   2.867  20.355  0.00  0.00    +0.000 NA
ENDBRANCH  29  30
ENDBRANCH   1  29
TORSDOF 9
ENDMDL
MODEL 8
REMARK VINA RESULT:      -7.5      1.991      2.378
REMARK  Name = 
REMARK  9 active torsions:
REMARK  status: ('A' for Active; 'I' for Inactive)
REMARK    1  A    between atoms: O_1  and  C_2
REMARK    2  A    between atoms: C_2  and  C_3
REMARK    3  A    between atoms: C_2  and  C_20
REMARK    4  A    between atoms: C_2  and  C_26
REMARK    5  A    between atoms: C_3  and  S_4
REMARK    6  A    between atoms: S_4  and  C_5
REMARK    7  A    between atoms: C_5  and  N_7
REMARK    8  A    between atoms: N_10  and  C_11
REMARK    9  A    between atoms: C_20  and  N_21
REMARK                            x       y       z     vdW  Elec       q    Type
REMARK                         _______ _______ _______ _____ _____    ______ ____
ROOT
ATOM      1  C   UNL     1       3.019   6.169  18.347  0.00  0.00    +0.000 C 
ENDROOT
BRANCH   1   2
ATOM      2  C   UNL     1       4.214   5.753  17.476  0.00  0.00    +0.000 A 
ATOM      3  C   UNL     1       5.280   6.642  17.240  0.00  0.00    +0.000 A 
ATOM      4  C   UNL     1       6.360   6.277  16.427  0.00  0.00    +0.000 A 
ATOM      5  C   UNL     1       6.385   5.022  15.838  0.00  0.00    +0.000 A 
ATOM      6  F   UNL     1       7.416   4.678  15.053  0.00  0.00    +0.000 F 
ATOM      7  C   UNL     1       5.361   4.115  16.061  0.00  0.00    +0.000 A 
ATOM      8  C   UNL     1       4.301   4.479  16.890  0.00  0.00    +0.000 A 
ATOM      9  F   UNL     1       3.359   3.561  17.137  0.00  0.00    +0.000 F 
ENDBRANCH   1   2
BRANCH   1  10
ATOM     10  O   UNL     1       1.849   5.473  17.850  0.00  0.00    +0.000 OA
ATOM     11  H   UNL     1       1.158   6.144  17.685  0.00  0.00    +0.000 HD
ENDBRANCH   1  10
BRANCH   1  12
ATOM     12  C   UNL     1       2.755   7.698  18.159  0.00  0.00    +0.000 C 
BRANCH  12  13
ATOM     13  S   UNL     1       1.570   8.356  19.411  0.00  0.00    +0.000 S 
BRANCH  13  14
ATOM     14  C   UNL     1       1.166   9.942  18.734  0.00  0.00    +0.000 C 
ATOM     15  S   UNL     1       2.340  10.817  17.908  0.00  0.00    +0.000 S 
BRANCH  14  16
ATOM     16  N   UNL     1      -0.156  10.357  18.923  0.00  0.00    +0.000 N 
ATOM     17  C   UNL     1      -0.718  10.813  20.215  0.00  0.00    +0.000 C 
ATOM     18  C   UNL     1      -1.582  12.082  20.063  0.00  0.00    +0.000 C 
ATOM     19  N   UNL     1      -2.605  11.868  19.027  0.00  0.00    +0.000 N 
ATOM     20  C   UNL     1      -2.076  11.412  17.729  0.00  0.00    +0.000 C 
ATOM     21  C   UNL     1      -1.216  10.144  17.910  0.00  0.00    +0.000 C 
BRANCH  19  22
ATOM     22  C   UNL     1      -3.948  12.086  19.255  0.00  0.00    +0.000 A 
ATOM     23  C   UNL     1      -4.415  12.653  20.457  0.00  0.00    +0.000 A 
ATOM     24  C   UNL     1      -5.780  12.856  20.710  0.00  0.00    +0.000 A 
ATOM     25  C   UNL     1      -6.721  12.498  19.756  0.00  0.00    +0.000 A 
ATOM     26  C   UNL     1      -6.285  11.945  18.563  0.00  0.00    +0.000 A 
ATOM     27  F   UNL     1      -7.185  11.588  17.634  0.00  0.00    +0.000 F 
ATOM     28  C   UNL     1      -4.927  11.742  18.313  0.00  0.00    +0.000 A 
ENDBRANCH  19  22
ENDBRANCH  14  16
ENDBRANCH  13  14
ENDBRANCH  12  13
ENDBRANCH   1  12
BRANCH   1  29
ATOM     29  C   UNL     1       3.168   5.804  19.851  0.00  0.00    +0.000 C 
BRANCH  29  30
ATOM     30  N   UNL     1       2.511   4.571  20.241  0.00  0.00    +0.000 N 
ATOM     31  C   UNL     1       3.055   3.328  20.348  0.00  0.00    +0.000 A 
ATOM     32  N   UNL     1       2.115   2.460  20.639  0.00  0.00    +0.000 NA
ATOM     33  C   UNL     1       0.989   3.231  20.684  0.00  0.00    +0.000 A 
ATOM     34  N   UNL     1       1.176   4.527  20.420  0.00  0.00    +0.000 NA
ENDBRANCH  29  30
ENDBRANCH   1  29
TORSDOF 9
ENDMDL
MODEL 9
REMARK VINA RESULT:      -7.5      1.897      2.518
REMARK  Name = 
REMARK  9 active torsions:
REMARK  status: ('A' for Active; 'I' for Inactive)
REMARK    1  A    between atoms: O_1  and  C_2
REMARK    2  A    between atoms: C_2  and  C_3
REMARK    3  A    between atoms: C_2  and  C_20
REMARK    4  A    between atoms: C_2  and  C_26
REMARK    5  A    between atoms: C_3  and  S_4
REMARK    6  A    between atoms: S_4  and  C_5
REMARK    7  A    between atoms: C_5  and  N_7
REMARK    8  A    between atoms: N_10  and  C_11
REMARK    9  A    between atoms: C_20  and  N_21
REMARK                            x       y       z     vdW  Elec       q    Type
REMARK                         _______ _______ _______ _____ _____    ______ ____
ROOT
ATOM      1  C   UNL     1       4.040   4.410  18.268  0.00  0.00    +0.000 C 
ENDROOT
BRANCH   1   2
ATOM      2  C   UNL     1       5.066   4.585  17.138  0.00  0.00    +0.000 A 
ATOM      3  C   UNL     1       4.652   4.672  15.795  0.00  0.00    +0.000 A 
ATOM      4  C   UNL     1       5.584   4.807  14.757  0.00  0.00    +0.000 A 
ATOM      5  C   UNL     1       6.938   4.851  15.052  0.00  0.00    +0.000 A 
ATOM      6  F   UNL     1       7.829   4.971  14.056  0.00  0.00    +0.000 F 
ATOM      7  C   UNL     1       7.381   4.783  16.362  0.00  0.00    +0.000 A 
ATOM      8  C   UNL     1       6.446   4.672  17.389  0.00  0.00    +0.000 A 
ATOM      9  F   UNL     1       6.899   4.671  18.649  0.00  0.00    +0.000 F 
ENDBRANCH   1   2
BRANCH   1  10
ATOM     10  O   UNL     1       2.719   4.470  17.676  0.00  0.00    +0.000 OA
ATOM     11  H   UNL     1       2.686   5.268  17.114  0.00  0.00    +0.000 HD
ENDBRANCH   1  10
BRANCH   1  12
ATOM     12  C   UNL     1       4.153   5.618  19.255  0.00  0.00    +0.000 C 
BRANCH  12  13
ATOM     13  S   UNL     1       2.505   6.151  19.888  0.00  0.00    +0.000 S 
BRANCH  13  14
ATOM     14  C   UNL     1       2.291   7.714  19.082  0.00  0.00    +0.000 C 
ATOM     15  S   UNL     1       3.161   8.053  17.684  0.00  0.00    +0.000 S 
BRANCH  14  16
ATOM     16  N   UNL     1       1.362   8.574  19.675  0.00  0.00    +0.000 N 
ATOM     17  C   UNL     1       0.752   8.364  21.008  0.00  0.00    +0.000 C 
ATOM     18  C   UNL     1       0.723   9.657  21.849  0.00  0.00    +0.000 C 
ATOM     19  N   UNL     1       0.082  10.737  21.081  0.00  0.00    +0.000 N 
ATOM     20  C   UNL     1       0.667  10.970  19.748  0.00  0.00    +0.000 C 
ATOM     21  C   UNL     1       0.686   9.662  18.929  0.00  0.00    +0.000 C 
BRANCH  19  22
ATOM     22  C   UNL     1      -0.974  11.474  21.577  0.00  0.00    +0.000 A 
ATOM     23  C   UNL     1      -1.366  11.394  22.927  0.00  0.00    +0.000 A 
ATOM     24  C   UNL     1      -2.454  12.121  23.435  0.00  0.00    +0.000 A 
ATOM     25  C   UNL     1      -3.180  12.956  22.600  0.00  0.00    +0.000 A 
ATOM     26  C   UNL     1      -2.807  13.056  21.269  0.00  0.00    +0.000 A 
ATOM     27  F   UNL     1      -3.505  13.855  20.448  0.00  0.00    +0.000 F 
ATOM     28  C   UNL     1      -1.727  12.332  20.763  0.00  0.00    +0.000 A 
ENDBRANCH  19  22
ENDBRANCH  14  16
ENDBRANCH  13  14
ENDBRANCH  12  13
ENDBRANCH   1  12
BRANCH   1  29
ATOM     29  C   UNL     1       4.147   3.056  19.022  0.00  0.00    +0.000 C 
BRANCH  29  30
ATOM     30  N   UNL     1       3.026   2.761  19.896  0.00  0.00    +0.000 N 
ATOM     31  C   UNL     1       1.742   2.478  19.547  0.00  0.00    +0.000 A 
ATOM     32  N   UNL     1       1.007   2.359  20.628  0.00  0.00    +0.000 NA
ATOM     33  C   UNL     1       1.900   2.599  21.632  0.00  0.00    +0.000 A 
ATOM     34  N   UNL     1       3.145   2.877  21.234  0.00  0.00    +0.000 NA
ENDBRANCH  29  30
ENDBRANCH   1  29
TORSDOF 9
ENDMDL
