MODEL 1
REMARK VINA RESULT:      -6.5      0.000      0.000
REMARK  Name = 
REMARK  7 active torsions:
REMARK  status: ('A' for Active; 'I' for Inactive)
REMARK    1  A    between atoms: C_1  and  C_2
REMARK    2  A    between atoms: C_3  and  C_4
REMARK    3  A    between atoms: C_4  and  O_5
REMARK    4  A    between atoms: C_14  and  O_15
REMARK    5  A    between atoms: C_20  and  O_21
REMARK    6  A    between atoms: O_21  and  C_22
REMARK    7  A    between atoms: C_24  and  C_25
REMARK                            x       y       z     vdW  Elec       q    Type
REMARK                         _______ _______ _______ _____ _____    ______ ____
ROOT
ATOM      1  C   UNL     1      11.137  14.564  17.774  0.00  0.00    +0.000 C 
ATOM      2  C   UNL     1      10.228  15.378  18.642  0.00  0.00    +0.000 C 
ATOM      3  C   UNL     1      11.253  15.750  19.717  0.00  0.00    +0.000 C 
ATOM      4  C   UNL     1      11.548  14.368  20.277  0.00  0.00    +0.000 C 
ATOM      5  C   UNL     1      10.350  14.267  21.280  0.00  0.00    +0.000 C 
ATOM      6  C   UNL     1      10.364  15.319  22.419  0.00  0.00    +0.000 C 
ATOM      7  C   UNL     1       8.914  15.778  22.530  0.00  0.00    +0.000 C 
ATOM      8  C   UNL     1       8.003  14.578  22.706  0.00  0.00    +0.000 A 
ATOM      9  C   UNL     1       6.675  14.838  23.059  0.00  0.00    +0.000 A 
ATOM     10  C   UNL     1       5.801  13.780  23.263  0.00  0.00    +0.000 A 
ATOM     11  C   UNL     1       6.252  12.460  23.155  0.00  0.00    +0.000 A 
ATOM     12  C   UNL     1       7.568  12.192  22.750  0.00  0.00    +0.000 A 
ATOM     13  C   UNL     1       8.450  13.238  22.460  0.00  0.00    +0.000 A 
ATOM     14  C   UNL     1       9.863  12.969  21.882  0.00  0.00    +0.000 C 
ATOM     15  C   UNL     1      10.110  11.883  20.826  0.00  0.00    +0.000 C 
ATOM     16  C   UNL     1      11.429  12.124  20.038  0.00  0.00    +0.000 C 
ATOM     17  C   UNL     1      11.785  13.416  18.923  0.00  0.00    +0.000 C 
ATOM     18  C   UNL     1      11.680  12.257  17.856  0.00  0.00    +0.000 C 
ENDROOT
BRANCH   1  21
ATOM     19  C   UNL     1      11.280  18.286  17.218  0.00  0.00    +0.000 C 
ATOM     20  C   UNL     1      11.913  16.920  17.012  0.00  0.00    +0.000 C 
ATOM     21  C   UNL     1      11.974  15.709  17.179  0.00  0.00    +0.000 C 
ENDBRANCH   1  21
BRANCH   1  22
ATOM     22  O   UNL     1      10.364  14.063  16.686  0.00  0.00    +0.000 OA
ATOM     23  H   UNL     1      10.750  13.172  16.488  0.00  0.00    +0.000 HD
ENDBRANCH   1  22
BRANCH  10  24
ATOM     24  O   UNL     1       4.495  14.002  23.596  0.00  0.00    +0.000 OA
ATOM     25  H   UNL     1       4.213  13.295  24.193  0.00  0.00    +0.000 HD
ENDBRANCH  10  24
BRANCH  15  26
ATOM     26  O   UNL     1       9.038  11.361  20.058  0.00  0.00    +0.000 OA
ATOM     27  C   UNL     1       9.202  10.162  19.337  0.00  0.00    +0.000 C 
ENDBRANCH  15  26
TORSDOF 4
ENDMDL
MODEL 2
REMARK VINA RESULT:      -6.4      9.098     11.600
REMARK  Name = 
REMARK  7 active torsions:
REMARK  status: ('A' for Active; 'I' for Inactive)
REMARK    1  A    between atoms: C_1  and  C_2
REMARK    2  A    between atoms: C_3  and  C_4
REMARK    3  A    between atoms: C_4  and  O_5
REMARK    4  A    between atoms: C_14  and  O_15
REMARK    5  A    between atoms: C_20  and  O_21
REMARK    6  A    between atoms: O_21  and  C_22
REMARK    7  A    between atoms: C_24  and  C_25
REMARK                            x       y       z     vdW  Elec       q    Type
REMARK                         _______ _______ _______ _____ _____    ______ ____
ROOT
ATOM      1  C   UNL     1       6.718   4.675  15.847  0.00  0.00    +0.000 C 
ATOM      2  C   UNL     1       5.816   3.545  16.238  0.00  0.00    +0.000 C 
ATOM      3  C   UNL     1       4.608   3.947  15.389  0.00  0.00    +0.000 C 
ATOM      4  C   UNL     1       4.252   5.265  16.058  0.00  0.00    +0.000 C 
ATOM      5  C   UNL     1       3.391   4.699  17.236  0.00  0.00    +0.000 C 
ATOM      6  C   UNL     1       2.102   3.955  16.801  0.00  0.00    +0.000 C 
ATOM      7  C   UNL     1       2.050   2.725  17.702  0.00  0.00    +0.000 C 
ATOM      8  C   UNL     1       2.152   3.144  19.156  0.00  0.00    +0.000 A 
ATOM      9  C   UNL     1       1.884   2.163  20.116  0.00  0.00    +0.000 A 
ATOM     10  C   UNL     1       1.932   2.494  21.464  0.00  0.00    +0.000 A 
ATOM     11  C   UNL     1       2.209   3.806  21.860  0.00  0.00    +0.000 A 
ATOM     12  C   UNL     1       2.531   4.782  20.905  0.00  0.00    +0.000 A 
ATOM     13  C   UNL     1       2.568   4.460  19.544  0.00  0.00    +0.000 A 
ATOM     14  C   UNL     1       3.053   5.482  18.484  0.00  0.00    +0.000 C 
ATOM     15  C   UNL     1       4.242   6.415  18.745  0.00  0.00    +0.000 C 
ATOM     16  C   UNL     1       4.859   6.959  17.425  0.00  0.00    +0.000 C 
ATOM     17  C   UNL     1       5.715   6.064  16.199  0.00  0.00    +0.000 C 
ATOM     18  C   UNL     1       6.960   6.842  16.781  0.00  0.00    +0.000 C 
ENDROOT
BRANCH   1  21
ATOM     19  C   UNL     1       8.201   5.757  12.559  0.00  0.00    +0.000 C 
ATOM     20  C   UNL     1       7.508   4.679  13.376  0.00  0.00    +0.000 C 
ATOM     21  C   UNL     1       7.044   4.225  14.413  0.00  0.00    +0.000 C 
ENDBRANCH   1  21
BRANCH   1  22
ATOM     22  O   UNL     1       7.938   4.527  16.571  0.00  0.00    +0.000 OA
ATOM     23  H   UNL     1       8.652   4.610  15.888  0.00  0.00    +0.000 HD
ENDBRANCH   1  22
BRANCH  10  24
ATOM     24  O   UNL     1       1.687   1.555  22.425  0.00  0.00    +0.000 OA
ATOM     25  H   UNL     1       2.026   0.706  22.110  0.00  0.00    +0.000 HD
ENDBRANCH  10  24
BRANCH  15  26
ATOM     26  O   UNL     1       5.178   6.126  19.771  0.00  0.00    +0.000 OA
ATOM     27  C   UNL     1       6.149   5.123  19.583  0.00  0.00    +0.000 C 
ENDBRANCH  15  26
TORSDOF 4
ENDMDL
MODEL 3
REMARK VINA RESULT:      -6.3      1.283      1.460
REMARK  Name = 
REMARK  7 active torsions:
REMARK  status: ('A' for Active; 'I' for Inactive)
REMARK    1  A    between atoms: C_1  and  C_2
REMARK    2  A    between atoms: C_3  and  C_4
REMARK    3  A    between atoms: C_4  and  O_5
REMARK    4  A    between atoms: C_14  and  O_15
REMARK    5  A    between atoms: C_20  and  O_21
REMARK    6  A    between atoms: O_21  and  C_22
REMARK    7  A    between atoms: C_24  and  C_25
REMARK                            x       y       z     vdW  Elec       q    Type
REMARK                         _______ _______ _______ _____ _____    ______ ____
ROOT
ATOM      1  C   UNL     1       9.453  15.623  18.154  0.00  0.00    +0.000 C 
ATOM      2  C   UNL     1       8.670  16.008  19.372  0.00  0.00    +0.000 C 
ATOM      3  C   UNL     1       9.840  16.537  20.206  0.00  0.00    +0.000 C 
ATOM      4  C   UNL     1      10.632  15.250  20.377  0.00  0.00    +0.000 C 
ATOM      5  C   UNL     1       9.859  14.666  21.607  0.00  0.00    +0.000 C 
ATOM      6  C   UNL     1       9.945  15.523  22.896  0.00  0.00    +0.000 C 
ATOM      7  C   UNL     1       8.528  15.503  23.462  0.00  0.00    +0.000 C 
ATOM      8  C   UNL     1       8.050  14.071  23.610  0.00  0.00    +0.000 A 
ATOM      9  C   UNL     1       6.869  13.870  24.332  0.00  0.00    +0.000 A 
ATOM     10  C   UNL     1       6.398  12.580  24.528  0.00  0.00    +0.000 A 
ATOM     11  C   UNL     1       7.117  11.483  24.041  0.00  0.00    +0.000 A 
ATOM     12  C   UNL     1       8.273  11.679  23.271  0.00  0.00    +0.000 A 
ATOM     13  C   UNL     1       8.730  12.971  22.990  0.00  0.00    +0.000 A 
ATOM     14  C   UNL     1       9.923  13.217  22.031  0.00  0.00    +0.000 C 
ATOM     15  C   UNL     1      10.110  12.398  20.748  0.00  0.00    +0.000 C 
ATOM     16  C   UNL     1      11.024  13.124  19.719  0.00  0.00    +0.000 C 
ATOM     17  C   UNL     1      10.687  14.591  18.841  0.00  0.00    +0.000 C 
ATOM     18  C   UNL     1      10.565  13.598  17.620  0.00  0.00    +0.000 C 
ENDROOT
BRANCH   1  21
ATOM     19  C   UNL     1      12.174  18.148  17.518  0.00  0.00    +0.000 C 
ATOM     20  C   UNL     1      10.695  17.799  17.482  0.00  0.00    +0.000 C 
ATOM     21  C   UNL     1       9.751  17.033  17.616  0.00  0.00    +0.000 C 
ENDBRANCH   1  21
BRANCH   1  22
ATOM     22  O   UNL     1       8.543  15.050  17.217  0.00  0.00    +0.000 OA
ATOM     23  H   UNL     1       8.490  14.092  17.466  0.00  0.00    +0.000 HD
ENDBRANCH   1  22
BRANCH  10  24
ATOM     24  O   UNL     1       5.241  12.352  25.217  0.00  0.00    +0.000 OA
ATOM     25  H   UNL     1       4.757  13.188  25.276  0.00  0.00    +0.000 HD
ENDBRANCH  10  24
BRANCH  15  26
ATOM     26  O   UNL     1       9.027  11.676  20.184  0.00  0.00    +0.000 OA
ATOM     27  C   UNL     1       9.271  10.520  19.416  0.00  0.00    +0.000 C 
ENDBRANCH  15  26
TORSDOF 4
ENDMDL
MODEL 4
REMARK VINA RESULT:      -6.2      9.522     12.820
REMARK  Name = 
REMARK  7 active torsions:
REMARK  status: ('A' for Active; 'I' for Inactive)
REMARK    1  A    between atoms: C_1  and  C_2
REMARK    2  A    between atoms: C_3  and  C_4
REMARK    3  A    between atoms: C_4  and  O_5
REMARK    4  A    between atoms: C_14  and  O_15
REMARK    5  A    between atoms: C_20  and  O_21
REMARK    6  A    between atoms: O_21  and  C_22
REMARK    7  A    between atoms: C_24  and  C_25
REMARK                            x       y       z     vdW  Elec       q    Type
REMARK                         _______ _______ _______ _____ _____    ______ ____
ROOT
ATOM      1  C   UNL     1       0.555  10.115  19.329  0.00  0.00    +0.000 C 
ATOM      2  C   UNL     1      -0.833   9.633  19.039  0.00  0.00    +0.000 C 
ATOM      3  C   UNL     1      -1.038  10.386  17.722  0.00  0.00    +0.000 C 
ATOM      4  C   UNL     1      -0.989  11.816  18.236  0.00  0.00    +0.000 C 
ATOM      5  C   UNL     1      -2.482  11.949  18.687  0.00  0.00    +0.000 C 
ATOM      6  C   UNL     1      -3.521  11.828  17.542  0.00  0.00    +0.000 C 
ATOM      7  C   UNL     1      -4.629  10.958  18.126  0.00  0.00    +0.000 C 
ATOM      8  C   UNL     1      -5.110  11.543  19.440  0.00  0.00    +0.000 A 
ATOM      9  C   UNL     1      -6.279  11.000  19.983  0.00  0.00    +0.000 A 
ATOM     10  C   UNL     1      -6.785  11.515  21.169  0.00  0.00    +0.000 A 
ATOM     11  C   UNL     1      -6.154  12.593  21.797  0.00  0.00    +0.000 A 
ATOM     12  C   UNL     1      -4.953  13.108  21.287  0.00  0.00    +0.000 A 
ATOM     13  C   UNL     1      -4.376  12.558  20.137  0.00  0.00    +0.000 A 
ATOM     14  C   UNL     1      -2.984  13.017  19.631  0.00  0.00    +0.000 C 
ATOM     15  C   UNL     1      -1.832  13.316  20.599  0.00  0.00    +0.000 C 
ATOM     16  C   UNL     1      -0.446  13.252  19.895  0.00  0.00    +0.000 C 
ATOM     17  C   UNL     1       0.352  11.849  19.236  0.00  0.00    +0.000 C 
ATOM     18  C   UNL     1       1.300  12.049  20.483  0.00  0.00    +0.000 C 
ENDROOT
BRANCH   1  21
ATOM     19  C   UNL     1       2.582   7.002  18.705  0.00  0.00    +0.000 C 
ATOM     20  C   UNL     1       1.987   8.292  18.164  0.00  0.00    +0.000 C 
ATOM     21  C   UNL     1       1.309   9.306  18.260  0.00  0.00    +0.000 C 
ENDBRANCH   1  21
BRANCH   1  22
ATOM     22  O   UNL     1       0.958   9.551  20.576  0.00  0.00    +0.000 OA
ATOM     23  H   UNL     1       0.372   9.980  21.251  0.00  0.00    +0.000 HD
ENDBRANCH   1  22
BRANCH  10  24
ATOM     24  O   UNL     1      -7.917  10.998  21.732  0.00  0.00    +0.000 OA
ATOM     25  H   UNL     1      -7.852  11.105  22.691  0.00  0.00    +0.000 HD
ENDBRANCH  10  24
BRANCH  15  26
ATOM     26  O   UNL     1      -1.854  12.821  21.928  0.00  0.00    +0.000 OA
ATOM     27  C   UNL     1      -1.620  13.691  23.011  0.00  0.00    +0.000 C 
ENDBRANCH  15  26
TORSDOF 4
ENDMDL
MODEL 5
REMARK VINA RESULT:      -6.1      8.501     11.996
REMARK  Name = 
REMARK  7 active torsions:
REMARK  status: ('A' for Active; 'I' for Inactive)
REMARK    1  A    between atoms: C_1  and  C_2
REMARK    2  A    between atoms: C_3  and  C_4
REMARK    3  A    between atoms: C_4  and  O_5
REMARK    4  A    between atoms: C_14  and  O_15
REMARK    5  A    between atoms: C_20  and  O_21
REMARK    6  A    between atoms: O_21  and  C_22
REMARK    7  A    between atoms: C_24  and  C_25
REMARK                            x       y       z     vdW  Elec       q    Type
REMARK                         _______ _______ _______ _____ _____    ______ ____
ROOT
ATOM      1  C   UNL     1      -3.056  11.465  17.956  0.00  0.00    +0.000 C 
ATOM      2  C   UNL     1      -1.709  11.759  17.371  0.00  0.00    +0.000 C 
ATOM      3  C   UNL     1      -0.906  10.746  18.189  0.00  0.00    +0.000 C 
ATOM      4  C   UNL     1      -1.102  11.328  19.580  0.00  0.00    +0.000 C 
ATOM      5  C   UNL     1       0.044  12.394  19.546  0.00  0.00    +0.000 C 
ATOM      6  C   UNL     1       1.473  11.809  19.409  0.00  0.00    +0.000 C 
ATOM      7  C   UNL     1       2.164  12.724  18.404  0.00  0.00    +0.000 C 
ATOM      8  C   UNL     1       2.046  14.169  18.853  0.00  0.00    +0.000 A 
ATOM      9  C   UNL     1       2.826  15.108  18.171  0.00  0.00    +0.000 A 
ATOM     10  C   UNL     1       2.783  16.441  18.556  0.00  0.00    +0.000 A 
ATOM     11  C   UNL     1       1.997  16.838  19.642  0.00  0.00    +0.000 A 
ATOM     12  C   UNL     1       1.172  15.911  20.297  0.00  0.00    +0.000 A 
ATOM     13  C   UNL     1       1.134  14.576  19.881  0.00  0.00    +0.000 A 
ATOM     14  C   UNL     1       0.133  13.565  20.497  0.00  0.00    +0.000 C 
ATOM     15  C   UNL     1      -1.310  13.960  20.834  0.00  0.00    +0.000 C 
ATOM     16  C   UNL     1      -2.245  12.722  20.944  0.00  0.00    +0.000 C 
ATOM     17  C   UNL     1      -2.742  11.645  19.667  0.00  0.00    +0.000 C 
ATOM     18  C   UNL     1      -4.131  12.369  19.867  0.00  0.00    +0.000 C 
ENDROOT
BRANCH   1  21
ATOM     19  C   UNL     1      -3.191   9.635  14.667  0.00  0.00    +0.000 C 
ATOM     20  C   UNL     1      -3.360   9.601  16.177  0.00  0.00    +0.000 C 
ATOM     21  C   UNL     1      -3.302  10.099  17.293  0.00  0.00    +0.000 C 
ENDBRANCH   1  21
BRANCH   1  22
ATOM     22  O   UNL     1      -3.996  12.349  17.348  0.00  0.00    +0.000 OA
ATOM     23  H   UNL     1      -3.940  12.153  16.378  0.00  0.00    +0.000 HD
ENDBRANCH   1  22
BRANCH  10  24
ATOM     24  O   UNL     1       3.523  17.384  17.901  0.00  0.00    +0.000 OA
ATOM     25  H   UNL     1       3.375  18.237  18.334  0.00  0.00    +0.000 HD
ENDBRANCH  10  24
BRANCH  15  26
ATOM     26  O   UNL     1      -1.902  15.110  20.250  0.00  0.00    +0.000 OA
ATOM     27  C   UNL     1      -2.789  15.908  21.000  0.00  0.00    +0.000 C 
ENDBRANCH  15  26
TORSDOF 4
ENDMDL
MODEL 6
REMARK VINA RESULT:      -6.1      8.293     10.389
REMARK  Name = 
REMARK  7 active torsions:
REMARK  status: ('A' for Active; 'I' for Inactive)
REMARK    1  A    between atoms: C_1  and  C_2
REMARK    2  A    between atoms: C_3  and  C_4
REMARK    3  A    between atoms: C_4  and  O_5
REMARK    4  A    between atoms: C_14  and  O_15
REMARK    5  A    between atoms: C_20  and  O_21
REMARK    6  A    between atoms: O_21  and  C_22
REMARK    7  A    between atoms: C_24  and  C_25
REMARK                            x       y       z     vdW  Elec       q    Type
REMARK                         _______ _______ _______ _____ _____    ______ ____
ROOT
ATOM      1  C   UNL     1       1.436  14.006  20.491  0.00  0.00    +0.000 C 
ATOM      2  C   UNL     1       2.166  13.025  19.626  0.00  0.00    +0.000 C 
ATOM      3  C   UNL     1       1.116  12.911  18.518  0.00  0.00    +0.000 C 
ATOM      4  C   UNL     1      -0.024  12.289  19.309  0.00  0.00    +0.000 C 
ATOM      5  C   UNL     1       0.420  10.791  19.212  0.00  0.00    +0.000 C 
ATOM      6  C   UNL     1       0.450  10.214  17.773  0.00  0.00    +0.000 C 
ATOM      7  C   UNL     1       1.735   9.394  17.718  0.00  0.00    +0.000 C 
ATOM      8  C   UNL     1       1.767   8.403  18.866  0.00  0.00    +0.000 A 
ATOM      9  C   UNL     1       2.760   7.419  18.824  0.00  0.00    +0.000 A 
ATOM     10  C   UNL     1       2.820   6.465  19.830  0.00  0.00    +0.000 A 
ATOM     11  C   UNL     1       1.873   6.461  20.858  0.00  0.00    +0.000 A 
ATOM     12  C   UNL     1       0.906   7.475  20.936  0.00  0.00    +0.000 A 
ATOM     13  C   UNL     1       0.869   8.496  19.980  0.00  0.00    +0.000 A 
ATOM     14  C   UNL     1      -0.099   9.699  20.118  0.00  0.00    +0.000 C 
ATOM     15  C   UNL     1      -0.379  10.359  21.474  0.00  0.00    +0.000 C 
ATOM     16  C   UNL     1      -0.936  11.802  21.318  0.00  0.00    +0.000 C 
ATOM     17  C   UNL     1      -0.105  13.206  20.705  0.00  0.00    +0.000 C 
ATOM     18  C   UNL     1      -0.147  13.648  22.220  0.00  0.00    +0.000 C 
ENDROOT
BRANCH   1  21
ATOM     19  C   UNL     1      -0.390  16.630  18.501  0.00  0.00    +0.000 C 
ATOM     20  C   UNL     1       0.932  16.043  18.966  0.00  0.00    +0.000 C 
ATOM     21  C   UNL     1       1.610  15.259  19.616  0.00  0.00    +0.000 C 
ENDBRANCH   1  21
BRANCH   1  22
ATOM     22  O   UNL     1       2.236  14.243  21.647  0.00  0.00    +0.000 OA
ATOM     23  H   UNL     1       3.091  13.775  21.467  0.00  0.00    +0.000 HD
ENDBRANCH   1  22
BRANCH  10  24
ATOM     24  O   UNL     1       3.787   5.500  19.824  0.00  0.00    +0.000 OA
ATOM     25  H   UNL     1       3.356   4.643  19.694  0.00  0.00    +0.000 HD
ENDBRANCH  10  24
BRANCH  15  26
ATOM     26  O   UNL     1       0.505  10.172  22.568  0.00  0.00    +0.000 OA
ATOM     27  C   UNL     1       0.071   9.485  23.719  0.00  0.00    +0.000 C 
ENDBRANCH  15  26
TORSDOF 4
ENDMDL
MODEL 7
REMARK VINA RESULT:      -6.1      8.793     13.017
REMARK  Name = 
REMARK  7 active torsions:
REMARK  status: ('A' for Active; 'I' for Inactive)
REMARK    1  A    between atoms: C_1  and  C_2
REMARK    2  A    between atoms: C_3  and  C_4
REMARK    3  A    between atoms: C_4  and  O_5
REMARK    4  A    between atoms: C_14  and  O_15
REMARK    5  A    between atoms: C_20  and  O_21
REMARK    6  A    between atoms: O_21  and  C_22
REMARK    7  A    between atoms: C_24  and  C_25
REMARK                            x       y       z     vdW  Elec       q    Type
REMARK                         _______ _______ _______ _____ _____    ______ ____
ROOT
ATOM      1  C   UNL     1      -4.402  14.019  21.996  0.00  0.00    +0.000 C 
ATOM      2  C   UNL     1      -3.898  12.666  21.597  0.00  0.00    +0.000 C 
ATOM      3  C   UNL     1      -3.290  12.270  22.944  0.00  0.00    +0.000 C 
ATOM      4  C   UNL     1      -2.194  13.318  23.047  0.00  0.00    +0.000 C 
ATOM      5  C   UNL     1      -1.098  12.588  22.199  0.00  0.00    +0.000 C 
ATOM      6  C   UNL     1      -0.608  11.241  22.791  0.00  0.00    +0.000 C 
ATOM      7  C   UNL     1      -0.515  10.309  21.587  0.00  0.00    +0.000 C 
ATOM      8  C   UNL     1       0.337  10.943  20.504  0.00  0.00    +0.000 A 
ATOM      9  C   UNL     1       0.716  10.124  19.436  0.00  0.00    +0.000 A 
ATOM     10  C   UNL     1       1.521  10.640  18.431  0.00  0.00    +0.000 A 
ATOM     11  C   UNL     1       1.985  11.957  18.502  0.00  0.00    +0.000 A 
ATOM     12  C   UNL     1       1.566  12.800  19.542  0.00  0.00    +0.000 A 
ATOM     13  C   UNL     1       0.691  12.333  20.528  0.00  0.00    +0.000 A 
ATOM     14  C   UNL     1       0.108  13.279  21.609  0.00  0.00    +0.000 C 
ATOM     15  C   UNL     1      -0.333  14.710  21.275  0.00  0.00    +0.000 C 
ATOM     16  C   UNL     1      -1.325  15.277  22.331  0.00  0.00    +0.000 C 
ATOM     17  C   UNL     1      -2.956  14.753  22.651  0.00  0.00    +0.000 C 
ATOM     18  C   UNL     1      -3.321  16.129  21.970  0.00  0.00    +0.000 C 
ENDROOT
BRANCH   1  21
ATOM     19  C   UNL     1      -7.893  12.606  21.955  0.00  0.00    +0.000 C 
ATOM     20  C   UNL     1      -6.724  13.150  22.760  0.00  0.00    +0.000 C 
ATOM     21  C   UNL     1      -5.583  13.575  22.876  0.00  0.00    +0.000 C 
ENDBRANCH   1  21
BRANCH   1  22
ATOM     22  O   UNL     1      -4.998  14.617  20.847  0.00  0.00    +0.000 OA
ATOM     23  H   UNL     1      -4.236  14.970  20.319  0.00  0.00    +0.000 HD
ENDBRANCH   1  22
BRANCH  10  24
ATOM     24  O   UNL     1       1.897   9.869  17.368  0.00  0.00    +0.000 OA
ATOM     25  H   UNL     1       1.186   9.237  17.188  0.00  0.00    +0.000 HD
ENDBRANCH  10  24
BRANCH  15  26
ATOM     26  O   UNL     1      -0.597  15.094  19.936  0.00  0.00    +0.000 OA
ATOM     27  C   UNL     1       0.016  16.241  19.394  0.00  0.00    +0.000 C 
ENDBRANCH  15  26
TORSDOF 4
ENDMDL
MODEL 8
REMARK VINA RESULT:      -6.1      8.822     12.693
REMARK  Name = 
REMARK  7 active torsions:
REMARK  status: ('A' for Active; 'I' for Inactive)
REMARK    1  A    between atoms: C_1  and  C_2
REMARK    2  A    between atoms: C_3  and  C_4
REMARK    3  A    between atoms: C_4  and  O_5
REMARK    4  A    between atoms: C_14  and  O_15
REMARK    5  A    between atoms: C_20  and  O_21
REMARK    6  A    between atoms: O_21  and  C_22
REMARK    7  A    between atoms: C_24  and  C_25
REMARK                            x       y       z     vdW  Elec       q    Type
REMARK                         _______ _______ _______ _____ _____    ______ ____
ROOT
ATOM      1  C   UNL     1      -4.141  14.125  21.309  0.00  0.00    +0.000 C 
ATOM      2  C   UNL     1      -3.691  12.713  21.087  0.00  0.00    +0.000 C 
ATOM      3  C   UNL     1      -3.106  12.465  22.479  0.00  0.00    +0.000 C 
ATOM      4  C   UNL     1      -1.967  13.473  22.461  0.00  0.00    +0.000 C 
ATOM      5  C   UNL     1      -0.899  12.600  21.721  0.00  0.00    +0.000 C 
ATOM      6  C   UNL     1      -0.467  11.319  22.481  0.00  0.00    +0.000 C 
ATOM      7  C   UNL     1      -0.407  10.240  21.405  0.00  0.00    +0.000 C 
ATOM      8  C   UNL     1       0.475  10.699  20.260  0.00  0.00    +0.000 A 
ATOM      9  C   UNL     1       0.824   9.737  19.306  0.00  0.00    +0.000 A 
ATOM     10  C   UNL     1       1.655  10.090  18.252  0.00  0.00    +0.000 A 
ATOM     11  C   UNL     1       2.171  11.386  18.162  0.00  0.00    +0.000 A 
ATOM     12  C   UNL     1       1.783  12.370  19.084  0.00  0.00    +0.000 A 
ATOM     13  C   UNL     1       0.886  12.065  20.112  0.00  0.00    +0.000 A 
ATOM     14  C   UNL     1       0.337  13.163  21.060  0.00  0.00    +0.000 C 
ATOM     15  C   UNL     1      -0.043  14.557  20.546  0.00  0.00    +0.000 C 
ATOM     16  C   UNL     1      -1.016  15.291  21.513  0.00  0.00    +0.000 C 
ATOM     17  C   UNL     1      -2.669  14.877  21.880  0.00  0.00    +0.000 C 
ATOM     18  C   UNL     1      -2.974  16.170  21.029  0.00  0.00    +0.000 C 
ENDROOT
BRANCH   1  21
ATOM     19  C   UNL     1      -6.477  15.634  23.848  0.00  0.00    +0.000 C 
ATOM     20  C   UNL     1      -6.026  14.410  23.068  0.00  0.00    +0.000 C 
ATOM     21  C   UNL     1      -5.342  13.842  22.227  0.00  0.00    +0.000 C 
ENDBRANCH   1  21
BRANCH   1  22
ATOM     22  O   UNL     1      -4.706  14.597  20.088  0.00  0.00    +0.000 OA
ATOM     23  H   UNL     1      -5.103  15.476  20.315  0.00  0.00    +0.000 HD
ENDBRANCH   1  22
BRANCH  10  24
ATOM     24  O   UNL     1       2.003   9.177  17.297  0.00  0.00    +0.000 OA
ATOM     25  H   UNL     1       2.710   8.622  17.655  0.00  0.00    +0.000 HD
ENDBRANCH  10  24
BRANCH  15  26
ATOM     26  O   UNL     1      -0.286  14.780  19.166  0.00  0.00    +0.000 OA
ATOM     27  C   UNL     1      -0.118  16.066  18.616  0.00  0.00    +0.000 C 
ENDBRANCH  15  26
TORSDOF 4
ENDMDL
MODEL 9
REMARK VINA RESULT:      -6.0      9.382     12.827
REMARK  Name = 
REMARK  7 active torsions:
REMARK  status: ('A' for Active; 'I' for Inactive)
REMARK    1  A    between atoms: C_1  and  C_2
REMARK    2  A    between atoms: C_3  and  C_4
REMARK    3  A    between atoms: C_4  and  O_5
REMARK    4  A    between atoms: C_14  and  O_15
REMARK    5  A    between atoms: C_20  and  O_21
REMARK    6  A    between atoms: O_21  and  C_22
REMARK    7  A    between atoms: C_24  and  C_25
REMARK                            x       y       z     vdW  Elec       q    Type
REMARK                         _______ _______ _______ _____ _____    ______ ____
ROOT
ATOM      1  C   UNL     1      -0.122  10.514  19.585  0.00  0.00    +0.000 C 
ATOM      2  C   UNL     1      -1.592  10.237  19.515  0.00  0.00    +0.000 C 
ATOM      3  C   UNL     1      -1.933  11.232  18.404  0.00  0.00    +0.000 C 
ATOM      4  C   UNL     1      -1.595  12.533  19.114  0.00  0.00    +0.000 C 
ATOM      5  C   UNL     1      -2.946  12.735  19.878  0.00  0.00    +0.000 C 
ATOM      6  C   UNL     1      -4.186  12.929  18.968  0.00  0.00    +0.000 C 
ATOM      7  C   UNL     1      -5.276  12.086  19.624  0.00  0.00    +0.000 C 
ATOM      8  C   UNL     1      -5.419  12.471  21.084  0.00  0.00    +0.000 A 
ATOM      9  C   UNL     1      -6.530  11.962  21.765  0.00  0.00    +0.000 A 
ATOM     10  C   UNL     1      -6.732  12.303  23.095  0.00  0.00    +0.000 A 
ATOM     11  C   UNL     1      -5.854  13.180  23.741  0.00  0.00    +0.000 A 
ATOM     12  C   UNL     1      -4.710  13.652  23.080  0.00  0.00    +0.000 A 
ATOM     13  C   UNL     1      -4.437  13.263  21.765  0.00  0.00    +0.000 A 
ATOM     14  C   UNL     1      -3.115  13.661  21.061  0.00  0.00    +0.000 C 
ATOM     15  C   UNL     1      -1.773  13.661  21.804  0.00  0.00    +0.000 C 
ATOM     16  C   UNL     1      -0.564  13.583  20.829  0.00  0.00    +0.000 C 
ATOM     17  C   UNL     1      -0.101  12.248  19.808  0.00  0.00    +0.000 C 
ATOM     18  C   UNL     1       1.080  12.121  20.848  0.00  0.00    +0.000 C 
ENDROOT
BRANCH   1  21
ATOM     19  C   UNL     1       2.518   8.384  17.949  0.00  0.00    +0.000 C 
ATOM     20  C   UNL     1       1.228   9.176  17.819  0.00  0.00    +0.000 C 
ATOM     21  C   UNL     1       0.303   9.838  18.270  0.00  0.00    +0.000 C 
ENDBRANCH   1  21
BRANCH   1  22
ATOM     22  O   UNL     1       0.425   9.696  20.618  0.00  0.00    +0.000 OA
ATOM     23  H   UNL     1       0.194   8.768  20.359  0.00  0.00    +0.000 HD
ENDBRANCH   1  22
BRANCH  10  24
ATOM     24  O   UNL     1      -7.799  11.811  23.791  0.00  0.00    +0.000 OA
ATOM     25  H   UNL     1      -8.342  11.292  23.182  0.00  0.00    +0.000 HD
ENDBRANCH  10  24
BRANCH  15  26
ATOM     26  O   UNL     1      -1.614  12.939  23.015  0.00  0.00    +0.000 OA
ATOM     27  C   UNL     1      -1.627  11.531  23.007  0.00  0.00    +0.000 C 
ENDBRANCH  15  26
TORSDOF 4
ENDMDL
