MODEL 1
REMARK VINA RESULT:      -7.4      0.000      0.000
REMARK  Name = 
REMARK  8 active torsions:
REMARK  status: ('A' for Active; 'I' for Inactive)
REMARK    1  A    between atoms: C_1  and  N_2
REMARK    2  A    between atoms: C_3  and  C_4
REMARK    3  A    between atoms: C_4  and  O_5
REMARK    4  A    between atoms: O_5  and  C_6
REMARK    5  A    between atoms: C_15  and  S_16
REMARK    6  A    between atoms: S_16  and  C_17
REMARK    7  A    between atoms: C_17  and  C_18
REMARK    8  A    between atoms: N_20  and  C_21
REMARK                            x       y       z     vdW  Elec       q    Type
REMARK                         _______ _______ _______ _____ _____    ______ ____
ROOT
ATOM      1  C   UNL     1       1.998   4.285  21.298  0.00  0.00    +0.000 C 
ATOM      2  N   UNL     1       1.941   4.798  19.955  0.00  0.00    +0.000 N 
ATOM      3  C   UNL     1       2.002   6.111  19.546  0.00  0.00    +0.000 A 
ATOM      4  N   UNL     1       2.053   6.135  18.225  0.00  0.00    +0.000 NA
ATOM      5  N   UNL     1       1.995   4.841  17.762  0.00  0.00    +0.000 NA
ATOM      6  C   UNL     1       1.882   4.054  18.808  0.00  0.00    +0.000 A 
ENDROOT
BRANCH   3   7
ATOM      7  C   UNL     1       2.002   7.305  20.443  0.00  0.00    +0.000 C 
BRANCH   7   8
ATOM      8  O   UNL     1       0.657   7.487  20.879  0.00  0.00    +0.000 OA
BRANCH   8   9
ATOM      9  C   UNL     1       0.287   8.742  21.280  0.00  0.00    +0.000 A 
ATOM     10  C   UNL     1       0.374   9.914  20.528  0.00  0.00    +0.000 A 
ATOM     11  C   UNL     1      -0.073  11.129  21.061  0.00  0.00    +0.000 A 
ATOM     12  C   UNL     1      -0.610  11.172  22.347  0.00  0.00    +0.000 A 
ATOM     13 CL   UNL     1      -1.180  12.661  22.995  0.00  0.00    +0.000 Cl
ATOM     14  C   UNL     1      -0.685  10.013  23.113  0.00  0.00    +0.000 A 
ATOM     15  C   UNL     1      -0.235   8.802  22.577  0.00  0.00    +0.000 A 
ENDBRANCH   8   9
ENDBRANCH   7   8
ENDBRANCH   3   7
BRANCH   6  16
ATOM     16  S   UNL     1       1.735   2.333  18.773  0.00  0.00    +0.000 S 
BRANCH  16  17
ATOM     17  C   UNL     1       3.399   1.843  18.217  0.00  0.00    +0.000 C 
BRANCH  17  18
ATOM     18  C   UNL     1       4.418   2.881  18.658  0.00  0.00    +0.000 C 
ATOM     19  O   UNL     1       4.829   2.949  19.812  0.00  0.00    +0.000 OA
ATOM     20  N   UNL     1       4.801   3.746  17.659  0.00  0.00    +0.000 N 
ATOM     21  H   UNL     1       4.433   3.584  16.723  0.00  0.00    +0.000 HD
BRANCH  20  22
ATOM     22  C   UNL     1       5.658   4.901  17.829  0.00  0.00    +0.000 C 
ATOM     23  C   UNL     1       5.449   5.987  16.774  0.00  0.00    +0.000 C 
ATOM     24  C   UNL     1       6.175   7.260  17.211  0.00  0.00    +0.000 C 
ATOM     25  C   UNL     1       7.658   7.022  17.509  0.00  0.00    +0.000 C 
ATOM     26  C   UNL     1       7.922   5.799  18.391  0.00  0.00    +0.000 C 
ATOM     27  C   UNL     1       7.151   4.564  17.919  0.00  0.00    +0.000 C 
ENDBRANCH  20  22
ENDBRANCH  17  18
ENDBRANCH  16  17
ENDBRANCH   6  16
TORSDOF 7
ENDMDL
MODEL 2
REMARK VINA RESULT:      -7.3      4.394      7.278
REMARK  Name = 
REMARK  8 active torsions:
REMARK  status: ('A' for Active; 'I' for Inactive)
REMARK    1  A    between atoms: C_1  and  N_2
REMARK    2  A    between atoms: C_3  and  C_4
REMARK    3  A    between atoms: C_4  and  O_5
REMARK    4  A    between atoms: O_5  and  C_6
REMARK    5  A    between atoms: C_15  and  S_16
REMARK    6  A    between atoms: S_16  and  C_17
REMARK    7  A    between atoms: C_17  and  C_18
REMARK    8  A    between atoms: N_20  and  C_21
REMARK                            x       y       z     vdW  Elec       q    Type
REMARK                         _______ _______ _______ _____ _____    ______ ____
ROOT
ATOM      1  C   UNL     1       7.864   5.560  19.559  0.00  0.00    +0.000 C 
ATOM      2  N   UNL     1       7.189   6.197  18.459  0.00  0.00    +0.000 N 
ATOM      3  C   UNL     1       7.505   7.387  17.845  0.00  0.00    +0.000 A 
ATOM      4  N   UNL     1       6.717   7.537  16.795  0.00  0.00    +0.000 NA
ATOM      5  N   UNL     1       5.862   6.461  16.733  0.00  0.00    +0.000 NA
ATOM      6  C   UNL     1       6.126   5.690  17.762  0.00  0.00    +0.000 A 
ENDROOT
BRANCH   3   7
ATOM      7  C   UNL     1       8.555   8.349  18.296  0.00  0.00    +0.000 C 
BRANCH   7   8
ATOM      8  O   UNL     1       8.137   9.641  17.861  0.00  0.00    +0.000 OA
BRANCH   8   9
ATOM      9  C   UNL     1       8.812  10.723  18.356  0.00  0.00    +0.000 A 
ATOM     10  C   UNL     1       8.877  11.995  17.785  0.00  0.00    +0.000 A 
ATOM     11  C   UNL     1       9.585  13.019  18.424  0.00  0.00    +0.000 A 
ATOM     12  C   UNL     1      10.227  12.774  19.637  0.00  0.00    +0.000 A 
ATOM     13 CL   UNL     1      11.079  14.039  20.434  0.00  0.00    +0.000 Cl
ATOM     14  C   UNL     1      10.184  11.506  20.207  0.00  0.00    +0.000 A 
ATOM     15  C   UNL     1       9.478  10.484  19.564  0.00  0.00    +0.000 A 
ENDBRANCH   8   9
ENDBRANCH   7   8
ENDBRANCH   3   7
BRANCH   6  16
ATOM     16  S   UNL     1       5.308   4.223  18.169  0.00  0.00    +0.000 S 
BRANCH  16  17
ATOM     17  C   UNL     1       3.783   4.378  17.186  0.00  0.00    +0.000 C 
BRANCH  17  18
ATOM     18  C   UNL     1       2.739   5.156  17.970  0.00  0.00    +0.000 C 
ATOM     19  O   UNL     1       1.791   4.607  18.524  0.00  0.00    +0.000 OA
ATOM     20  N   UNL     1       2.937   6.517  17.966  0.00  0.00    +0.000 N 
ATOM     21  H   UNL     1       3.775   6.874  17.510  0.00  0.00    +0.000 HD
BRANCH  20  22
ATOM     22  C   UNL     1       2.032   7.500  18.524  0.00  0.00    +0.000 C 
ATOM     23  C   UNL     1       2.150   8.883  17.883  0.00  0.00    +0.000 C 
ATOM     24  C   UNL     1       0.970   9.748  18.330  0.00  0.00    +0.000 C 
ATOM     25  C   UNL     1       0.838   9.826  19.854  0.00  0.00    +0.000 C 
ATOM     26  C   UNL     1       0.939   8.468  20.552  0.00  0.00    +0.000 C 
ATOM     27  C   UNL     1       2.123   7.640  20.048  0.00  0.00    +0.000 C 
ENDBRANCH  20  22
ENDBRANCH  17  18
ENDBRANCH  16  17
ENDBRANCH   6  16
TORSDOF 7
ENDMDL
MODEL 3
REMARK VINA RESULT:      -7.2      2.900      6.275
REMARK  Name = 
REMARK  8 active torsions:
REMARK  status: ('A' for Active; 'I' for Inactive)
REMARK    1  A    between atoms: C_1  and  N_2
REMARK    2  A    between atoms: C_3  and  C_4
REMARK    3  A    between atoms: C_4  and  O_5
REMARK    4  A    between atoms: O_5  and  C_6
REMARK    5  A    between atoms: C_15  and  S_16
REMARK    6  A    between atoms: S_16  and  C_17
REMARK    7  A    between atoms: C_17  and  C_18
REMARK    8  A    between atoms: N_20  and  C_21
REMARK                            x       y       z     vdW  Elec       q    Type
REMARK                         _______ _______ _______ _____ _____    ______ ____
ROOT
ATOM      1  C   UNL     1       4.658   2.524  19.559  0.00  0.00    +0.000 C 
ATOM      2  N   UNL     1       3.578   2.902  18.688  0.00  0.00    +0.000 N 
ATOM      3  C   UNL     1       3.655   3.373  17.397  0.00  0.00    +0.000 A 
ATOM      4  N   UNL     1       2.428   3.467  16.914  0.00  0.00    +0.000 NA
ATOM      5  N   UNL     1       1.541   3.088  17.895  0.00  0.00    +0.000 NA
ATOM      6  C   UNL     1       2.242   2.797  18.966  0.00  0.00    +0.000 A 
ENDROOT
BRANCH   3   7
ATOM      7  C   UNL     1       4.911   3.724  16.671  0.00  0.00    +0.000 C 
BRANCH   7   8
ATOM      8  O   UNL     1       5.885   4.031  17.666  0.00  0.00    +0.000 OA
BRANCH   8   9
ATOM      9  C   UNL     1       6.412   5.294  17.665  0.00  0.00    +0.000 A 
ATOM     10  C   UNL     1       5.945   6.389  16.938  0.00  0.00    +0.000 A 
ATOM     11  C   UNL     1       6.570   7.636  17.062  0.00  0.00    +0.000 A 
ATOM     12  C   UNL     1       7.662   7.789  17.915  0.00  0.00    +0.000 A 
ATOM     13 CL   UNL     1       8.417   9.326  18.083  0.00  0.00    +0.000 Cl
ATOM     14  C   UNL     1       8.148   6.700  18.631  0.00  0.00    +0.000 A 
ATOM     15  C   UNL     1       7.522   5.456  18.503  0.00  0.00    +0.000 A 
ENDBRANCH   8   9
ENDBRANCH   7   8
ENDBRANCH   3   7
BRANCH   6  16
ATOM     16  S   UNL     1       1.604   2.298  20.493  0.00  0.00    +0.000 S 
BRANCH  16  17
ATOM     17  C   UNL     1       2.000   3.739  21.534  0.00  0.00    +0.000 C 
BRANCH  17  18
ATOM     18  C   UNL     1       1.555   5.017  20.840  0.00  0.00    +0.000 C 
ATOM     19  O   UNL     1       0.390   5.207  20.501  0.00  0.00    +0.000 OA
ATOM     20  N   UNL     1       2.576   5.907  20.602  0.00  0.00    +0.000 N 
ATOM     21  H   UNL     1       3.501   5.675  20.956  0.00  0.00    +0.000 HD
BRANCH  20  22
ATOM     22  C   UNL     1       2.458   7.140  19.850  0.00  0.00    +0.000 C 
ATOM     23  C   UNL     1       1.300   8.030  20.301  0.00  0.00    +0.000 C 
ATOM     24  C   UNL     1       1.445   9.409  19.655  0.00  0.00    +0.000 C 
ATOM     25  C   UNL     1       1.561   9.339  18.129  0.00  0.00    +0.000 C 
ATOM     26  C   UNL     1       2.560   8.290  17.634  0.00  0.00    +0.000 C 
ATOM     27  C   UNL     1       2.382   6.940  18.332  0.00  0.00    +0.000 C 
ENDBRANCH  20  22
ENDBRANCH  17  18
ENDBRANCH  16  17
ENDBRANCH   6  16
TORSDOF 7
ENDMDL
MODEL 4
REMARK VINA RESULT:      -7.1      3.790      5.046
REMARK  Name = 
REMARK  8 active torsions:
REMARK  status: ('A' for Active; 'I' for Inactive)
REMARK    1  A    between atoms: C_1  and  N_2
REMARK    2  A    between atoms: C_3  and  C_4
REMARK    3  A    between atoms: C_4  and  O_5
REMARK    4  A    between atoms: O_5  and  C_6
REMARK    5  A    between atoms: C_15  and  S_16
REMARK    6  A    between atoms: S_16  and  C_17
REMARK    7  A    between atoms: C_17  and  C_18
REMARK    8  A    between atoms: N_20  and  C_21
REMARK                            x       y       z     vdW  Elec       q    Type
REMARK                         _______ _______ _______ _____ _____    ______ ____
ROOT
ATOM      1  C   UNL     1       4.380   7.102  17.211  0.00  0.00    +0.000 C 
ATOM      2  N   UNL     1       4.688   5.985  18.064  0.00  0.00    +0.000 N 
ATOM      3  C   UNL     1       3.843   5.307  18.912  0.00  0.00    +0.000 A 
ATOM      4  N   UNL     1       4.491   4.266  19.404  0.00  0.00    +0.000 NA
ATOM      5  N   UNL     1       5.773   4.273  18.904  0.00  0.00    +0.000 NA
ATOM      6  C   UNL     1       5.890   5.335  18.140  0.00  0.00    +0.000 A 
ENDROOT
BRANCH   3   7
ATOM      7  C   UNL     1       2.434   5.690  19.229  0.00  0.00    +0.000 C 
BRANCH   7   8
ATOM      8  O   UNL     1       2.501   6.675  20.258  0.00  0.00    +0.000 OA
BRANCH   8   9
ATOM      9  C   UNL     1       1.778   7.822  20.082  0.00  0.00    +0.000 A 
ATOM     10  C   UNL     1       1.707   8.589  18.918  0.00  0.00    +0.000 A 
ATOM     11  C   UNL     1       0.897   9.730  18.874  0.00  0.00    +0.000 A 
ATOM     12  C   UNL     1       0.154  10.104  19.992  0.00  0.00    +0.000 A 
ATOM     13 CL   UNL     1      -0.859  11.494  19.931  0.00  0.00    +0.000 Cl
ATOM     14  C   UNL     1       0.231   9.358  21.164  0.00  0.00    +0.000 A 
ATOM     15  C   UNL     1       1.044   8.220  21.205  0.00  0.00    +0.000 A 
ENDBRANCH   8   9
ENDBRANCH   7   8
ENDBRANCH   3   7
BRANCH   6  16
ATOM     16  S   UNL     1       7.316   5.829  17.299  0.00  0.00    +0.000 S 
BRANCH  16  17
ATOM     17  C   UNL     1       8.195   6.756  18.598  0.00  0.00    +0.000 C 
BRANCH  17  18
ATOM     18  C   UNL     1       8.149   8.245  18.292  0.00  0.00    +0.000 C 
ATOM     19  O   UNL     1       7.504   8.702  17.353  0.00  0.00    +0.000 OA
ATOM     20  N   UNL     1       8.918   9.011  19.136  0.00  0.00    +0.000 N 
ATOM     21  H   UNL     1       9.386   8.543  19.910  0.00  0.00    +0.000 HD
BRANCH  20  22
ATOM     22  C   UNL     1       9.156  10.433  18.998  0.00  0.00    +0.000 C 
ATOM     23  C   UNL     1      10.265  10.780  18.005  0.00  0.00    +0.000 C 
ATOM     24  C   UNL     1      10.231  12.282  17.718  0.00  0.00    +0.000 C 
ATOM     25  C   UNL     1      10.310  13.129  18.992  0.00  0.00    +0.000 C 
ATOM     26  C   UNL     1       9.361  12.667  20.100  0.00  0.00    +0.000 C 
ATOM     27  C   UNL     1       9.421  11.154  20.325  0.00  0.00    +0.000 C 
ENDBRANCH  20  22
ENDBRANCH  17  18
ENDBRANCH  16  17
ENDBRANCH   6  16
TORSDOF 7
ENDMDL
MODEL 5
REMARK VINA RESULT:      -7.0      3.921      7.014
REMARK  Name = 
REMARK  8 active torsions:
REMARK  status: ('A' for Active; 'I' for Inactive)
REMARK    1  A    between atoms: C_1  and  N_2
REMARK    2  A    between atoms: C_3  and  C_4
REMARK    3  A    between atoms: C_4  and  O_5
REMARK    4  A    between atoms: O_5  and  C_6
REMARK    5  A    between atoms: C_15  and  S_16
REMARK    6  A    between atoms: S_16  and  C_17
REMARK    7  A    between atoms: C_17  and  C_18
REMARK    8  A    between atoms: N_20  and  C_21
REMARK                            x       y       z     vdW  Elec       q    Type
REMARK                         _______ _______ _______ _____ _____    ______ ____
ROOT
ATOM      1  C   UNL     1       5.413   6.570  16.222  0.00  0.00    +0.000 C 
ATOM      2  N   UNL     1       6.199   6.085  17.325  0.00  0.00    +0.000 N 
ATOM      3  C   UNL     1       7.220   6.728  17.986  0.00  0.00    +0.000 A 
ATOM      4  N   UNL     1       7.579   5.988  19.021  0.00  0.00    +0.000 NA
ATOM      5  N   UNL     1       6.816   4.843  19.025  0.00  0.00    +0.000 NA
ATOM      6  C   UNL     1       6.026   4.894  17.977  0.00  0.00    +0.000 A 
ENDROOT
BRANCH   3   7
ATOM      7  C   UNL     1       7.825   8.036  17.594  0.00  0.00    +0.000 C 
BRANCH   7   8
ATOM      8  O   UNL     1       8.630   8.458  18.693  0.00  0.00    +0.000 OA
BRANCH   8   9
ATOM      9  C   UNL     1       8.832   9.802  18.848  0.00  0.00    +0.000 A 
ATOM     10  C   UNL     1       9.355  10.440  19.974  0.00  0.00    +0.000 A 
ATOM     11  C   UNL     1       9.534  11.828  19.979  0.00  0.00    +0.000 A 
ATOM     12  C   UNL     1       9.193  12.581  18.857  0.00  0.00    +0.000 A 
ATOM     13 CL   UNL     1       9.433  14.285  18.854  0.00  0.00    +0.000 Cl
ATOM     14  C   UNL     1       8.653  11.959  17.736  0.00  0.00    +0.000 A 
ATOM     15  C   UNL     1       8.473  10.572  17.735  0.00  0.00    +0.000 A 
ENDBRANCH   8   9
ENDBRANCH   7   8
ENDBRANCH   3   7
BRANCH   6  16
ATOM     16  S   UNL     1       4.890   3.682  17.501  0.00  0.00    +0.000 S 
BRANCH  16  17
ATOM     17  C   UNL     1       3.789   3.635  18.951  0.00  0.00    +0.000 C 
BRANCH  17  18
ATOM     18  C   UNL     1       2.851   4.832  18.928  0.00  0.00    +0.000 C 
ATOM     19  O   UNL     1       1.761   4.800  18.365  0.00  0.00    +0.000 OA
ATOM     20  N   UNL     1       3.354   5.946  19.558  0.00  0.00    +0.000 N 
ATOM     21  H   UNL     1       4.253   5.861  20.030  0.00  0.00    +0.000 HD
BRANCH  20  22
ATOM     22  C   UNL     1       2.731   7.254  19.578  0.00  0.00    +0.000 C 
ATOM     23  C   UNL     1       1.496   7.336  20.475  0.00  0.00    +0.000 C 
ATOM     24  C   UNL     1       1.100   8.802  20.654  0.00  0.00    +0.000 C 
ATOM     25  C   UNL     1       0.895   9.526  19.319  0.00  0.00    +0.000 C 
ATOM     26  C   UNL     1       2.017   9.282  18.307  0.00  0.00    +0.000 C 
ATOM     27  C   UNL     1       2.385   7.802  18.189  0.00  0.00    +0.000 C 
ENDBRANCH  20  22
ENDBRANCH  17  18
ENDBRANCH  16  17
ENDBRANCH   6  16
TORSDOF 7
ENDMDL
MODEL 6
REMARK VINA RESULT:      -7.0      4.672      7.398
REMARK  Name = 
REMARK  8 active torsions:
REMARK  status: ('A' for Active; 'I' for Inactive)
REMARK    1  A    between atoms: C_1  and  N_2
REMARK    2  A    between atoms: C_3  and  C_4
REMARK    3  A    between atoms: C_4  and  O_5
REMARK    4  A    between atoms: O_5  and  C_6
REMARK    5  A    between atoms: C_15  and  S_16
REMARK    6  A    between atoms: S_16  and  C_17
REMARK    7  A    between atoms: C_17  and  C_18
REMARK    8  A    between atoms: N_20  and  C_21
REMARK                            x       y       z     vdW  Elec       q    Type
REMARK                         _______ _______ _______ _____ _____    ______ ____
ROOT
ATOM      1  C   UNL     1       6.795   5.508  19.218  0.00  0.00    +0.000 C 
ATOM      2  N   UNL     1       7.158   5.997  17.914  0.00  0.00    +0.000 N 
ATOM      3  C   UNL     1       7.804   7.170  17.599  0.00  0.00    +0.000 A 
ATOM      4  N   UNL     1       8.064   7.167  16.303  0.00  0.00    +0.000 NA
ATOM      5  N   UNL     1       7.563   6.007  15.759  0.00  0.00    +0.000 NA
ATOM      6  C   UNL     1       6.983   5.338  16.728  0.00  0.00    +0.000 A 
ENDROOT
BRANCH   3   7
ATOM      7  C   UNL     1       8.146   8.263  18.557  0.00  0.00    +0.000 C 
BRANCH   7   8
ATOM      8  O   UNL     1       8.268   9.457  17.787  0.00  0.00    +0.000 OA
BRANCH   8   9
ATOM      9  C   UNL     1       8.841  10.542  18.392  0.00  0.00    +0.000 A 
ATOM     10  C   UNL     1       8.930  11.833  17.870  0.00  0.00    +0.000 A 
ATOM     11  C   UNL     1       9.519  12.858  18.620  0.00  0.00    +0.000 A 
ATOM     12  C   UNL     1      10.018  12.594  19.895  0.00  0.00    +0.000 A 
ATOM     13 CL   UNL     1      10.723  13.858  20.826  0.00  0.00    +0.000 Cl
ATOM     14  C   UNL     1       9.951  11.307  20.418  0.00  0.00    +0.000 A 
ATOM     15  C   UNL     1       9.363  10.285  19.665  0.00  0.00    +0.000 A 
ENDBRANCH   8   9
ENDBRANCH   7   8
ENDBRANCH   3   7
BRANCH   6  16
ATOM     16  S   UNL     1       6.163   3.825  16.569  0.00  0.00    +0.000 S 
BRANCH  16  17
ATOM     17  C   UNL     1       4.512   4.368  16.025  0.00  0.00    +0.000 C 
BRANCH  17  18
ATOM     18  C   UNL     1       3.612   4.576  17.233  0.00  0.00    +0.000 C 
ATOM     19  O   UNL     1       3.088   5.658  17.482  0.00  0.00    +0.000 OA
ATOM     20  N   UNL     1       3.475   3.460  18.025  0.00  0.00    +0.000 N 
ATOM     21  H   UNL     1       3.917   2.598  17.713  0.00  0.00    +0.000 HD
BRANCH  20  22
ATOM     22  C   UNL     1       2.782   3.411  19.296  0.00  0.00    +0.000 C 
ATOM     23  C   UNL     1       3.394   2.430  20.296  0.00  0.00    +0.000 C 
ATOM     24  C   UNL     1       2.781   2.671  21.677  0.00  0.00    +0.000 C 
ATOM     25  C   UNL     1       1.251   2.604  21.664  0.00  0.00    +0.000 C 
ATOM     26  C   UNL     1       0.608   3.403  20.528  0.00  0.00    +0.000 C 
ATOM     27  C   UNL     1       1.278   3.140  19.178  0.00  0.00    +0.000 C 
ENDBRANCH  20  22
ENDBRANCH  17  18
ENDBRANCH  16  17
ENDBRANCH   6  16
TORSDOF 7
ENDMDL
MODEL 7
REMARK VINA RESULT:      -7.0      0.732      1.149
REMARK  Name = 
REMARK  8 active torsions:
REMARK  status: ('A' for Active; 'I' for Inactive)
REMARK    1  A    between atoms: C_1  and  N_2
REMARK    2  A    between atoms: C_3  and  C_4
REMARK    3  A    between atoms: C_4  and  O_5
REMARK    4  A    between atoms: O_5  and  C_6
REMARK    5  A    between atoms: C_15  and  S_16
REMARK    6  A    between atoms: S_16  and  C_17
REMARK    7  A    between atoms: C_17  and  C_18
REMARK    8  A    between atoms: N_20  and  C_21
REMARK                            x       y       z     vdW  Elec       q    Type
REMARK                         _______ _______ _______ _____ _____    ______ ____
ROOT
ATOM      1  C   UNL     1       2.088   4.494  21.192  0.00  0.00    +0.000 C 
ATOM      2  N   UNL     1       2.013   4.959  19.833  0.00  0.00    +0.000 N 
ATOM      3  C   UNL     1       2.116   6.251  19.372  0.00  0.00    +0.000 A 
ATOM      4  N   UNL     1       2.130   6.223  18.051  0.00  0.00    +0.000 NA
ATOM      5  N   UNL     1       2.006   4.916  17.639  0.00  0.00    +0.000 NA
ATOM      6  C   UNL     1       1.891   4.175  18.717  0.00  0.00    +0.000 A 
ENDROOT
BRANCH   3   7
ATOM      7  C   UNL     1       2.190   7.477  20.222  0.00  0.00    +0.000 C 
BRANCH   7   8
ATOM      8  O   UNL     1       1.519   8.511  19.505  0.00  0.00    +0.000 OA
BRANCH   8   9
ATOM      9  C   UNL     1       0.831   9.442  20.235  0.00  0.00    +0.000 A 
ATOM     10  C   UNL     1       0.311  10.648  19.764  0.00  0.00    +0.000 A 
ATOM     11  C   UNL     1      -0.402  11.492  20.624  0.00  0.00    +0.000 A 
ATOM     12  C   UNL     1      -0.598  11.129  21.956  0.00  0.00    +0.000 A 
ATOM     13 CL   UNL     1      -1.493  12.155  23.008  0.00  0.00    +0.000 Cl
ATOM     14  C   UNL     1      -0.068   9.937  22.441  0.00  0.00    +0.000 A 
ATOM     15  C   UNL     1       0.646   9.098  21.579  0.00  0.00    +0.000 A 
ENDBRANCH   8   9
ENDBRANCH   7   8
ENDBRANCH   3   7
BRANCH   6  16
ATOM     16  S   UNL     1       1.673   2.461  18.753  0.00  0.00    +0.000 S 
BRANCH  16  17
ATOM     17  C   UNL     1       3.166   1.893  17.877  0.00  0.00    +0.000 C 
BRANCH  17  18
ATOM     18  C   UNL     1       4.365   2.724  18.303  0.00  0.00    +0.000 C 
ATOM     19  O   UNL     1       4.803   2.702  19.450  0.00  0.00    +0.000 OA
ATOM     20  N   UNL     1       4.878   3.518  17.304  0.00  0.00    +0.000 N 
ATOM     21  H   UNL     1       4.469   3.436  16.375  0.00  0.00    +0.000 HD
BRANCH  20  22
ATOM     22  C   UNL     1       5.933   4.497  17.466  0.00  0.00    +0.000 C 
ATOM     23  C   UNL     1       6.091   5.003  18.900  0.00  0.00    +0.000 C 
ATOM     24  C   UNL     1       7.398   5.790  19.014  0.00  0.00    +0.000 C 
ATOM     25  C   UNL     1       7.498   6.922  17.986  0.00  0.00    +0.000 C 
ATOM     26  C   UNL     1       7.127   6.498  16.563  0.00  0.00    +0.000 C 
ATOM     27  C   UNL     1       5.825   5.694  16.515  0.00  0.00    +0.000 C 
ENDBRANCH  20  22
ENDBRANCH  17  18
ENDBRANCH  16  17
ENDBRANCH   6  16
TORSDOF 7
ENDMDL
MODEL 8
REMARK VINA RESULT:      -7.0      3.600      4.960
REMARK  Name = 
REMARK  8 active torsions:
REMARK  status: ('A' for Active; 'I' for Inactive)
REMARK    1  A    between atoms: C_1  and  N_2
REMARK    2  A    between atoms: C_3  and  C_4
REMARK    3  A    between atoms: C_4  and  O_5
REMARK    4  A    between atoms: O_5  and  C_6
REMARK    5  A    between atoms: C_15  and  S_16
REMARK    6  A    between atoms: S_16  and  C_17
REMARK    7  A    between atoms: C_17  and  C_18
REMARK    8  A    between atoms: N_20  and  C_21
REMARK                            x       y       z     vdW  Elec       q    Type
REMARK                         _______ _______ _______ _____ _____    ______ ____
ROOT
ATOM      1  C   UNL     1       4.533   6.901  17.345  0.00  0.00    +0.000 C 
ATOM      2  N   UNL     1       4.616   5.801  18.269  0.00  0.00    +0.000 N 
ATOM      3  C   UNL     1       3.624   5.297  19.078  0.00  0.00    +0.000 A 
ATOM      4  N   UNL     1       4.079   4.203  19.665  0.00  0.00    +0.000 NA
ATOM      5  N   UNL     1       5.381   4.004  19.267  0.00  0.00    +0.000 NA
ATOM      6  C   UNL     1       5.704   4.994  18.467  0.00  0.00    +0.000 A 
ENDROOT
BRANCH   3   7
ATOM      7  C   UNL     1       2.266   5.889  19.266  0.00  0.00    +0.000 C 
BRANCH   7   8
ATOM      8  O   UNL     1       2.424   6.996  20.151  0.00  0.00    +0.000 OA
BRANCH   8   9
ATOM      9  C   UNL     1       1.655   8.104  19.921  0.00  0.00    +0.000 A 
ATOM     10  C   UNL     1       0.851   8.766  20.849  0.00  0.00    +0.000 A 
ATOM     11  C   UNL     1       0.141   9.913  20.476  0.00  0.00    +0.000 A 
ATOM     12  C   UNL     1       0.235  10.401  19.174  0.00  0.00    +0.000 A 
ATOM     13 CL   UNL     1      -0.622  11.823  18.721  0.00  0.00    +0.000 Cl
ATOM     14  C   UNL     1       1.018   9.739  18.235  0.00  0.00    +0.000 A 
ATOM     15  C   UNL     1       1.725   8.592  18.611  0.00  0.00    +0.000 A 
ENDBRANCH   8   9
ENDBRANCH   7   8
ENDBRANCH   3   7
BRANCH   6  16
ATOM     16  S   UNL     1       7.242   5.236  17.719  0.00  0.00    +0.000 S 
BRANCH  16  17
ATOM     17  C   UNL     1       8.006   6.440  18.853  0.00  0.00    +0.000 C 
BRANCH  17  18
ATOM     18  C   UNL     1       8.157   7.783  18.156  0.00  0.00    +0.000 C 
ATOM     19  O   UNL     1       7.808   7.962  16.994  0.00  0.00    +0.000 OA
ATOM     20  N   UNL     1       8.747   8.751  18.935  0.00  0.00    +0.000 N 
ATOM     21  H   UNL     1       8.966   8.516  19.901  0.00  0.00    +0.000 HD
BRANCH  20  22
ATOM     22  C   UNL     1       9.124  10.076  18.486  0.00  0.00    +0.000 C 
ATOM     23  C   UNL     1      10.014  10.832  19.474  0.00  0.00    +0.000 C 
ATOM     24  C   UNL     1      10.586  12.073  18.786  0.00  0.00    +0.000 C 
ATOM     25  C   UNL     1       9.499  12.969  18.183  0.00  0.00    +0.000 C 
ATOM     26  C   UNL     1       8.455  12.206  17.364  0.00  0.00    +0.000 C 
ATOM     27  C   UNL     1       7.938  10.963  18.092  0.00  0.00    +0.000 C 
ENDBRANCH  20  22
ENDBRANCH  17  18
ENDBRANCH  16  17
ENDBRANCH   6  16
TORSDOF 7
ENDMDL
MODEL 9
REMARK VINA RESULT:      -6.9      2.482      3.213
REMARK  Name = 
REMARK  8 active torsions:
REMARK  status: ('A' for Active; 'I' for Inactive)
REMARK    1  A    between atoms: C_1  and  N_2
REMARK    2  A    between atoms: C_3  and  C_4
REMARK    3  A    between atoms: C_4  and  O_5
REMARK    4  A    between atoms: O_5  and  C_6
REMARK    5  A    between atoms: C_15  and  S_16
REMARK    6  A    between atoms: S_16  and  C_17
REMARK    7  A    between atoms: C_17  and  C_18
REMARK    8  A    between atoms: N_20  and  C_21
REMARK                            x       y       z     vdW  Elec       q    Type
REMARK                         _______ _______ _______ _____ _____    ______ ____
ROOT
ATOM      1  C   UNL     1       3.527   7.045  18.003  0.00  0.00    +0.000 C 
ATOM      2  N   UNL     1       2.959   6.190  19.011  0.00  0.00    +0.000 N 
ATOM      3  C   UNL     1       2.161   6.547  20.074  0.00  0.00    +0.000 A 
ATOM      4  N   UNL     1       1.747   5.444  20.673  0.00  0.00    +0.000 NA
ATOM      5  N   UNL     1       2.294   4.362  20.025  0.00  0.00    +0.000 NA
ATOM      6  C   UNL     1       3.055   4.826  19.060  0.00  0.00    +0.000 A 
ENDROOT
BRANCH   3   7
ATOM      7  C   UNL     1       1.829   7.944  20.484  0.00  0.00    +0.000 C 
BRANCH   7   8
ATOM      8  O   UNL     1       0.710   7.855  21.365  0.00  0.00    +0.000 OA
BRANCH   8   9
ATOM      9  C   UNL     1       0.053   9.015  21.670  0.00  0.00    +0.000 A 
ATOM     10  C   UNL     1      -0.265   9.479  22.947  0.00  0.00    +0.000 A 
ATOM     11  C   UNL     1      -0.917  10.707  23.109  0.00  0.00    +0.000 A 
ATOM     12  C   UNL     1      -1.251  11.474  21.994  0.00  0.00    +0.000 A 
ATOM     13 CL   UNL     1      -2.033  12.993  22.194  0.00  0.00    +0.000 Cl
ATOM     14  C   UNL     1      -0.956  11.013  20.715  0.00  0.00    +0.000 A 
ATOM     15  C   UNL     1      -0.306   9.784  20.557  0.00  0.00    +0.000 A 
ENDBRANCH   8   9
ENDBRANCH   7   8
ENDBRANCH   3   7
BRANCH   6  16
ATOM     16  S   UNL     1       4.000   3.879  17.967  0.00  0.00    +0.000 S 
BRANCH  16  17
ATOM     17  C   UNL     1       5.690   4.382  18.426  0.00  0.00    +0.000 C 
BRANCH  17  18
ATOM     18  C   UNL     1       6.573   4.419  17.189  0.00  0.00    +0.000 C 
ATOM     19  O   UNL     1       7.714   4.872  17.211  0.00  0.00    +0.000 OA
ATOM     20  N   UNL     1       5.964   3.936  16.054  0.00  0.00    +0.000 N 
ATOM     21  H   UNL     1       5.027   3.546  16.146  0.00  0.00    +0.000 HD
BRANCH  20  22
ATOM     22  C   UNL     1       6.525   3.969  14.719  0.00  0.00    +0.000 C 
ATOM     23  C   UNL     1       7.230   5.283  14.378  0.00  0.00    +0.000 C 
ATOM     24  C   UNL     1       8.028   5.104  13.085  0.00  0.00    +0.000 C 
ATOM     25  C   UNL     1       7.168   4.590  11.926  0.00  0.00    +0.000 C 
ATOM     26  C   UNL     1       6.276   3.404  12.298  0.00  0.00    +0.000 C 
ATOM     27  C   UNL     1       5.522   3.630  13.611  0.00  0.00    +0.000 C 
ENDBRANCH  20  22
ENDBRANCH  17  18
ENDBRANCH  16  17
ENDBRANCH   6  16
TORSDOF 7
ENDMDL
