MODEL 1
REMARK VINA RESULT:      -8.0      0.000      0.000
REMARK  Name = 
REMARK  8 active torsions:
REMARK  status: ('A' for Active; 'I' for Inactive)
REMARK    1  A    between atoms: C_1  and  C_2
REMARK    2  A    between atoms: C_5  and  O_6
REMARK    3  A    between atoms: O_6  and  C_7
REMARK    4  A    between atoms: C_10  and  C_11
REMARK    5  A    between atoms: N_12  and  N_13
REMARK    6  A    between atoms: N_13  and  C_14
REMARK    7  A    between atoms: C_14  and  N_16
REMARK    8  A    between atoms: N_16  and  C_17
REMARK                            x       y       z     vdW  Elec       q    Type
REMARK                         _______ _______ _______ _____ _____    ______ ____
ROOT
ATOM      1  C   UNL     1       2.594   5.557  19.312  0.00  0.00    +0.000 C 
ATOM      2  N   UNL     1       3.719   5.243  19.871  0.00  0.00    +0.000 NA
ENDROOT
BRANCH   1   6
ATOM      3  C   UNL     1       1.272   9.591  18.973  0.00  0.00    +0.000 A 
ATOM      4  C   UNL     1       1.929   8.971  17.906  0.00  0.00    +0.000 A 
ATOM      5  C   UNL     1       2.355   7.655  18.029  0.00  0.00    +0.000 A 
ATOM      6  C   UNL     1       2.196   6.976  19.241  0.00  0.00    +0.000 A 
ATOM      7  C   UNL     1       1.620   7.618  20.340  0.00  0.00    +0.000 A 
ATOM      8  C   UNL     1       1.157   8.932  20.201  0.00  0.00    +0.000 A 
BRANCH   3   9
ATOM      9  O   UNL     1       0.714  10.850  18.874  0.00  0.00    +0.000 OA
BRANCH   9  14
ATOM     10  C   UNL     1      -4.851  11.502  17.921  0.00  0.00    +0.000 C 
ATOM     11  C   UNL     1      -3.388  11.295  18.178  0.00  0.00    +0.000 A 
ATOM     12  C   UNL     1      -2.668  10.349  17.443  0.00  0.00    +0.000 A 
ATOM     13  C   UNL     1      -1.311  10.150  17.691  0.00  0.00    +0.000 A 
ATOM     14  C   UNL     1      -0.644  10.939  18.632  0.00  0.00    +0.000 A 
ATOM     15  C   UNL     1      -1.363  11.852  19.401  0.00  0.00    +0.000 A 
ATOM     16  C   UNL     1      -2.732  12.027  19.176  0.00  0.00    +0.000 A 
ENDBRANCH   9  14
ENDBRANCH   3   9
ENDBRANCH   1   6
BRANCH   2  17
ATOM     17  N   UNL     1       4.099   3.949  19.804  0.00  0.00    +0.000 N 
ATOM     18  H   UNL     1       4.066   3.372  20.637  0.00  0.00    +0.000 HD
BRANCH  17  19
ATOM     19  C   UNL     1       4.328   3.335  18.587  0.00  0.00    +0.000 C 
ATOM     20  S   UNL     1       3.250   2.368  17.750  0.00  0.00    +0.000 S 
BRANCH  19  21
ATOM     21  N   UNL     1       5.549   3.619  18.020  0.00  0.00    +0.000 N 
ATOM     22  H   UNL     1       6.164   2.820  17.905  0.00  0.00    +0.000 HD
BRANCH  21  23
ATOM     23  C   UNL     1       6.153   4.891  17.931  0.00  0.00    +0.000 A 
ATOM     24  C   UNL     1       5.621   5.917  17.134  0.00  0.00    +0.000 A 
ATOM     25  C   UNL     1       6.230   7.172  17.101  0.00  0.00    +0.000 A 
ATOM     26  C   UNL     1       7.372   7.402  17.859  0.00  0.00    +0.000 A 
ATOM     27 BR   UNL     1       8.209   9.095  17.801  0.00  0.00    +0.000 Br
ATOM     28  C   UNL     1       7.896   6.397  18.672  0.00  0.00    +0.000 A 
ATOM     29  C   UNL     1       7.274   5.146  18.722  0.00  0.00    +0.000 A 
ENDBRANCH  21  23
ENDBRANCH  19  21
ENDBRANCH  17  19
ENDBRANCH   2  17
TORSDOF 7
ENDMDL
MODEL 2
REMARK VINA RESULT:      -8.0      0.631      1.460
REMARK  Name = 
REMARK  8 active torsions:
REMARK  status: ('A' for Active; 'I' for Inactive)
REMARK    1  A    between atoms: C_1  and  C_2
REMARK    2  A    between atoms: C_5  and  O_6
REMARK    3  A    between atoms: O_6  and  C_7
REMARK    4  A    between atoms: C_10  and  C_11
REMARK    5  A    between atoms: N_12  and  N_13
REMARK    6  A    between atoms: N_13  and  C_14
REMARK    7  A    between atoms: C_14  and  N_16
REMARK    8  A    between atoms: N_16  and  C_17
REMARK                            x       y       z     vdW  Elec       q    Type
REMARK                         _______ _______ _______ _____ _____    ______ ____
ROOT
ATOM      1  C   UNL     1       3.220   6.399  19.390  0.00  0.00    +0.000 C 
ATOM      2  N   UNL     1       2.780   5.199  19.182  0.00  0.00    +0.000 NA
ENDROOT
BRANCH   1   6
ATOM      3  C   UNL     1       0.770   9.838  18.841  0.00  0.00    +0.000 A 
ATOM      4  C   UNL     1       0.788   9.174  20.070  0.00  0.00    +0.000 A 
ATOM      5  C   UNL     1       1.592   8.053  20.237  0.00  0.00    +0.000 A 
ATOM      6  C   UNL     1       2.322   7.546  19.157  0.00  0.00    +0.000 A 
ATOM      7  C   UNL     1       2.239   8.152  17.902  0.00  0.00    +0.000 A 
ATOM      8  C   UNL     1       1.458   9.304  17.747  0.00  0.00    +0.000 A 
BRANCH   3   9
ATOM      9  O   UNL     1       0.092  11.025  18.645  0.00  0.00    +0.000 OA
BRANCH   9  14
ATOM     10  C   UNL     1      -5.520  11.052  17.741  0.00  0.00    +0.000 C 
ATOM     11  C   UNL     1      -4.041  11.009  17.986  0.00  0.00    +0.000 A 
ATOM     12  C   UNL     1      -3.227  10.144  17.249  0.00  0.00    +0.000 A 
ATOM     13  C   UNL     1      -1.854  10.097  17.486  0.00  0.00    +0.000 A 
ATOM     14  C   UNL     1      -1.270  10.962  18.416  0.00  0.00    +0.000 A 
ATOM     15  C   UNL     1      -2.078  11.795  19.185  0.00  0.00    +0.000 A 
ATOM     16  C   UNL     1      -3.461  11.816  18.973  0.00  0.00    +0.000 A 
ENDBRANCH   9  14
ENDBRANCH   3   9
ENDBRANCH   1   6
BRANCH   2  17
ATOM     17  N   UNL     1       3.595   4.177  19.525  0.00  0.00    +0.000 N 
ATOM     18  H   UNL     1       3.829   4.027  20.501  0.00  0.00    +0.000 HD
BRANCH  17  19
ATOM     19  C   UNL     1       3.944   3.205  18.607  0.00  0.00    +0.000 C 
ATOM     20  S   UNL     1       3.139   1.764  18.339  0.00  0.00    +0.000 S 
BRANCH  19  21
ATOM     21  N   UNL     1       5.030   3.518  17.823  0.00  0.00    +0.000 N 
ATOM     22  H   UNL     1       5.486   2.725  17.385  0.00  0.00    +0.000 HD
BRANCH  21  23
ATOM     23  C   UNL     1       5.767   4.721  17.859  0.00  0.00    +0.000 A 
ATOM     24  C   UNL     1       6.879   4.891  18.699  0.00  0.00    +0.000 A 
ATOM     25  C   UNL     1       7.602   6.085  18.680  0.00  0.00    +0.000 A 
ATOM     26  C   UNL     1       7.211   7.111  17.827  0.00  0.00    +0.000 A 
ATOM     27 BR   UNL     1       8.176   8.735  17.813  0.00  0.00    +0.000 Br
ATOM     28  C   UNL     1       6.121   6.944  16.972  0.00  0.00    +0.000 A 
ATOM     29  C   UNL     1       5.410   5.741  16.976  0.00  0.00    +0.000 A 
ENDBRANCH  21  23
ENDBRANCH  19  21
ENDBRANCH  17  19
ENDBRANCH   2  17
TORSDOF 7
ENDMDL
MODEL 3
REMARK VINA RESULT:      -7.9      1.701      2.280
REMARK  Name = 
REMARK  8 active torsions:
REMARK  status: ('A' for Active; 'I' for Inactive)
REMARK    1  A    between atoms: C_1  and  C_2
REMARK    2  A    between atoms: C_5  and  O_6
REMARK    3  A    between atoms: O_6  and  C_7
REMARK    4  A    between atoms: C_10  and  C_11
REMARK    5  A    between atoms: N_12  and  N_13
REMARK    6  A    between atoms: N_13  and  C_14
REMARK    7  A    between atoms: C_14  and  N_16
REMARK    8  A    between atoms: N_16  and  C_17
REMARK                            x       y       z     vdW  Elec       q    Type
REMARK                         _______ _______ _______ _____ _____    ______ ____
ROOT
ATOM      1  C   UNL     1       2.498   6.352  19.902  0.00  0.00    +0.000 C 
ATOM      2  N   UNL     1       1.950   5.694  20.874  0.00  0.00    +0.000 NA
ENDROOT
BRANCH   1   6
ATOM      3  C   UNL     1       0.889  10.138  18.805  0.00  0.00    +0.000 A 
ATOM      4  C   UNL     1       1.688   9.424  17.907  0.00  0.00    +0.000 A 
ATOM      5  C   UNL     1       2.206   8.189  18.277  0.00  0.00    +0.000 A 
ATOM      6  C   UNL     1       1.994   7.697  19.569  0.00  0.00    +0.000 A 
ATOM      7  C   UNL     1       1.272   8.447  20.500  0.00  0.00    +0.000 A 
ATOM      8  C   UNL     1       0.718   9.673  20.112  0.00  0.00    +0.000 A 
BRANCH   3   9
ATOM      9  O   UNL     1       0.243  11.308  18.458  0.00  0.00    +0.000 OA
BRANCH   9  14
ATOM     10  C   UNL     1      -5.409  10.905  18.011  0.00  0.00    +0.000 C 
ATOM     11  C   UNL     1      -3.920  11.046  18.121  0.00  0.00    +0.000 A 
ATOM     12  C   UNL     1      -3.362  11.991  18.986  0.00  0.00    +0.000 A 
ATOM     13  C   UNL     1      -1.978  12.129  19.079  0.00  0.00    +0.000 A 
ATOM     14  C   UNL     1      -1.135  11.280  18.356  0.00  0.00    +0.000 A 
ATOM     15  C   UNL     1      -1.683  10.367  17.458  0.00  0.00    +0.000 A 
ATOM     16  C   UNL     1      -3.072  10.253  17.339  0.00  0.00    +0.000 A 
ENDBRANCH   9  14
ENDBRANCH   3   9
ENDBRANCH   1   6
BRANCH   2  17
ATOM     17  N   UNL     1       2.522   4.521  21.222  0.00  0.00    +0.000 N 
ATOM     18  H   UNL     1       2.791   4.360  22.187  0.00  0.00    +0.000 HD
BRANCH  17  19
ATOM     19  C   UNL     1       2.555   3.455  20.343  0.00  0.00    +0.000 C 
ATOM     20  S   UNL     1       1.229   2.677  19.685  0.00  0.00    +0.000 S 
BRANCH  19  21
ATOM     21  N   UNL     1       3.817   3.066  19.957  0.00  0.00    +0.000 N 
ATOM     22  H   UNL     1       4.385   2.664  20.694  0.00  0.00    +0.000 HD
BRANCH  21  23
ATOM     23  C   UNL     1       4.501   3.487  18.798  0.00  0.00    +0.000 A 
ATOM     24  C   UNL     1       4.038   3.189  17.506  0.00  0.00    +0.000 A 
ATOM     25  C   UNL     1       4.727   3.654  16.385  0.00  0.00    +0.000 A 
ATOM     26  C   UNL     1       5.881   4.411  16.553  0.00  0.00    +0.000 A 
ATOM     27 BR   UNL     1       6.826   5.026  15.036  0.00  0.00    +0.000 Br
ATOM     28  C   UNL     1       6.338   4.732  17.831  0.00  0.00    +0.000 A 
ATOM     29  C   UNL     1       5.636   4.285  18.955  0.00  0.00    +0.000 A 
ENDBRANCH  21  23
ENDBRANCH  19  21
ENDBRANCH  17  19
ENDBRANCH   2  17
TORSDOF 7
ENDMDL
MODEL 4
REMARK VINA RESULT:      -7.8      0.389      1.363
REMARK  Name = 
REMARK  8 active torsions:
REMARK  status: ('A' for Active; 'I' for Inactive)
REMARK    1  A    between atoms: C_1  and  C_2
REMARK    2  A    between atoms: C_5  and  O_6
REMARK    3  A    between atoms: O_6  and  C_7
REMARK    4  A    between atoms: C_10  and  C_11
REMARK    5  A    between atoms: N_12  and  N_13
REMARK    6  A    between atoms: N_13  and  C_14
REMARK    7  A    between atoms: C_14  and  N_16
REMARK    8  A    between atoms: N_16  and  C_17
REMARK                            x       y       z     vdW  Elec       q    Type
REMARK                         _______ _______ _______ _____ _____    ______ ____
ROOT
ATOM      1  C   UNL     1       2.637   5.418  19.219  0.00  0.00    +0.000 C 
ATOM      2  N   UNL     1       3.614   4.978  19.947  0.00  0.00    +0.000 NA
ENDROOT
BRANCH   1   6
ATOM      3  C   UNL     1       1.299   9.456  19.409  0.00  0.00    +0.000 A 
ATOM      4  C   UNL     1       1.903   8.966  18.247  0.00  0.00    +0.000 A 
ATOM      5  C   UNL     1       2.335   7.647  18.198  0.00  0.00    +0.000 A 
ATOM      6  C   UNL     1       2.236   6.833  19.331  0.00  0.00    +0.000 A 
ATOM      7  C   UNL     1       1.715   7.342  20.522  0.00  0.00    +0.000 A 
ATOM      8  C   UNL     1       1.245   8.660  20.558  0.00  0.00    +0.000 A 
BRANCH   3   9
ATOM      9  O   UNL     1       0.737  10.715  19.482  0.00  0.00    +0.000 OA
BRANCH   9  14
ATOM     10  C   UNL     1      -4.474  11.157  17.256  0.00  0.00    +0.000 C 
ATOM     11  C   UNL     1      -3.093  11.075  17.835  0.00  0.00    +0.000 A 
ATOM     12  C   UNL     1      -2.699  11.954  18.848  0.00  0.00    +0.000 A 
ATOM     13  C   UNL     1      -1.411  11.884  19.378  0.00  0.00    +0.000 A 
ATOM     14  C   UNL     1      -0.525  10.892  18.947  0.00  0.00    +0.000 A 
ATOM     15  C   UNL     1      -0.895  10.042  17.907  0.00  0.00    +0.000 A 
ATOM     16  C   UNL     1      -2.174  10.136  17.351  0.00  0.00    +0.000 A 
ENDBRANCH   9  14
ENDBRANCH   3   9
ENDBRANCH   1   6
BRANCH   2  17
ATOM     17  N   UNL     1       4.026   3.712  19.723  0.00  0.00    +0.000 N 
ATOM     18  H   UNL     1       4.150   3.078  20.506  0.00  0.00    +0.000 HD
BRANCH  17  19
ATOM     19  C   UNL     1       4.078   3.194  18.443  0.00  0.00    +0.000 C 
ATOM     20  S   UNL     1       2.887   2.291  17.694  0.00  0.00    +0.000 S 
BRANCH  19  21
ATOM     21  N   UNL     1       5.210   3.525  17.734  0.00  0.00    +0.000 N 
ATOM     22  H   UNL     1       5.735   2.736  17.372  0.00  0.00    +0.000 HD
BRANCH  21  23
ATOM     23  C   UNL     1       5.887   4.762  17.772  0.00  0.00    +0.000 A 
ATOM     24  C   UNL     1       7.056   4.952  18.525  0.00  0.00    +0.000 A 
ATOM     25  C   UNL     1       7.715   6.182  18.508  0.00  0.00    +0.000 A 
ATOM     26  C   UNL     1       7.202   7.225  17.745  0.00  0.00    +0.000 A 
ATOM     27 BR   UNL     1       8.081   8.898  17.736  0.00  0.00    +0.000 Br
ATOM     28  C   UNL     1       6.052   7.042  16.977  0.00  0.00    +0.000 A 
ATOM     29  C   UNL     1       5.405   5.803  16.976  0.00  0.00    +0.000 A 
ENDBRANCH  21  23
ENDBRANCH  19  21
ENDBRANCH  17  19
ENDBRANCH   2  17
TORSDOF 7
ENDMDL
MODEL 5
REMARK VINA RESULT:      -7.7      0.832      1.236
REMARK  Name = 
REMARK  8 active torsions:
REMARK  status: ('A' for Active; 'I' for Inactive)
REMARK    1  A    between atoms: C_1  and  C_2
REMARK    2  A    between atoms: C_5  and  O_6
REMARK    3  A    between atoms: O_6  and  C_7
REMARK    4  A    between atoms: C_10  and  C_11
REMARK    5  A    between atoms: N_12  and  N_13
REMARK    6  A    between atoms: N_13  and  C_14
REMARK    7  A    between atoms: C_14  and  N_16
REMARK    8  A    between atoms: N_16  and  C_17
REMARK                            x       y       z     vdW  Elec       q    Type
REMARK                         _______ _______ _______ _____ _____    ______ ____
ROOT
ATOM      1  C   UNL     1       2.838   5.805  18.906  0.00  0.00    +0.000 C 
ATOM      2  N   UNL     1       3.231   5.315  17.773  0.00  0.00    +0.000 NA
ENDROOT
BRANCH   1   6
ATOM      3  C   UNL     1       1.174   9.724  18.921  0.00  0.00    +0.000 A 
ATOM      4  C   UNL     1       1.796   9.225  17.773  0.00  0.00    +0.000 A 
ATOM      5  C   UNL     1       2.335   7.945  17.780  0.00  0.00    +0.000 A 
ATOM      6  C   UNL     1       2.323   7.186  18.955  0.00  0.00    +0.000 A 
ATOM      7  C   UNL     1       1.783   7.712  20.130  0.00  0.00    +0.000 A 
ATOM      8  C   UNL     1       1.207   8.988  20.109  0.00  0.00    +0.000 A 
BRANCH   3   9
ATOM      9  O   UNL     1       0.511  10.935  18.942  0.00  0.00    +0.000 OA
BRANCH   9  14
ATOM     10  C   UNL     1      -5.023  11.248  17.682  0.00  0.00    +0.000 C 
ATOM     11  C   UNL     1      -3.567  11.130  18.023  0.00  0.00    +0.000 A 
ATOM     12  C   UNL     1      -2.771  10.164  17.401  0.00  0.00    +0.000 A 
ATOM     13  C   UNL     1      -1.421  10.049  17.728  0.00  0.00    +0.000 A 
ATOM     14  C   UNL     1      -0.836  10.941  18.631  0.00  0.00    +0.000 A 
ATOM     15  C   UNL     1      -1.631  11.877  19.288  0.00  0.00    +0.000 A 
ATOM     16  C   UNL     1      -2.993  11.969  18.987  0.00  0.00    +0.000 A 
ENDBRANCH   9  14
ENDBRANCH   3   9
ENDBRANCH   1   6
BRANCH   2  17
ATOM     17  N   UNL     1       3.579   4.010  17.754  0.00  0.00    +0.000 N 
ATOM     18  H   UNL     1       3.206   3.402  17.034  0.00  0.00    +0.000 HD
BRANCH  17  19
ATOM     19  C   UNL     1       4.594   3.531  18.560  0.00  0.00    +0.000 C 
ATOM     20  S   UNL     1       4.407   2.607  19.941  0.00  0.00    +0.000 S 
BRANCH  19  21
ATOM     21  N   UNL     1       5.865   3.817  18.115  0.00  0.00    +0.000 N 
ATOM     22  H   UNL     1       6.479   3.015  18.028  0.00  0.00    +0.000 HD
BRANCH  21  23
ATOM     23  C   UNL     1       6.487   5.083  18.126  0.00  0.00    +0.000 A 
ATOM     24  C   UNL     1       7.435   5.442  19.098  0.00  0.00    +0.000 A 
ATOM     25  C   UNL     1       8.053   6.692  19.052  0.00  0.00    +0.000 A 
ATOM     26  C   UNL     1       7.721   7.587  18.041  0.00  0.00    +0.000 A 
ATOM     27 BR   UNL     1       8.542   9.287  17.989  0.00  0.00    +0.000 Br
ATOM     28  C   UNL     1       6.796   7.232  17.058  0.00  0.00    +0.000 A 
ATOM     29  C   UNL     1       6.193   5.972  17.091  0.00  0.00    +0.000 A 
ENDBRANCH  21  23
ENDBRANCH  19  21
ENDBRANCH  17  19
ENDBRANCH   2  17
TORSDOF 7
ENDMDL
MODEL 6
REMARK VINA RESULT:      -7.6      0.827      1.558
REMARK  Name = 
REMARK  8 active torsions:
REMARK  status: ('A' for Active; 'I' for Inactive)
REMARK    1  A    between atoms: C_1  and  C_2
REMARK    2  A    between atoms: C_5  and  O_6
REMARK    3  A    between atoms: O_6  and  C_7
REMARK    4  A    between atoms: C_10  and  C_11
REMARK    5  A    between atoms: N_12  and  N_13
REMARK    6  A    between atoms: N_13  and  C_14
REMARK    7  A    between atoms: C_14  and  N_16
REMARK    8  A    between atoms: N_16  and  C_17
REMARK                            x       y       z     vdW  Elec       q    Type
REMARK                         _______ _______ _______ _____ _____    ______ ____
ROOT
ATOM      1  C   UNL     1       2.976   6.345  19.604  0.00  0.00    +0.000 C 
ATOM      2  N   UNL     1       2.336   5.225  19.706  0.00  0.00    +0.000 NA
ENDROOT
BRANCH   1   6
ATOM      3  C   UNL     1       0.933  10.034  19.016  0.00  0.00    +0.000 A 
ATOM      4  C   UNL     1       0.738   9.298  20.188  0.00  0.00    +0.000 A 
ATOM      5  C   UNL     1       1.410   8.096  20.368  0.00  0.00    +0.000 A 
ATOM      6  C   UNL     1       2.221   7.586  19.350  0.00  0.00    +0.000 A 
ATOM      7  C   UNL     1       2.351   8.273  18.140  0.00  0.00    +0.000 A 
ATOM      8  C   UNL     1       1.702   9.503  17.976  0.00  0.00    +0.000 A 
BRANCH   3   9
ATOM      9  O   UNL     1       0.394  11.291  18.828  0.00  0.00    +0.000 OA
BRANCH   9  14
ATOM     10  C   UNL     1      -5.251  11.441  18.180  0.00  0.00    +0.000 C 
ATOM     11  C   UNL     1      -3.762  11.438  18.352  0.00  0.00    +0.000 A 
ATOM     12  C   UNL     1      -3.174  12.089  19.440  0.00  0.00    +0.000 A 
ATOM     13  C   UNL     1      -1.789  12.094  19.593  0.00  0.00    +0.000 A 
ATOM     14  C   UNL     1      -0.978  11.394  18.694  0.00  0.00    +0.000 A 
ATOM     15  C   UNL     1      -1.551  10.781  17.583  0.00  0.00    +0.000 A 
ATOM     16  C   UNL     1      -2.939  10.805  17.411  0.00  0.00    +0.000 A 
ENDBRANCH   9  14
ENDBRANCH   3   9
ENDBRANCH   1   6
BRANCH   2  17
ATOM     17  N   UNL     1       3.052   4.136  20.061  0.00  0.00    +0.000 N 
ATOM     18  H   UNL     1       3.236   3.954  21.042  0.00  0.00    +0.000 HD
BRANCH  17  19
ATOM     19  C   UNL     1       3.358   3.153  19.140  0.00  0.00    +0.000 C 
ATOM     20  S   UNL     1       2.299   2.018  18.518  0.00  0.00    +0.000 S 
BRANCH  19  21
ATOM     21  N   UNL     1       4.653   3.182  18.676  0.00  0.00    +0.000 N 
ATOM     22  H   UNL     1       5.181   2.329  18.825  0.00  0.00    +0.000 HD
BRANCH  21  23
ATOM     23  C   UNL     1       5.403   4.336  18.368  0.00  0.00    +0.000 A 
ATOM     24  C   UNL     1       5.132   5.126  17.239  0.00  0.00    +0.000 A 
ATOM     25  C   UNL     1       5.876   6.279  16.989  0.00  0.00    +0.000 A 
ATOM     26  C   UNL     1       6.896   6.641  17.863  0.00  0.00    +0.000 A 
ATOM     27 BR   UNL     1       7.917   8.193  17.516  0.00  0.00    +0.000 Br
ATOM     28  C   UNL     1       7.159   5.876  18.999  0.00  0.00    +0.000 A 
ATOM     29  C   UNL     1       6.400   4.733  19.261  0.00  0.00    +0.000 A 
ENDBRANCH  21  23
ENDBRANCH  19  21
ENDBRANCH  17  19
ENDBRANCH   2  17
TORSDOF 7
ENDMDL
MODEL 7
REMARK VINA RESULT:      -7.5      6.428      8.563
REMARK  Name = 
REMARK  8 active torsions:
REMARK  status: ('A' for Active; 'I' for Inactive)
REMARK    1  A    between atoms: C_1  and  C_2
REMARK    2  A    between atoms: C_5  and  O_6
REMARK    3  A    between atoms: O_6  and  C_7
REMARK    4  A    between atoms: C_10  and  C_11
REMARK    5  A    between atoms: N_12  and  N_13
REMARK    6  A    between atoms: N_13  and  C_14
REMARK    7  A    between atoms: C_14  and  N_16
REMARK    8  A    between atoms: N_16  and  C_17
REMARK                            x       y       z     vdW  Elec       q    Type
REMARK                         _______ _______ _______ _____ _____    ______ ____
ROOT
ATOM      1  C   UNL     1       8.014   9.179  17.817  0.00  0.00    +0.000 C 
ATOM      2  N   UNL     1       8.848   9.474  18.764  0.00  0.00    +0.000 NA
ENDROOT
BRANCH   1   6
ATOM      3  C   UNL     1       6.568   5.181  17.594  0.00  0.00    +0.000 A 
ATOM      4  C   UNL     1       7.590   5.513  18.487  0.00  0.00    +0.000 A 
ATOM      5  C   UNL     1       8.053   6.821  18.551  0.00  0.00    +0.000 A 
ATOM      6  C   UNL     1       7.553   7.786  17.672  0.00  0.00    +0.000 A 
ATOM      7  C   UNL     1       6.594   7.441  16.716  0.00  0.00    +0.000 A 
ATOM      8  C   UNL     1       6.102   6.131  16.680  0.00  0.00    +0.000 A 
BRANCH   3   9
ATOM      9  O   UNL     1       5.979   3.933  17.567  0.00  0.00    +0.000 OA
BRANCH   9  14
ATOM     10  C   UNL     1       0.797   3.568  19.875  0.00  0.00    +0.000 C 
ATOM     11  C   UNL     1       2.155   3.638  19.242  0.00  0.00    +0.000 A 
ATOM     12  C   UNL     1       2.284   3.886  17.873  0.00  0.00    +0.000 A 
ATOM     13  C   UNL     1       3.547   3.940  17.284  0.00  0.00    +0.000 A 
ATOM     14  C   UNL     1       4.697   3.812  18.070  0.00  0.00    +0.000 A 
ATOM     15  C   UNL     1       4.575   3.520  19.426  0.00  0.00    +0.000 A 
ATOM     16  C   UNL     1       3.308   3.431  20.010  0.00  0.00    +0.000 A 
ENDBRANCH   9  14
ENDBRANCH   3   9
ENDBRANCH   1   6
BRANCH   2  17
ATOM     17  N   UNL     1       9.147  10.780  18.936  0.00  0.00    +0.000 N 
ATOM     18  H   UNL     1       8.507  11.491  18.597  0.00  0.00    +0.000 HD
BRANCH  17  19
ATOM     19  C   UNL     1      10.195  11.170  19.747  0.00  0.00    +0.000 C 
ATOM     20  S   UNL     1      11.695  11.705  19.235  0.00  0.00    +0.000 S 
BRANCH  19  21
ATOM     21  N   UNL     1       9.916  11.155  21.094  0.00  0.00    +0.000 N 
ATOM     22  H   UNL     1      10.006  10.248  21.540  0.00  0.00    +0.000 HD
BRANCH  21  23
ATOM     23  C   UNL     1       9.194  12.134  21.808  0.00  0.00    +0.000 A 
ATOM     24  C   UNL     1       8.085  11.813  22.605  0.00  0.00    +0.000 A 
ATOM     25  C   UNL     1       7.419  12.807  23.323  0.00  0.00    +0.000 A 
ATOM     26  C   UNL     1       7.858  14.124  23.240  0.00  0.00    +0.000 A 
ATOM     27 BR   UNL     1       6.946  15.476  24.195  0.00  0.00    +0.000 Br
ATOM     28  C   UNL     1       8.972  14.452  22.468  0.00  0.00    +0.000 A 
ATOM     29  C   UNL     1       9.652  13.452  21.766  0.00  0.00    +0.000 A 
ENDBRANCH  21  23
ENDBRANCH  19  21
ENDBRANCH  17  19
ENDBRANCH   2  17
TORSDOF 7
ENDMDL
MODEL 8
REMARK VINA RESULT:      -7.5      2.789      3.617
REMARK  Name = 
REMARK  8 active torsions:
REMARK  status: ('A' for Active; 'I' for Inactive)
REMARK    1  A    between atoms: C_1  and  C_2
REMARK    2  A    between atoms: C_5  and  O_6
REMARK    3  A    between atoms: O_6  and  C_7
REMARK    4  A    between atoms: C_10  and  C_11
REMARK    5  A    between atoms: N_12  and  N_13
REMARK    6  A    between atoms: N_13  and  C_14
REMARK    7  A    between atoms: C_14  and  N_16
REMARK    8  A    between atoms: N_16  and  C_17
REMARK                            x       y       z     vdW  Elec       q    Type
REMARK                         _______ _______ _______ _____ _____    ______ ____
ROOT
ATOM      1  C   UNL     1       3.808   6.375  18.448  0.00  0.00    +0.000 C 
ATOM      2  N   UNL     1       4.725   6.458  17.537  0.00  0.00    +0.000 NA
ENDROOT
BRANCH   1   6
ATOM      3  C   UNL     1       1.140   9.641  19.034  0.00  0.00    +0.000 A 
ATOM      4  C   UNL     1       1.225   8.620  19.985  0.00  0.00    +0.000 A 
ATOM      5  C   UNL     1       2.100   7.560  19.782  0.00  0.00    +0.000 A 
ATOM      6  C   UNL     1       2.837   7.474  18.597  0.00  0.00    +0.000 A 
ATOM      7  C   UNL     1       2.690   8.444  17.603  0.00  0.00    +0.000 A 
ATOM      8  C   UNL     1       1.837   9.532  17.826  0.00  0.00    +0.000 A 
BRANCH   3   9
ATOM      9  O   UNL     1       0.386  10.780  19.231  0.00  0.00    +0.000 OA
BRANCH   9  14
ATOM     10  C   UNL     1      -4.874  11.184  17.116  0.00  0.00    +0.000 C 
ATOM     11  C   UNL     1      -3.492  11.042  17.679  0.00  0.00    +0.000 A 
ATOM     12  C   UNL     1      -2.594  10.124  17.126  0.00  0.00    +0.000 A 
ATOM     13  C   UNL     1      -1.313   9.985  17.658  0.00  0.00    +0.000 A 
ATOM     14  C   UNL     1      -0.893  10.809  18.707  0.00  0.00    +0.000 A 
ATOM     15  C   UNL     1      -1.795  11.694  19.292  0.00  0.00    +0.000 A 
ATOM     16  C   UNL     1      -3.092  11.808  18.781  0.00  0.00    +0.000 A 
ENDBRANCH   9  14
ENDBRANCH   3   9
ENDBRANCH   1   6
BRANCH   2  17
ATOM     17  N   UNL     1       5.514   5.377  17.356  0.00  0.00    +0.000 N 
ATOM     18  H   UNL     1       6.227   5.155  18.043  0.00  0.00    +0.000 HD
BRANCH  17  19
ATOM     19  C   UNL     1       5.235   4.447  16.373  0.00  0.00    +0.000 C 
ATOM     20  S   UNL     1       5.551   4.611  14.739  0.00  0.00    +0.000 S 
BRANCH  19  21
ATOM     21  N   UNL     1       4.698   3.267  16.834  0.00  0.00    +0.000 N 
ATOM     22  H   UNL     1       4.670   2.515  16.154  0.00  0.00    +0.000 HD
BRANCH  21  23
ATOM     23  C   UNL     1       3.882   3.110  17.974  0.00  0.00    +0.000 A 
ATOM     24  C   UNL     1       2.482   3.187  17.908  0.00  0.00    +0.000 A 
ATOM     25  C   UNL     1       1.710   2.992  19.054  0.00  0.00    +0.000 A 
ATOM     26  C   UNL     1       2.336   2.725  20.267  0.00  0.00    +0.000 A 
ATOM     27 BR   UNL     1       1.293   2.478  21.823  0.00  0.00    +0.000 Br
ATOM     28  C   UNL     1       3.725   2.623  20.339  0.00  0.00    +0.000 A 
ATOM     29  C   UNL     1       4.498   2.798  19.187  0.00  0.00    +0.000 A 
ENDBRANCH  21  23
ENDBRANCH  19  21
ENDBRANCH  17  19
ENDBRANCH   2  17
TORSDOF 7
ENDMDL
MODEL 9
REMARK VINA RESULT:      -7.5      1.094      1.766
REMARK  Name = 
REMARK  8 active torsions:
REMARK  status: ('A' for Active; 'I' for Inactive)
REMARK    1  A    between atoms: C_1  and  C_2
REMARK    2  A    between atoms: C_5  and  O_6
REMARK    3  A    between atoms: O_6  and  C_7
REMARK    4  A    between atoms: C_10  and  C_11
REMARK    5  A    between atoms: N_12  and  N_13
REMARK    6  A    between atoms: N_13  and  C_14
REMARK    7  A    between atoms: C_14  and  N_16
REMARK    8  A    between atoms: N_16  and  C_17
REMARK                            x       y       z     vdW  Elec       q    Type
REMARK                         _______ _______ _______ _____ _____    ______ ____
ROOT
ATOM      1  C   UNL     1       2.627   5.786  18.980  0.00  0.00    +0.000 C 
ATOM      2  N   UNL     1       2.683   5.135  17.862  0.00  0.00    +0.000 NA
ENDROOT
BRANCH   1   6
ATOM      3  C   UNL     1       1.413   9.865  19.106  0.00  0.00    +0.000 A 
ATOM      4  C   UNL     1       1.244   9.044  20.224  0.00  0.00    +0.000 A 
ATOM      5  C   UNL     1       1.645   7.715  20.171  0.00  0.00    +0.000 A 
ATOM      6  C   UNL     1       2.144   7.179  18.979  0.00  0.00    +0.000 A 
ATOM      7  C   UNL     1       2.233   7.971  17.832  0.00  0.00    +0.000 A 
ATOM      8  C   UNL     1       1.864   9.320  17.900  0.00  0.00    +0.000 A 
BRANCH   3   9
ATOM      9  O   UNL     1       1.152  11.220  19.132  0.00  0.00    +0.000 OA
BRANCH   9  14
ATOM     10  C   UNL     1      -4.275  12.642  20.047  0.00  0.00    +0.000 C 
ATOM     11  C   UNL     1      -2.834  12.302  19.811  0.00  0.00    +0.000 A 
ATOM     12  C   UNL     1      -1.869  12.606  20.775  0.00  0.00    +0.000 A 
ATOM     13  C   UNL     1      -0.528  12.299  20.549  0.00  0.00    +0.000 A 
ATOM     14  C   UNL     1      -0.145  11.625  19.385  0.00  0.00    +0.000 A 
ATOM     15  C   UNL     1      -1.094  11.358  18.400  0.00  0.00    +0.000 A 
ATOM     16  C   UNL     1      -2.434  11.699  18.612  0.00  0.00    +0.000 A 
ENDBRANCH   9  14
ENDBRANCH   3   9
ENDBRANCH   1   6
BRANCH   2  17
ATOM     17  N   UNL     1       3.013   3.827  17.928  0.00  0.00    +0.000 N 
ATOM     18  H   UNL     1       2.463   3.144  17.419  0.00  0.00    +0.000 HD
BRANCH  17  19
ATOM     19  C   UNL     1       4.205   3.420  18.495  0.00  0.00    +0.000 C 
ATOM     20  S   UNL     1       4.379   2.558  19.918  0.00  0.00    +0.000 S 
BRANCH  19  21
ATOM     21  N   UNL     1       5.327   3.726  17.759  0.00  0.00    +0.000 N 
ATOM     22  H   UNL     1       5.830   2.925  17.392  0.00  0.00    +0.000 HD
BRANCH  21  23
ATOM     23  C   UNL     1       6.026   4.951  17.774  0.00  0.00    +0.000 A 
ATOM     24  C   UNL     1       5.653   6.035  16.964  0.00  0.00    +0.000 A 
ATOM     25  C   UNL     1       6.350   7.241  17.033  0.00  0.00    +0.000 A 
ATOM     26  C   UNL     1       7.426   7.363  17.907  0.00  0.00    +0.000 A 
ATOM     27 BR   UNL     1       8.384   8.990  17.989  0.00  0.00    +0.000 Br
ATOM     28  C   UNL     1       7.792   6.300  18.732  0.00  0.00    +0.000 A 
ATOM     29  C   UNL     1       7.079   5.098  18.678  0.00  0.00    +0.000 A 
ENDBRANCH  21  23
ENDBRANCH  19  21
ENDBRANCH  17  19
ENDBRANCH   2  17
TORSDOF 7
ENDMDL
