MODEL 1
REMARK VINA RESULT:      -7.8      0.000      0.000
REMARK  Name = 
REMARK  5 active torsions:
REMARK  status: ('A' for Active; 'I' for Inactive)
REMARK    1  A    between atoms: C_1  and  O_2
REMARK    2  A    between atoms: O_2  and  C_3
REMARK    3  A    between atoms: C_5  and  C_6
REMARK    4  A    between atoms: N_14  and  C_15
REMARK    5  A    between atoms: C_18  and  C_19
REMARK                            x       y       z     vdW  Elec       q    Type
REMARK                         _______ _______ _______ _____ _____    ______ ____
ROOT
ATOM      1  C   UNL     1       3.392   2.842  18.419  0.00  0.00    +0.000 A 
ATOM      2  C   UNL     1       4.375   3.117  17.457  0.00  0.00    +0.000 A 
ATOM      3  C   UNL     1       4.784   4.426  17.183  0.00  0.00    +0.000 A 
ATOM      4  C   UNL     1       4.160   5.452  17.899  0.00  0.00    +0.000 A 
ATOM      5  C   UNL     1       3.117   5.194  18.831  0.00  0.00    +0.000 A 
ATOM      6  C   UNL     1       2.368   6.199  19.478  0.00  0.00    +0.000 A 
ATOM      7  N   UNL     1       2.676   7.560  19.235  0.00  0.00    +0.000 N 
ATOM      8  N   UNL     1       1.362   5.920  20.325  0.00  0.00    +0.000 NA
ATOM      9  C   UNL     1       1.111   4.631  20.549  0.00  0.00    +0.000 A 
ATOM     10  N   UNL     1       1.748   3.603  19.985  0.00  0.00    +0.000 NA
ATOM     11  C   UNL     1       2.729   3.876  19.106  0.00  0.00    +0.000 A 
ATOM     12  H   UNL     1       3.609   7.782  19.549  0.00  0.00    +0.000 HD
ENDROOT
BRANCH   7  13
ATOM     13  C   UNL     1       1.797   8.651  19.159  0.00  0.00    +0.000 A 
ATOM     14  C   UNL     1       1.531   9.239  17.913  0.00  0.00    +0.000 A 
ATOM     15  C   UNL     1       0.527  10.205  17.764  0.00  0.00    +0.000 A 
ATOM     16  C   UNL     1      -0.253  10.585  18.860  0.00  0.00    +0.000 A 
ATOM     17  C   UNL     1       0.056  10.059  20.119  0.00  0.00    +0.000 A 
ATOM     18  C   UNL     1       1.076   9.110  20.266  0.00  0.00    +0.000 A 
BRANCH  16  19
ATOM     19  C   UNL     1      -1.443  11.482  18.748  0.00  0.00    +0.000 C 
ATOM     20  N   UNL     1      -1.655  12.147  17.571  0.00  0.00    +0.000 N 
ATOM     21  O   UNL     1      -2.249  11.597  19.663  0.00  0.00    +0.000 OA
ATOM     22  H   UNL     1      -1.094  12.057  16.740  0.00  0.00    +0.000 HD
ATOM     23  H   UNL     1      -2.515  12.676  17.502  0.00  0.00    +0.000 HD
ENDBRANCH  16  19
ENDBRANCH   7  13
BRANCH   3  24
ATOM     24  C   UNL     1       5.776   4.732  16.140  0.00  0.00    +0.000 A 
ATOM     25  C   UNL     1       6.937   5.488  16.213  0.00  0.00    +0.000 A 
ATOM     26  N   UNL     1       7.655   5.636  15.041  0.00  0.00    +0.000 NA
ATOM     27  C   UNL     1       7.036   4.994  14.077  0.00  0.00    +0.000 A 
ATOM     28  S   UNL     1       5.613   4.156  14.520  0.00  0.00    +0.000 S 
ENDBRANCH   3  24
BRANCH   1  30
ATOM     29  C   UNL     1       3.968   0.608  19.010  0.00  0.00    +0.000 C 
ATOM     30  O   UNL     1       2.961   1.557  18.680  0.00  0.00    +0.000 OA
ENDBRANCH   1  30
TORSDOF 4
ENDMDL
MODEL 2
REMARK VINA RESULT:      -7.6      0.499      1.046
REMARK  Name = 
REMARK  5 active torsions:
REMARK  status: ('A' for Active; 'I' for Inactive)
REMARK    1  A    between atoms: C_1  and  O_2
REMARK    2  A    between atoms: O_2  and  C_3
REMARK    3  A    between atoms: C_5  and  C_6
REMARK    4  A    between atoms: N_14  and  C_15
REMARK    5  A    between atoms: C_18  and  C_19
REMARK                            x       y       z     vdW  Elec       q    Type
REMARK                         _______ _______ _______ _____ _____    ______ ____
ROOT
ATOM      1  C   UNL     1       3.495   2.763  18.460  0.00  0.00    +0.000 A 
ATOM      2  C   UNL     1       4.462   3.065  17.490  0.00  0.00    +0.000 A 
ATOM      3  C   UNL     1       4.811   4.385  17.193  0.00  0.00    +0.000 A 
ATOM      4  C   UNL     1       4.143   5.395  17.893  0.00  0.00    +0.000 A 
ATOM      5  C   UNL     1       3.115   5.107  18.832  0.00  0.00    +0.000 A 
ATOM      6  C   UNL     1       2.323   6.088  19.464  0.00  0.00    +0.000 A 
ATOM      7  N   UNL     1       2.569   7.457  19.196  0.00  0.00    +0.000 N 
ATOM      8  N   UNL     1       1.332   5.779  20.319  0.00  0.00    +0.000 NA
ATOM      9  C   UNL     1       1.141   4.484  20.566  0.00  0.00    +0.000 A 
ATOM     10  N   UNL     1       1.822   3.476  20.018  0.00  0.00    +0.000 NA
ATOM     11  C   UNL     1       2.787   3.778  19.132  0.00  0.00    +0.000 A 
ATOM     12  H   UNL     1       3.492   7.726  19.503  0.00  0.00    +0.000 HD
ENDROOT
BRANCH   7  13
ATOM     13  C   UNL     1       1.641   8.506  19.104  0.00  0.00    +0.000 A 
ATOM     14  C   UNL     1       1.155   9.103  20.278  0.00  0.00    +0.000 A 
ATOM     15  C   UNL     1       0.374  10.266  20.233  0.00  0.00    +0.000 A 
ATOM     16  C   UNL     1       0.084  10.872  19.007  0.00  0.00    +0.000 A 
ATOM     17  C   UNL     1       0.501  10.242  17.830  0.00  0.00    +0.000 A 
ATOM     18  C   UNL     1       1.263   9.067  17.880  0.00  0.00    +0.000 A 
BRANCH  16  19
ATOM     19  C   UNL     1      -0.600  12.195  18.889  0.00  0.00    +0.000 C 
ATOM     20  N   UNL     1      -1.157  12.543  17.689  0.00  0.00    +0.000 N 
ATOM     21  O   UNL     1      -0.709  12.949  19.849  0.00  0.00    +0.000 OA
ATOM     22  H   UNL     1      -1.185  11.960  16.868  0.00  0.00    +0.000 HD
ATOM     23  H   UNL     1      -1.685  13.406  17.671  0.00  0.00    +0.000 HD
ENDBRANCH  16  19
ENDBRANCH   7  13
BRANCH   3  24
ATOM     24  C   UNL     1       5.785   4.718  16.141  0.00  0.00    +0.000 A 
ATOM     25  C   UNL     1       6.964   5.445  16.220  0.00  0.00    +0.000 A 
ATOM     26  N   UNL     1       7.659   5.630  15.040  0.00  0.00    +0.000 NA
ATOM     27  C   UNL     1       7.004   5.047  14.062  0.00  0.00    +0.000 A 
ATOM     28  S   UNL     1       5.573   4.219  14.501  0.00  0.00    +0.000 S 
ENDBRANCH   3  24
BRANCH   1  30
ATOM     29  C   UNL     1       4.150   0.603  19.221  0.00  0.00    +0.000 C 
ATOM     30  O   UNL     1       3.123   1.465  18.745  0.00  0.00    +0.000 OA
ENDBRANCH   1  30
TORSDOF 4
ENDMDL
MODEL 3
REMARK VINA RESULT:      -7.5      4.391     10.525
REMARK  Name = 
REMARK  5 active torsions:
REMARK  status: ('A' for Active; 'I' for Inactive)
REMARK    1  A    between atoms: C_1  and  O_2
REMARK    2  A    between atoms: O_2  and  C_3
REMARK    3  A    between atoms: C_5  and  C_6
REMARK    4  A    between atoms: N_14  and  C_15
REMARK    5  A    between atoms: C_18  and  C_19
REMARK                            x       y       z     vdW  Elec       q    Type
REMARK                         _______ _______ _______ _____ _____    ______ ____
ROOT
ATOM      1  C   UNL     1      -5.014  12.013  18.433  0.00  0.00    +0.000 A 
ATOM      2  C   UNL     1      -5.026  12.638  19.687  0.00  0.00    +0.000 A 
ATOM      3  C   UNL     1      -3.862  12.768  20.451  0.00  0.00    +0.000 A 
ATOM      4  C   UNL     1      -2.686  12.232  19.917  0.00  0.00    +0.000 A 
ATOM      5  C   UNL     1      -2.670  11.538  18.676  0.00  0.00    +0.000 A 
ATOM      6  C   UNL     1      -1.542  10.868  18.160  0.00  0.00    +0.000 A 
ATOM      7  N   UNL     1      -0.324  10.903  18.880  0.00  0.00    +0.000 N 
ATOM      8  N   UNL     1      -1.572  10.188  16.999  0.00  0.00    +0.000 NA
ATOM      9  C   UNL     1      -2.727  10.192  16.336  0.00  0.00    +0.000 A 
ATOM     10  N   UNL     1      -3.855  10.783  16.736  0.00  0.00    +0.000 NA
ATOM     11  C   UNL     1      -3.842  11.430  17.914  0.00  0.00    +0.000 A 
ATOM     12  H   UNL     1       0.028  11.846  18.951  0.00  0.00    +0.000 HD
ENDROOT
BRANCH   7  13
ATOM     13  C   UNL     1       0.645   9.894  19.001  0.00  0.00    +0.000 A 
ATOM     14  C   UNL     1       0.751   9.179  20.203  0.00  0.00    +0.000 A 
ATOM     15  C   UNL     1       1.572   8.048  20.307  0.00  0.00    +0.000 A 
ATOM     16  C   UNL     1       2.289   7.594  19.196  0.00  0.00    +0.000 A 
ATOM     17  C   UNL     1       2.247   8.345  18.017  0.00  0.00    +0.000 A 
ATOM     18  C   UNL     1       1.442   9.488  17.925  0.00  0.00    +0.000 A 
BRANCH  16  19
ATOM     19  C   UNL     1       3.053   6.310  19.183  0.00  0.00    +0.000 C 
ATOM     20  N   UNL     1       3.071   5.545  20.317  0.00  0.00    +0.000 N 
ATOM     21  O   UNL     1       3.620   5.911  18.173  0.00  0.00    +0.000 OA
ATOM     22  H   UNL     1       2.574   5.751  21.168  0.00  0.00    +0.000 HD
ATOM     23  H   UNL     1       3.526   4.644  20.244  0.00  0.00    +0.000 HD
ENDBRANCH  16  19
ENDBRANCH   7  13
BRANCH   3  24
ATOM     24  C   UNL     1      -3.871  13.376  21.791  0.00  0.00    +0.000 A 
ATOM     25  C   UNL     1      -4.505  14.525  22.242  0.00  0.00    +0.000 A 
ATOM     26  N   UNL     1      -4.292  14.874  23.562  0.00  0.00    +0.000 NA
ATOM     27  C   UNL     1      -3.492  13.990  24.114  0.00  0.00    +0.000 A 
ATOM     28  S   UNL     1      -2.998  12.693  23.116  0.00  0.00    +0.000 S 
ENDBRANCH   3  24
BRANCH   1  30
ATOM     29  C   UNL     1      -7.239  12.733  17.982  0.00  0.00    +0.000 C 
ATOM     30  O   UNL     1      -6.161  11.855  17.681  0.00  0.00    +0.000 OA
ENDBRANCH   1  30
TORSDOF 4
ENDMDL
MODEL 4
REMARK VINA RESULT:      -7.2      4.456     10.260
REMARK  Name = 
REMARK  5 active torsions:
REMARK  status: ('A' for Active; 'I' for Inactive)
REMARK    1  A    between atoms: C_1  and  O_2
REMARK    2  A    between atoms: O_2  and  C_3
REMARK    3  A    between atoms: C_5  and  C_6
REMARK    4  A    between atoms: N_14  and  C_15
REMARK    5  A    between atoms: C_18  and  C_19
REMARK                            x       y       z     vdW  Elec       q    Type
REMARK                         _______ _______ _______ _____ _____    ______ ____
ROOT
ATOM      1  C   UNL     1      -4.360  12.226  19.268  0.00  0.00    +0.000 A 
ATOM      2  C   UNL     1      -4.093  12.920  20.456  0.00  0.00    +0.000 A 
ATOM      3  C   UNL     1      -2.803  12.982  20.992  0.00  0.00    +0.000 A 
ATOM      4  C   UNL     1      -1.792  12.307  20.301  0.00  0.00    +0.000 A 
ATOM      5  C   UNL     1      -2.059  11.545  19.130  0.00  0.00    +0.000 A 
ATOM      6  C   UNL     1      -1.103  10.742  18.475  0.00  0.00    +0.000 A 
ATOM      7  N   UNL     1       0.224  10.702  18.966  0.00  0.00    +0.000 N 
ATOM      8  N   UNL     1      -1.399  10.003  17.391  0.00  0.00    +0.000 NA
ATOM      9  C   UNL     1      -2.651  10.079  16.941  0.00  0.00    +0.000 A 
ATOM     10  N   UNL     1      -3.634  10.797  17.489  0.00  0.00    +0.000 NA
ATOM     11  C   UNL     1      -3.354  11.506  18.596  0.00  0.00    +0.000 A 
ATOM     12  H   UNL     1       0.661  11.610  18.906  0.00  0.00    +0.000 HD
ENDROOT
BRANCH   7  13
ATOM     13  C   UNL     1       1.112   9.614  18.989  0.00  0.00    +0.000 A 
ATOM     14  C   UNL     1       1.186   8.808  20.135  0.00  0.00    +0.000 A 
ATOM     15  C   UNL     1       1.917   7.612  20.136  0.00  0.00    +0.000 A 
ATOM     16  C   UNL     1       2.569   7.184  18.976  0.00  0.00    +0.000 A 
ATOM     17  C   UNL     1       2.561   8.019  17.854  0.00  0.00    +0.000 A 
ATOM     18  C   UNL     1       1.848   9.225  17.865  0.00  0.00    +0.000 A 
BRANCH  16  19
ATOM     19  C   UNL     1       3.227   5.848  18.852  0.00  0.00    +0.000 C 
ATOM     20  N   UNL     1       3.644   5.434  17.616  0.00  0.00    +0.000 N 
ATOM     21  O   UNL     1       3.438   5.143  19.831  0.00  0.00    +0.000 OA
ATOM     22  H   UNL     1       3.584   5.974  16.769  0.00  0.00    +0.000 HD
ATOM     23  H   UNL     1       4.162   4.565  17.585  0.00  0.00    +0.000 HD
ENDBRANCH  16  19
ENDBRANCH   7  13
BRANCH   3  24
ATOM     24  C   UNL     1      -2.519  13.663  22.266  0.00  0.00    +0.000 A 
ATOM     25  C   UNL     1      -1.303  13.924  22.881  0.00  0.00    +0.000 A 
ATOM     26  N   UNL     1      -1.353  14.552  24.111  0.00  0.00    +0.000 NA
ATOM     27  C   UNL     1      -2.608  14.765  24.432  0.00  0.00    +0.000 A 
ATOM     28  S   UNL     1      -3.775  14.277  23.281  0.00  0.00    +0.000 S 
ENDBRANCH   3  24
BRANCH   1  30
ATOM     29  C   UNL     1      -6.410  13.327  18.759  0.00  0.00    +0.000 C 
ATOM     30  O   UNL     1      -5.633  12.135  18.742  0.00  0.00    +0.000 OA
ENDBRANCH   1  30
TORSDOF 4
ENDMDL
MODEL 5
REMARK VINA RESULT:      -7.0      4.059      8.732
REMARK  Name = 
REMARK  5 active torsions:
REMARK  status: ('A' for Active; 'I' for Inactive)
REMARK    1  A    between atoms: C_1  and  O_2
REMARK    2  A    between atoms: O_2  and  C_3
REMARK    3  A    between atoms: C_5  and  C_6
REMARK    4  A    between atoms: N_14  and  C_15
REMARK    5  A    between atoms: C_18  and  C_19
REMARK                            x       y       z     vdW  Elec       q    Type
REMARK                         _______ _______ _______ _____ _____    ______ ____
ROOT
ATOM      1  C   UNL     1      -0.033  12.351  21.938  0.00  0.00    +0.000 A 
ATOM      2  C   UNL     1       0.584  13.322  21.137  0.00  0.00    +0.000 A 
ATOM      3  C   UNL     1       1.246  12.981  19.953  0.00  0.00    +0.000 A 
ATOM      4  C   UNL     1       1.281  11.625  19.610  0.00  0.00    +0.000 A 
ATOM      5  C   UNL     1       0.715  10.622  20.445  0.00  0.00    +0.000 A 
ATOM      6  C   UNL     1       0.839   9.237  20.211  0.00  0.00    +0.000 A 
ATOM      7  N   UNL     1       1.530   8.786  19.060  0.00  0.00    +0.000 N 
ATOM      8  N   UNL     1       0.325   8.313  21.042  0.00  0.00    +0.000 NA
ATOM      9  C   UNL     1      -0.337   8.770  22.104  0.00  0.00    +0.000 A 
ATOM     10  N   UNL     1      -0.505  10.055  22.426  0.00  0.00    +0.000 NA
ATOM     11  C   UNL     1       0.042  10.981  21.620  0.00  0.00    +0.000 A 
ATOM     12  H   UNL     1       1.061   9.084  18.216  0.00  0.00    +0.000 HD
ENDROOT
BRANCH   7  13
ATOM     13  C   UNL     1       2.342   7.650  18.921  0.00  0.00    +0.000 A 
ATOM     14  C   UNL     1       3.277   7.593  17.877  0.00  0.00    +0.000 A 
ATOM     15  C   UNL     1       4.231   6.567  17.809  0.00  0.00    +0.000 A 
ATOM     16  C   UNL     1       4.282   5.587  18.805  0.00  0.00    +0.000 A 
ATOM     17  C   UNL     1       3.306   5.595  19.807  0.00  0.00    +0.000 A 
ATOM     18  C   UNL     1       2.342   6.611  19.857  0.00  0.00    +0.000 A 
BRANCH  16  19
ATOM     19  C   UNL     1       5.366   4.562  18.890  0.00  0.00    +0.000 C 
ATOM     20  N   UNL     1       5.020   3.257  19.110  0.00  0.00    +0.000 N 
ATOM     21  O   UNL     1       6.543   4.857  18.724  0.00  0.00    +0.000 OA
ATOM     22  H   UNL     1       4.078   2.907  19.182  0.00  0.00    +0.000 HD
ATOM     23  H   UNL     1       5.771   2.581  19.075  0.00  0.00    +0.000 HD
ENDBRANCH  16  19
ENDBRANCH   7  13
BRANCH   3  24
ATOM     24  C   UNL     1       1.942  13.983  19.130  0.00  0.00    +0.000 A 
ATOM     25  C   UNL     1       3.045  13.840  18.302  0.00  0.00    +0.000 A 
ATOM     26  N   UNL     1       3.507  14.986  17.681  0.00  0.00    +0.000 NA
ATOM     27  C   UNL     1       2.755  16.000  18.042  0.00  0.00    +0.000 A 
ATOM     28  S   UNL     1       1.450  15.638  19.087  0.00  0.00    +0.000 S 
ENDBRANCH   3  24
BRANCH   1  30
ATOM     29  C   UNL     1      -1.748  13.591  23.030  0.00  0.00    +0.000 C 
ATOM     30  O   UNL     1      -0.666  12.672  23.122  0.00  0.00    +0.000 OA
ENDBRANCH   1  30
TORSDOF 4
ENDMDL
MODEL 6
REMARK VINA RESULT:      -7.0      4.048      8.882
REMARK  Name = 
REMARK  5 active torsions:
REMARK  status: ('A' for Active; 'I' for Inactive)
REMARK    1  A    between atoms: C_1  and  O_2
REMARK    2  A    between atoms: O_2  and  C_3
REMARK    3  A    between atoms: C_5  and  C_6
REMARK    4  A    between atoms: N_14  and  C_15
REMARK    5  A    between atoms: C_18  and  C_19
REMARK                            x       y       z     vdW  Elec       q    Type
REMARK                         _______ _______ _______ _____ _____    ______ ____
ROOT
ATOM      1  C   UNL     1      -0.257  12.378  22.104  0.00  0.00    +0.000 A 
ATOM      2  C   UNL     1       0.303  13.392  21.313  0.00  0.00    +0.000 A 
ATOM      3  C   UNL     1       0.968  13.103  20.117  0.00  0.00    +0.000 A 
ATOM      4  C   UNL     1       1.065  11.757  19.750  0.00  0.00    +0.000 A 
ATOM      5  C   UNL     1       0.559  10.714  20.574  0.00  0.00    +0.000 A 
ATOM      6  C   UNL     1       0.747   9.340  20.315  0.00  0.00    +0.000 A 
ATOM      7  N   UNL     1       1.446   8.943  19.149  0.00  0.00    +0.000 N 
ATOM      8  N   UNL     1       0.288   8.379  21.135  0.00  0.00    +0.000 NA
ATOM      9  C   UNL     1      -0.384   8.785  22.212  0.00  0.00    +0.000 A 
ATOM     10  N   UNL     1      -0.611  10.054  22.557  0.00  0.00    +0.000 NA
ATOM     11  C   UNL     1      -0.119  11.020  21.761  0.00  0.00    +0.000 A 
ATOM     12  H   UNL     1       0.955   9.231  18.316  0.00  0.00    +0.000 HD
ENDROOT
BRANCH   7  13
ATOM     13  C   UNL     1       2.312   7.850  18.984  0.00  0.00    +0.000 A 
ATOM     14  C   UNL     1       2.319   6.824  19.940  0.00  0.00    +0.000 A 
ATOM     15  C   UNL     1       3.028   5.633  19.725  0.00  0.00    +0.000 A 
ATOM     16  C   UNL     1       3.726   5.437  18.530  0.00  0.00    +0.000 A 
ATOM     17  C   UNL     1       3.785   6.485  17.605  0.00  0.00    +0.000 A 
ATOM     18  C   UNL     1       3.094   7.681  17.836  0.00  0.00    +0.000 A 
BRANCH  16  19
ATOM     19  C   UNL     1       4.365   4.138  18.159  0.00  0.00    +0.000 C 
ATOM     20  N   UNL     1       5.259   3.574  19.029  0.00  0.00    +0.000 N 
ATOM     21  O   UNL     1       4.074   3.551  17.124  0.00  0.00    +0.000 OA
ATOM     22  H   UNL     1       5.503   3.941  19.934  0.00  0.00    +0.000 HD
ATOM     23  H   UNL     1       5.605   2.656  18.784  0.00  0.00    +0.000 HD
ENDBRANCH  16  19
ENDBRANCH   7  13
BRANCH   3  24
ATOM     24  C   UNL     1       1.605  14.151  19.305  0.00  0.00    +0.000 A 
ATOM     25  C   UNL     1       2.744  14.094  18.515  0.00  0.00    +0.000 A 
ATOM     26  N   UNL     1       3.129  15.268  17.895  0.00  0.00    +0.000 NA
ATOM     27  C   UNL     1       2.283  16.219  18.218  0.00  0.00    +0.000 A 
ATOM     28  S   UNL     1       0.979  15.760  19.224  0.00  0.00    +0.000 S 
ENDBRANCH   3  24
BRANCH   1  30
ATOM     29  C   UNL     1      -1.500  13.929  23.417  0.00  0.00    +0.000 C 
ATOM     30  O   UNL     1      -0.893  12.648  23.299  0.00  0.00    +0.000 OA
ENDBRANCH   1  30
TORSDOF 4
ENDMDL
MODEL 7
REMARK VINA RESULT:      -6.7      4.384     10.083
REMARK  Name = 
REMARK  5 active torsions:
REMARK  status: ('A' for Active; 'I' for Inactive)
REMARK    1  A    between atoms: C_1  and  O_2
REMARK    2  A    between atoms: O_2  and  C_3
REMARK    3  A    between atoms: C_5  and  C_6
REMARK    4  A    between atoms: N_14  and  C_15
REMARK    5  A    between atoms: C_18  and  C_19
REMARK                            x       y       z     vdW  Elec       q    Type
REMARK                         _______ _______ _______ _____ _____    ______ ____
ROOT
ATOM      1  C   UNL     1      -4.177  12.406  19.288  0.00  0.00    +0.000 A 
ATOM      2  C   UNL     1      -3.798  13.064  20.467  0.00  0.00    +0.000 A 
ATOM      3  C   UNL     1      -2.490  12.993  20.956  0.00  0.00    +0.000 A 
ATOM      4  C   UNL     1      -1.578  12.222  20.228  0.00  0.00    +0.000 A 
ATOM      5  C   UNL     1      -1.963  11.496  19.067  0.00  0.00    +0.000 A 
ATOM      6  C   UNL     1      -1.118  10.603  18.377  0.00  0.00    +0.000 A 
ATOM      7  N   UNL     1       0.215  10.426  18.819  0.00  0.00    +0.000 N 
ATOM      8  N   UNL     1      -1.526   9.902  17.303  0.00  0.00    +0.000 NA
ATOM      9  C   UNL     1      -2.779  10.107  16.900  0.00  0.00    +0.000 A 
ATOM     10  N   UNL     1      -3.665  10.918  17.483  0.00  0.00    +0.000 NA
ATOM     11  C   UNL     1      -3.274  11.590  18.580  0.00  0.00    +0.000 A 
ATOM     12  H   UNL     1       0.739  11.286  18.743  0.00  0.00    +0.000 HD
ENDROOT
BRANCH   7  13
ATOM     13  C   UNL     1       0.988   9.254  18.809  0.00  0.00    +0.000 A 
ATOM     14  C   UNL     1       1.736   8.930  17.667  0.00  0.00    +0.000 A 
ATOM     15  C   UNL     1       2.659   7.875  17.677  0.00  0.00    +0.000 A 
ATOM     16  C   UNL     1       2.870   7.136  18.845  0.00  0.00    +0.000 A 
ATOM     17  C   UNL     1       2.074   7.404  19.963  0.00  0.00    +0.000 A 
ATOM     18  C   UNL     1       1.137   8.446  19.940  0.00  0.00    +0.000 A 
BRANCH  16  19
ATOM     19  C   UNL     1       3.947   6.110  18.981  0.00  0.00    +0.000 C 
ATOM     20  N   UNL     1       5.004   6.147  18.111  0.00  0.00    +0.000 N 
ATOM     21  O   UNL     1       3.927   5.272  19.874  0.00  0.00    +0.000 OA
ATOM     22  H   UNL     1       5.146   6.841  17.396  0.00  0.00    +0.000 HD
ATOM     23  H   UNL     1       5.754   5.491  18.288  0.00  0.00    +0.000 HD
ENDBRANCH  16  19
ENDBRANCH   7  13
BRANCH   3  24
ATOM     24  C   UNL     1      -2.092  13.636  22.218  0.00  0.00    +0.000 A 
ATOM     25  C   UNL     1      -0.831  13.992  22.674  0.00  0.00    +0.000 A 
ATOM     26  N   UNL     1      -0.763  14.550  23.937  0.00  0.00    +0.000 NA
ATOM     27  C   UNL     1      -1.974  14.615  24.441  0.00  0.00    +0.000 A 
ATOM     28  S   UNL     1      -3.242  14.065  23.434  0.00  0.00    +0.000 S 
ENDBRANCH   3  24
BRANCH   1  30
ATOM     29  C   UNL     1      -6.471  11.866  19.638  0.00  0.00    +0.000 C 
ATOM     30  O   UNL     1      -5.471  12.447  18.809  0.00  0.00    +0.000 OA
ENDBRANCH   1  30
TORSDOF 4
ENDMDL
MODEL 8
REMARK VINA RESULT:      -6.7      4.588      9.176
REMARK  Name = 
REMARK  5 active torsions:
REMARK  status: ('A' for Active; 'I' for Inactive)
REMARK    1  A    between atoms: C_1  and  O_2
REMARK    2  A    between atoms: O_2  and  C_3
REMARK    3  A    between atoms: C_5  and  C_6
REMARK    4  A    between atoms: N_14  and  C_15
REMARK    5  A    between atoms: C_18  and  C_19
REMARK                            x       y       z     vdW  Elec       q    Type
REMARK                         _______ _______ _______ _____ _____    ______ ____
ROOT
ATOM      1  C   UNL     1       0.403  14.863  19.178  0.00  0.00    +0.000 A 
ATOM      2  C   UNL     1       1.730  15.313  19.107  0.00  0.00    +0.000 A 
ATOM      3  C   UNL     1       2.774  14.455  18.749  0.00  0.00    +0.000 A 
ATOM      4  C   UNL     1       2.442  13.123  18.480  0.00  0.00    +0.000 A 
ATOM      5  C   UNL     1       1.112  12.637  18.611  0.00  0.00    +0.000 A 
ATOM      6  C   UNL     1       0.749  11.281  18.481  0.00  0.00    +0.000 A 
ATOM      7  N   UNL     1       1.743  10.324  18.162  0.00  0.00    +0.000 N 
ATOM      8  N   UNL     1      -0.514  10.849  18.650  0.00  0.00    +0.000 NA
ATOM      9  C   UNL     1      -1.428  11.777  18.928  0.00  0.00    +0.000 A 
ATOM     10  N   UNL     1      -1.194  13.082  19.083  0.00  0.00    +0.000 NA
ATOM     11  C   UNL     1       0.073  13.513  18.955  0.00  0.00    +0.000 A 
ATOM     12  H   UNL     1       2.142  10.505  17.253  0.00  0.00    +0.000 HD
ENDROOT
BRANCH   7  13
ATOM     13  C   UNL     1       1.847   8.996  18.605  0.00  0.00    +0.000 A 
ATOM     14  C   UNL     1       2.389   8.024  17.751  0.00  0.00    +0.000 A 
ATOM     15  C   UNL     1       2.681   6.732  18.211  0.00  0.00    +0.000 A 
ATOM     16  C   UNL     1       2.456   6.394  19.549  0.00  0.00    +0.000 A 
ATOM     17  C   UNL     1       1.846   7.334  20.386  0.00  0.00    +0.000 A 
ATOM     18  C   UNL     1       1.536   8.617  19.915  0.00  0.00    +0.000 A 
BRANCH  16  19
ATOM     19  C   UNL     1       2.891   5.097  20.150  0.00  0.00    +0.000 C 
ATOM     20  N   UNL     1       2.289   4.673  21.303  0.00  0.00    +0.000 N 
ATOM     21  O   UNL     1       3.735   4.391  19.612  0.00  0.00    +0.000 OA
ATOM     22  H   UNL     1       1.536   5.145  21.775  0.00  0.00    +0.000 HD
ATOM     23  H   UNL     1       2.547   3.752  21.633  0.00  0.00    +0.000 HD
ENDBRANCH  16  19
ENDBRANCH   7  13
BRANCH   3  24
ATOM     24  C   UNL     1       4.176  14.901  18.720  0.00  0.00    +0.000 A 
ATOM     25  C   UNL     1       5.156  14.690  17.761  0.00  0.00    +0.000 A 
ATOM     26  N   UNL     1       6.411  15.201  18.033  0.00  0.00    +0.000 NA
ATOM     27  C   UNL     1       6.384  15.799  19.202  0.00  0.00    +0.000 A 
ATOM     28  S   UNL     1       4.874  15.822  20.005  0.00  0.00    +0.000 S 
ENDBRANCH   3  24
BRANCH   1  30
ATOM     29  C   UNL     1      -0.274  16.860  20.286  0.00  0.00    +0.000 C 
ATOM     30  O   UNL     1      -0.633  15.694  19.556  0.00  0.00    +0.000 OA
ENDBRANCH   1  30
TORSDOF 4
ENDMDL
MODEL 9
REMARK VINA RESULT:      -6.7      4.311     10.297
REMARK  Name = 
REMARK  5 active torsions:
REMARK  status: ('A' for Active; 'I' for Inactive)
REMARK    1  A    between atoms: C_1  and  O_2
REMARK    2  A    between atoms: O_2  and  C_3
REMARK    3  A    between atoms: C_5  and  C_6
REMARK    4  A    between atoms: N_14  and  C_15
REMARK    5  A    between atoms: C_18  and  C_19
REMARK                            x       y       z     vdW  Elec       q    Type
REMARK                         _______ _______ _______ _____ _____    ______ ____
ROOT
ATOM      1  C   UNL     1      -4.420  12.424  19.311  0.00  0.00    +0.000 A 
ATOM      2  C   UNL     1      -4.087  13.047  20.522  0.00  0.00    +0.000 A 
ATOM      3  C   UNL     1      -2.794  12.977  21.049  0.00  0.00    +0.000 A 
ATOM      4  C   UNL     1      -1.848  12.245  20.324  0.00  0.00    +0.000 A 
ATOM      5  C   UNL     1      -2.187  11.554  19.127  0.00  0.00    +0.000 A 
ATOM      6  C   UNL     1      -1.307  10.698  18.434  0.00  0.00    +0.000 A 
ATOM      7  N   UNL     1       0.015  10.526  18.911  0.00  0.00    +0.000 N 
ATOM      8  N   UNL     1      -1.671  10.029  17.325  0.00  0.00    +0.000 NA
ATOM      9  C   UNL     1      -2.914  10.229  16.890  0.00  0.00    +0.000 A 
ATOM     10  N   UNL     1      -3.830  11.007  17.473  0.00  0.00    +0.000 NA
ATOM     11  C   UNL     1      -3.483  11.646  18.604  0.00  0.00    +0.000 A 
ATOM     12  H   UNL     1       0.528  11.395  18.881  0.00  0.00    +0.000 HD
ENDROOT
BRANCH   7  13
ATOM     13  C   UNL     1       0.806   9.366  18.885  0.00  0.00    +0.000 A 
ATOM     14  C   UNL     1       1.480   9.016  17.706  0.00  0.00    +0.000 A 
ATOM     15  C   UNL     1       2.420   7.976  17.686  0.00  0.00    +0.000 A 
ATOM     16  C   UNL     1       2.723   7.279  18.859  0.00  0.00    +0.000 A 
ATOM     17  C   UNL     1       2.001   7.572  20.021  0.00  0.00    +0.000 A 
ATOM     18  C   UNL     1       1.046   8.598  20.029  0.00  0.00    +0.000 A 
BRANCH  16  19
ATOM     19  C   UNL     1       3.825   6.275  18.953  0.00  0.00    +0.000 C 
ATOM     20  N   UNL     1       3.801   5.366  19.977  0.00  0.00    +0.000 N 
ATOM     21  O   UNL     1       4.717   6.220  18.115  0.00  0.00    +0.000 OA
ATOM     22  H   UNL     1       3.072   5.284  20.666  0.00  0.00    +0.000 HD
ATOM     23  H   UNL     1       4.514   4.649  19.958  0.00  0.00    +0.000 HD
ENDBRANCH  16  19
ENDBRANCH   7  13
BRANCH   3  24
ATOM     24  C   UNL     1      -2.445  13.583  22.344  0.00  0.00    +0.000 A 
ATOM     25  C   UNL     1      -3.244  13.843  23.447  0.00  0.00    +0.000 A 
ATOM     26  N   UNL     1      -2.636  14.467  24.520  0.00  0.00    +0.000 NA
ATOM     27  C   UNL     1      -1.374  14.684  24.230  0.00  0.00    +0.000 A 
ATOM     28  S   UNL     1      -0.844  14.122  22.704  0.00  0.00    +0.000 S 
ENDBRANCH   3  24
BRANCH   1  30
ATOM     29  C   UNL     1      -6.348  13.729  18.808  0.00  0.00    +0.000 C 
ATOM     30  O   UNL     1      -5.699  12.463  18.793  0.00  0.00    +0.000 OA
ENDBRANCH   1  30
TORSDOF 4
ENDMDL
