MODEL 1
REMARK VINA RESULT:      -7.8      0.000      0.000
REMARK  Name = 
REMARK  4 active torsions:
REMARK  status: ('A' for Active; 'I' for Inactive)
REMARK    1  A    between atoms: C_2  and  C_14
REMARK    2  A    between atoms: N_3  and  C_4
REMARK    3  A    between atoms: C_4  and  N_6
REMARK    4  A    between atoms: N_6  and  C_7
REMARK                            x       y       z     vdW  Elec       q    Type
REMARK                         _______ _______ _______ _____ _____    ______ ____
ROOT
ATOM      1  C   UNL     1       5.109   4.139  18.041  0.00  0.00    +0.000 C 
ATOM      2  S   UNL     1       5.382   5.314  19.192  0.00  0.00    +0.000 S 
ENDROOT
BRANCH   1   5
ATOM      3  O   UNL     1       7.662   5.143  16.911  0.00  0.00    +0.000 OA
ATOM      4  C   UNL     1       6.786   4.620  16.232  0.00  0.00    +0.000 C 
ATOM      5  N   UNL     1       5.598   4.109  16.741  0.00  0.00    +0.000 N 
ATOM      6  H   UNL     1       4.965   3.744  16.041  0.00  0.00    +0.000 HD
BRANCH   4   7
ATOM      7  C   UNL     1       6.873   4.571  14.784  0.00  0.00    +0.000 A 
ATOM      8  C   UNL     1       6.171   3.787  13.885  0.00  0.00    +0.000 A 
ATOM      9  C   UNL     1       6.672   4.074  12.598  0.00  0.00    +0.000 A 
ATOM     10  C   UNL     1       7.649   5.030  12.778  0.00  0.00    +0.000 A 
ATOM     11  O   UNL     1       7.784   5.338  14.096  0.00  0.00    +0.000 OA
ENDBRANCH   4   7
ENDBRANCH   1   5
BRANCH   1  12
ATOM     12  N   UNL     1       4.375   3.027  18.399  0.00  0.00    +0.000 N 
ATOM     13  H   UNL     1       4.638   2.149  17.955  0.00  0.00    +0.000 HD
BRANCH  12  14
ATOM     14  C   UNL     1       3.319   2.984  19.337  0.00  0.00    +0.000 A 
ATOM     15  C   UNL     1       3.525   2.419  20.604  0.00  0.00    +0.000 A 
ATOM     16  C   UNL     1       2.540   2.500  21.590  0.00  0.00    +0.000 A 
ATOM     17  C   UNL     1       1.334   3.121  21.301  0.00  0.00    +0.000 A 
ATOM     18  C   UNL     1       1.083   3.609  20.016  0.00  0.00    +0.000 A 
ATOM     19  C   UNL     1       2.062   3.514  19.024  0.00  0.00    +0.000 A 
ATOM     20 CL   UNL     1       1.718   4.147  17.456  0.00  0.00    +0.000 Cl
ENDBRANCH  12  14
ENDBRANCH   1  12
TORSDOF 4
ENDMDL
MODEL 2
REMARK VINA RESULT:      -7.7      1.624      1.756
REMARK  Name = 
REMARK  4 active torsions:
REMARK  status: ('A' for Active; 'I' for Inactive)
REMARK    1  A    between atoms: C_2  and  C_14
REMARK    2  A    between atoms: N_3  and  C_4
REMARK    3  A    between atoms: C_4  and  N_6
REMARK    4  A    between atoms: N_6  and  C_7
REMARK                            x       y       z     vdW  Elec       q    Type
REMARK                         _______ _______ _______ _____ _____    ______ ____
ROOT
ATOM      1  C   UNL     1       5.047   5.076  17.606  0.00  0.00    +0.000 C 
ATOM      2  S   UNL     1       5.905   5.113  19.036  0.00  0.00    +0.000 S 
ENDROOT
BRANCH   1   5
ATOM      3  O   UNL     1       7.427   6.052  16.129  0.00  0.00    +0.000 OA
ATOM      4  C   UNL     1       6.633   5.243  15.664  0.00  0.00    +0.000 C 
ATOM      5  N   UNL     1       5.531   4.743  16.347  0.00  0.00    +0.000 N 
ATOM      6  H   UNL     1       4.955   4.110  15.807  0.00  0.00    +0.000 HD
BRANCH   4   7
ATOM      7  C   UNL     1       6.722   4.796  14.286  0.00  0.00    +0.000 A 
ATOM      8  C   UNL     1       6.025   3.788  13.640  0.00  0.00    +0.000 A 
ATOM      9  C   UNL     1       6.526   3.710  12.324  0.00  0.00    +0.000 A 
ATOM     10  C   UNL     1       7.497   4.684  12.231  0.00  0.00    +0.000 A 
ATOM     11  O   UNL     1       7.630   5.347  13.412  0.00  0.00    +0.000 OA
ENDBRANCH   4   7
ENDBRANCH   1   5
BRANCH   1  12
ATOM     12  N   UNL     1       3.693   5.337  17.646  0.00  0.00    +0.000 N 
ATOM     13  H   UNL     1       3.382   6.182  17.169  0.00  0.00    +0.000 HD
BRANCH  12  14
ATOM     14  C   UNL     1       2.701   4.538  18.256  0.00  0.00    +0.000 A 
ATOM     15  C   UNL     1       2.424   3.256  17.757  0.00  0.00    +0.000 A 
ATOM     16  C   UNL     1       1.553   2.400  18.433  0.00  0.00    +0.000 A 
ATOM     17  C   UNL     1       0.934   2.835  19.595  0.00  0.00    +0.000 A 
ATOM     18  C   UNL     1       1.133   4.139  20.054  0.00  0.00    +0.000 A 
ATOM     19  C   UNL     1       1.992   5.003  19.369  0.00  0.00    +0.000 A 
ATOM     20 CL   UNL     1       2.224   6.600  19.981  0.00  0.00    +0.000 Cl
ENDBRANCH  12  14
ENDBRANCH   1  12
TORSDOF 4
ENDMDL
MODEL 3
REMARK VINA RESULT:      -7.6      2.061      2.459
REMARK  Name = 
REMARK  4 active torsions:
REMARK  status: ('A' for Active; 'I' for Inactive)
REMARK    1  A    between atoms: C_2  and  C_14
REMARK    2  A    between atoms: N_3  and  C_4
REMARK    3  A    between atoms: C_4  and  N_6
REMARK    4  A    between atoms: N_6  and  C_7
REMARK                            x       y       z     vdW  Elec       q    Type
REMARK                         _______ _______ _______ _____ _____    ______ ____
ROOT
ATOM      1  C   UNL     1       6.620   4.539  17.951  0.00  0.00    +0.000 C 
ATOM      2  S   UNL     1       7.538   5.492  18.965  0.00  0.00    +0.000 S 
ENDROOT
BRANCH   1   5
ATOM      3  O   UNL     1       5.973   6.354  15.695  0.00  0.00    +0.000 OA
ATOM      4  C   UNL     1       6.437   5.230  15.542  0.00  0.00    +0.000 C 
ATOM      5  N   UNL     1       6.782   4.375  16.580  0.00  0.00    +0.000 N 
ATOM      6  H   UNL     1       7.117   3.468  16.282  0.00  0.00    +0.000 HD
BRANCH   4   7
ATOM      7  C   UNL     1       6.583   4.642  14.223  0.00  0.00    +0.000 A 
ATOM      8  C   UNL     1       7.489   4.941  13.220  0.00  0.00    +0.000 A 
ATOM      9  C   UNL     1       7.171   4.128  12.112  0.00  0.00    +0.000 A 
ATOM     10  C   UNL     1       6.091   3.364  12.501  0.00  0.00    +0.000 A 
ATOM     11  O   UNL     1       5.722   3.667  13.775  0.00  0.00    +0.000 OA
ENDBRANCH   4   7
ENDBRANCH   1   5
BRANCH   1  12
ATOM     12  N   UNL     1       5.620   3.765  18.504  0.00  0.00    +0.000 N 
ATOM     13  H   UNL     1       5.923   2.993  19.096  0.00  0.00    +0.000 HD
BRANCH  12  14
ATOM     14  C   UNL     1       4.229   3.955  18.352  0.00  0.00    +0.000 A 
ATOM     15  C   UNL     1       3.700   5.252  18.271  0.00  0.00    +0.000 A 
ATOM     16  C   UNL     1       2.351   5.455  17.976  0.00  0.00    +0.000 A 
ATOM     17  C   UNL     1       1.521   4.360  17.789  0.00  0.00    +0.000 A 
ATOM     18  C   UNL     1       2.016   3.064  17.954  0.00  0.00    +0.000 A 
ATOM     19  C   UNL     1       3.362   2.860  18.266  0.00  0.00    +0.000 A 
ATOM     20 CL   UNL     1       3.936   1.242  18.441  0.00  0.00    +0.000 Cl
ENDBRANCH  12  14
ENDBRANCH   1  12
TORSDOF 4
ENDMDL
MODEL 4
REMARK VINA RESULT:      -7.5      2.019      2.101
REMARK  Name = 
REMARK  4 active torsions:
REMARK  status: ('A' for Active; 'I' for Inactive)
REMARK    1  A    between atoms: C_2  and  C_14
REMARK    2  A    between atoms: N_3  and  C_4
REMARK    3  A    between atoms: C_4  and  N_6
REMARK    4  A    between atoms: N_6  and  C_7
REMARK                            x       y       z     vdW  Elec       q    Type
REMARK                         _______ _______ _______ _____ _____    ______ ____
ROOT
ATOM      1  C   UNL     1       6.642   4.660  18.175  0.00  0.00    +0.000 C 
ATOM      2  S   UNL     1       7.595   5.623  19.147  0.00  0.00    +0.000 S 
ENDROOT
BRANCH   1   5
ATOM      3  O   UNL     1       6.344   6.595  15.947  0.00  0.00    +0.000 OA
ATOM      4  C   UNL     1       6.575   5.405  15.776  0.00  0.00    +0.000 C 
ATOM      5  N   UNL     1       6.754   4.484  16.801  0.00  0.00    +0.000 N 
ATOM      6  H   UNL     1       6.901   3.533  16.490  0.00  0.00    +0.000 HD
BRANCH   4   7
ATOM      7  C   UNL     1       6.588   4.816  14.450  0.00  0.00    +0.000 A 
ATOM      8  C   UNL     1       5.824   3.781  13.937  0.00  0.00    +0.000 A 
ATOM      9  C   UNL     1       6.266   3.547  12.619  0.00  0.00    +0.000 A 
ATOM     10  C   UNL     1       7.272   4.461  12.389  0.00  0.00    +0.000 A 
ATOM     11  O   UNL     1       7.480   5.233  13.490  0.00  0.00    +0.000 OA
ENDBRANCH   4   7
ENDBRANCH   1   5
BRANCH   1  12
ATOM     12  N   UNL     1       5.665   3.889  18.770  0.00  0.00    +0.000 N 
ATOM     13  H   UNL     1       5.936   3.390  19.616  0.00  0.00    +0.000 HD
BRANCH  12  14
ATOM     14  C   UNL     1       4.327   3.748  18.339  0.00  0.00    +0.000 A 
ATOM     15  C   UNL     1       3.824   2.481  18.007  0.00  0.00    +0.000 A 
ATOM     16  C   UNL     1       2.469   2.305  17.720  0.00  0.00    +0.000 A 
ATOM     17  C   UNL     1       1.620   3.401  17.734  0.00  0.00    +0.000 A 
ATOM     18  C   UNL     1       2.125   4.681  17.976  0.00  0.00    +0.000 A 
ATOM     19  C   UNL     1       3.484   4.861  18.248  0.00  0.00    +0.000 A 
ATOM     20 CL   UNL     1       4.062   6.456  18.560  0.00  0.00    +0.000 Cl
ENDBRANCH  12  14
ENDBRANCH   1  12
TORSDOF 4
ENDMDL
MODEL 5
REMARK VINA RESULT:      -7.5      1.758      2.293
REMARK  Name = 
REMARK  4 active torsions:
REMARK  status: ('A' for Active; 'I' for Inactive)
REMARK    1  A    between atoms: C_2  and  C_14
REMARK    2  A    between atoms: N_3  and  C_4
REMARK    3  A    between atoms: C_4  and  N_6
REMARK    4  A    between atoms: N_6  and  C_7
REMARK                            x       y       z     vdW  Elec       q    Type
REMARK                         _______ _______ _______ _____ _____    ______ ____
ROOT
ATOM      1  C   UNL     1       6.819   4.741  18.084  0.00  0.00    +0.000 C 
ATOM      2  S   UNL     1       7.709   5.778  19.039  0.00  0.00    +0.000 S 
ENDROOT
BRANCH   1   5
ATOM      3  O   UNL     1       6.227   6.619  15.865  0.00  0.00    +0.000 OA
ATOM      4  C   UNL     1       6.598   5.465  15.688  0.00  0.00    +0.000 C 
ATOM      5  N   UNL     1       6.916   4.577  16.707  0.00  0.00    +0.000 N 
ATOM      6  H   UNL     1       7.170   3.650  16.392  0.00  0.00    +0.000 HD
BRANCH   4   7
ATOM      7  C   UNL     1       6.649   4.878  14.361  0.00  0.00    +0.000 A 
ATOM      8  C   UNL     1       5.940   3.808  13.843  0.00  0.00    +0.000 A 
ATOM      9  C   UNL     1       6.402   3.597  12.527  0.00  0.00    +0.000 A 
ATOM     10  C   UNL     1       7.363   4.559  12.305  0.00  0.00    +0.000 A 
ATOM     11  O   UNL     1       7.526   5.340  13.408  0.00  0.00    +0.000 OA
ENDBRANCH   4   7
ENDBRANCH   1   5
BRANCH   1  12
ATOM     12  N   UNL     1       5.921   3.892  18.698  0.00  0.00    +0.000 N 
ATOM     13  H   UNL     1       6.318   3.087  19.180  0.00  0.00    +0.000 HD
BRANCH  12  14
ATOM     14  C   UNL     1       4.518   4.044  18.745  0.00  0.00    +0.000 A 
ATOM     15  C   UNL     1       3.895   5.064  18.009  0.00  0.00    +0.000 A 
ATOM     16  C   UNL     1       2.503   5.138  17.929  0.00  0.00    +0.000 A 
ATOM     17  C   UNL     1       1.730   4.209  18.610  0.00  0.00    +0.000 A 
ATOM     18  C   UNL     1       2.336   3.243  19.417  0.00  0.00    +0.000 A 
ATOM     19  C   UNL     1       3.729   3.178  19.511  0.00  0.00    +0.000 A 
ATOM     20 CL   UNL     1       4.437   1.957  20.503  0.00  0.00    +0.000 Cl
ENDBRANCH  12  14
ENDBRANCH   1  12
TORSDOF 4
ENDMDL
MODEL 6
REMARK VINA RESULT:      -7.3      1.676      2.264
REMARK  Name = 
REMARK  4 active torsions:
REMARK  status: ('A' for Active; 'I' for Inactive)
REMARK    1  A    between atoms: C_2  and  C_14
REMARK    2  A    between atoms: N_3  and  C_4
REMARK    3  A    between atoms: C_4  and  N_6
REMARK    4  A    between atoms: N_6  and  C_7
REMARK                            x       y       z     vdW  Elec       q    Type
REMARK                         _______ _______ _______ _____ _____    ______ ____
ROOT
ATOM      1  C   UNL     1       6.351   4.458  17.986  0.00  0.00    +0.000 C 
ATOM      2  S   UNL     1       7.067   5.627  18.935  0.00  0.00    +0.000 S 
ENDROOT
BRANCH   1   5
ATOM      3  O   UNL     1       7.489   6.231  15.897  0.00  0.00    +0.000 OA
ATOM      4  C   UNL     1       7.049   5.113  15.662  0.00  0.00    +0.000 C 
ATOM      5  N   UNL     1       6.544   4.249  16.625  0.00  0.00    +0.000 N 
ATOM      6  H   UNL     1       6.186   3.375  16.260  0.00  0.00    +0.000 HD
BRANCH   4   7
ATOM      7  C   UNL     1       6.926   4.614  14.304  0.00  0.00    +0.000 A 
ATOM      8  C   UNL     1       7.599   5.004  13.158  0.00  0.00    +0.000 A 
ATOM      9  C   UNL     1       7.069   4.255  12.087  0.00  0.00    +0.000 A 
ATOM     10  C   UNL     1       6.106   3.437  12.637  0.00  0.00    +0.000 A 
ATOM     11  O   UNL     1       6.005   3.646  13.978  0.00  0.00    +0.000 OA
ENDBRANCH   4   7
ENDBRANCH   1   5
BRANCH   1  12
ATOM     12  N   UNL     1       5.518   3.540  18.592  0.00  0.00    +0.000 N 
ATOM     13  H   UNL     1       5.972   2.752  19.049  0.00  0.00    +0.000 HD
BRANCH  12  14
ATOM     14  C   UNL     1       4.109   3.603  18.661  0.00  0.00    +0.000 A 
ATOM     15  C   UNL     1       3.392   4.382  17.742  0.00  0.00    +0.000 A 
ATOM     16  C   UNL     1       1.997   4.340  17.706  0.00  0.00    +0.000 A 
ATOM     17  C   UNL     1       1.314   3.540  18.610  0.00  0.00    +0.000 A 
ATOM     18  C   UNL     1       2.013   2.828  19.588  0.00  0.00    +0.000 A 
ATOM     19  C   UNL     1       3.408   2.882  19.636  0.00  0.00    +0.000 A 
ATOM     20 CL   UNL     1       4.232   1.971  20.848  0.00  0.00    +0.000 Cl
ENDBRANCH  12  14
ENDBRANCH   1  12
TORSDOF 4
ENDMDL
MODEL 7
REMARK VINA RESULT:      -7.2      1.480      1.849
REMARK  Name = 
REMARK  4 active torsions:
REMARK  status: ('A' for Active; 'I' for Inactive)
REMARK    1  A    between atoms: C_2  and  C_14
REMARK    2  A    between atoms: N_3  and  C_4
REMARK    3  A    between atoms: C_4  and  N_6
REMARK    4  A    between atoms: N_6  and  C_7
REMARK                            x       y       z     vdW  Elec       q    Type
REMARK                         _______ _______ _______ _____ _____    ______ ____
ROOT
ATOM      1  C   UNL     1       5.186   5.114  17.560  0.00  0.00    +0.000 C 
ATOM      2  S   UNL     1       6.087   5.230  18.959  0.00  0.00    +0.000 S 
ENDROOT
BRANCH   1   5
ATOM      3  O   UNL     1       7.487   6.037  15.932  0.00  0.00    +0.000 OA
ATOM      4  C   UNL     1       6.695   5.184  15.552  0.00  0.00    +0.000 C 
ATOM      5  N   UNL     1       5.631   4.708  16.308  0.00  0.00    +0.000 N 
ATOM      6  H   UNL     1       5.049   4.030  15.833  0.00  0.00    +0.000 HD
BRANCH   4   7
ATOM      7  C   UNL     1       6.743   4.648  14.204  0.00  0.00    +0.000 A 
ATOM      8  C   UNL     1       7.530   5.032  13.131  0.00  0.00    +0.000 A 
ATOM      9  C   UNL     1       7.150   4.239  12.028  0.00  0.00    +0.000 A 
ATOM     10  C   UNL     1       6.157   3.402  12.489  0.00  0.00    +0.000 A 
ATOM     11  O   UNL     1       5.897   3.641  13.803  0.00  0.00    +0.000 OA
ENDBRANCH   4   7
ENDBRANCH   1   5
BRANCH   1  12
ATOM     12  N   UNL     1       3.834   5.381  17.626  0.00  0.00    +0.000 N 
ATOM     13  H   UNL     1       3.445   5.933  16.864  0.00  0.00    +0.000 HD
BRANCH  12  14
ATOM     14  C   UNL     1       2.939   4.942  18.628  0.00  0.00    +0.000 A 
ATOM     15  C   UNL     1       2.637   5.773  19.716  0.00  0.00    +0.000 A 
ATOM     16  C   UNL     1       1.648   5.416  20.633  0.00  0.00    +0.000 A 
ATOM     17  C   UNL     1       0.979   4.210  20.482  0.00  0.00    +0.000 A 
ATOM     18  C   UNL     1       1.333   3.333  19.453  0.00  0.00    +0.000 A 
ATOM     19  C   UNL     1       2.334   3.682  18.544  0.00  0.00    +0.000 A 
ATOM     20 CL   UNL     1       2.726   2.578  17.277  0.00  0.00    +0.000 Cl
ENDBRANCH  12  14
ENDBRANCH   1  12
TORSDOF 4
ENDMDL
MODEL 8
REMARK VINA RESULT:      -7.2      1.048      1.209
REMARK  Name = 
REMARK  4 active torsions:
REMARK  status: ('A' for Active; 'I' for Inactive)
REMARK    1  A    between atoms: C_2  and  C_14
REMARK    2  A    between atoms: N_3  and  C_4
REMARK    3  A    between atoms: C_4  and  N_6
REMARK    4  A    between atoms: N_6  and  C_7
REMARK                            x       y       z     vdW  Elec       q    Type
REMARK                         _______ _______ _______ _____ _____    ______ ____
ROOT
ATOM      1  C   UNL     1       5.158   4.024  17.783  0.00  0.00    +0.000 C 
ATOM      2  S   UNL     1       5.619   5.056  19.009  0.00  0.00    +0.000 S 
ENDROOT
BRANCH   1   5
ATOM      3  O   UNL     1       5.653   6.173  15.799  0.00  0.00    +0.000 OA
ATOM      4  C   UNL     1       5.867   4.988  15.574  0.00  0.00    +0.000 C 
ATOM      5  N   UNL     1       5.678   3.967  16.496  0.00  0.00    +0.000 N 
ATOM      6  H   UNL     1       5.867   3.039  16.139  0.00  0.00    +0.000 HD
BRANCH   4   7
ATOM      7  C   UNL     1       6.259   4.524  14.256  0.00  0.00    +0.000 A 
ATOM      8  C   UNL     1       7.340   4.897  13.475  0.00  0.00    +0.000 A 
ATOM      9  C   UNL     1       7.235   4.200  12.254  0.00  0.00    +0.000 A 
ATOM     10  C   UNL     1       6.099   3.426  12.356  0.00  0.00    +0.000 A 
ATOM     11  O   UNL     1       5.496   3.614  13.561  0.00  0.00    +0.000 OA
ENDBRANCH   4   7
ENDBRANCH   1   5
BRANCH   1  12
ATOM     12  N   UNL     1       4.202   3.067  18.055  0.00  0.00    +0.000 N 
ATOM     13  H   UNL     1       4.188   2.255  17.440  0.00  0.00    +0.000 HD
BRANCH  12  14
ATOM     14  C   UNL     1       3.267   3.091  19.114  0.00  0.00    +0.000 A 
ATOM     15  C   UNL     1       3.575   2.484  20.340  0.00  0.00    +0.000 A 
ATOM     16  C   UNL     1       2.726   2.624  21.439  0.00  0.00    +0.000 A 
ATOM     17  C   UNL     1       1.550   3.347  21.305  0.00  0.00    +0.000 A 
ATOM     18  C   UNL     1       1.188   3.881  20.065  0.00  0.00    +0.000 A 
ATOM     19  C   UNL     1       2.030   3.728  18.960  0.00  0.00    +0.000 A 
ATOM     20 CL   UNL     1       1.554   4.420  17.453  0.00  0.00    +0.000 Cl
ENDBRANCH  12  14
ENDBRANCH   1  12
TORSDOF 4
ENDMDL
MODEL 9
REMARK VINA RESULT:      -7.2      1.323      1.734
REMARK  Name = 
REMARK  4 active torsions:
REMARK  status: ('A' for Active; 'I' for Inactive)
REMARK    1  A    between atoms: C_2  and  C_14
REMARK    2  A    between atoms: N_3  and  C_4
REMARK    3  A    between atoms: C_4  and  N_6
REMARK    4  A    between atoms: N_6  and  C_7
REMARK                            x       y       z     vdW  Elec       q    Type
REMARK                         _______ _______ _______ _____ _____    ______ ____
ROOT
ATOM      1  C   UNL     1       4.253   4.695  17.310  0.00  0.00    +0.000 C 
ATOM      2  S   UNL     1       4.255   6.043  18.292  0.00  0.00    +0.000 S 
ENDROOT
BRANCH   1   5
ATOM      3  O   UNL     1       7.151   4.402  16.749  0.00  0.00    +0.000 OA
ATOM      4  C   UNL     1       6.297   4.432  15.871  0.00  0.00    +0.000 C 
ATOM      5  N   UNL     1       4.932   4.533  16.108  0.00  0.00    +0.000 N 
ATOM      6  H   UNL     1       4.363   4.582  15.272  0.00  0.00    +0.000 HD
BRANCH   4   7
ATOM      7  C   UNL     1       6.652   4.462  14.465  0.00  0.00    +0.000 A 
ATOM      8  C   UNL     1       6.170   3.695  13.417  0.00  0.00    +0.000 A 
ATOM      9  C   UNL     1       6.884   4.070  12.260  0.00  0.00    +0.000 A 
ATOM     10  C   UNL     1       7.760   5.056  12.659  0.00  0.00    +0.000 A 
ATOM     11  O   UNL     1       7.633   5.302  13.992  0.00  0.00    +0.000 OA
ENDBRANCH   4   7
ENDBRANCH   1   5
BRANCH   1  12
ATOM     12  N   UNL     1       3.565   3.576  17.732  0.00  0.00    +0.000 N 
ATOM     13  H   UNL     1       3.636   2.752  17.138  0.00  0.00    +0.000 HD
BRANCH  12  14
ATOM     14  C   UNL     1       2.802   3.456  18.915  0.00  0.00    +0.000 A 
ATOM     15  C   UNL     1       1.508   3.992  18.976  0.00  0.00    +0.000 A 
ATOM     16  C   UNL     1       0.689   3.756  20.081  0.00  0.00    +0.000 A 
ATOM     17  C   UNL     1       1.174   3.007  21.143  0.00  0.00    +0.000 A 
ATOM     18  C   UNL     1       2.492   2.543  21.134  0.00  0.00    +0.000 A 
ATOM     19  C   UNL     1       3.318   2.792  20.035  0.00  0.00    +0.000 A 
ATOM     20 CL   UNL     1       4.933   2.184  20.056  0.00  0.00    +0.000 Cl
ENDBRANCH  12  14
ENDBRANCH   1  12
TORSDOF 4
ENDMDL
