MODEL 1
REMARK VINA RESULT:      -7.5      0.000      0.000
REMARK  Name = 
REMARK  12 active torsions:
REMARK  status: ('A' for Active; 'I' for Inactive)
REMARK    1  A    between atoms: C_1  and  C_2
REMARK    2  A    between atoms: C_6  and  C_7
REMARK    3  A    between atoms: C_8  and  O_9
REMARK    4  A    between atoms: O_9  and  C_10
REMARK    5  A    between atoms: C_10  and  C_11
REMARK    6  A    between atoms: C_11  and  O_12
REMARK    7  A    between atoms: O_12  and  C_13
REMARK    8  A    between atoms: C_13  and  C_15
REMARK    9  A    between atoms: C_15  and  C_16
REMARK   10  A    between atoms: C_16  and  C_17
REMARK   11  A    between atoms: C_17  and  O_19
REMARK   12  A    between atoms: C_23  and  C_24
REMARK                            x       y       z     vdW  Elec       q    Type
REMARK                         _______ _______ _______ _____ _____    ______ ____
ROOT
ATOM      1  C   UNL     1       1.040   6.878  20.775  0.00  0.00    +0.000 C 
ATOM      2  C   UNL     1       2.311   6.597  19.964  0.00  0.00    +0.000 C 
ATOM      3  C   UNL     1       2.368   7.578  18.790  0.00  0.00    +0.000 C 
ATOM      4  C   UNL     1       3.608   7.358  17.938  0.00  0.00    +0.000 C 
ATOM      5  C   UNL     1       3.654   5.930  17.373  0.00  0.00    +0.000 C 
ATOM      6  C   UNL     1       4.902   5.634  16.493  0.00  0.00    +0.000 C 
ATOM      7  C   UNL     1       5.087   6.634  15.355  0.00  0.00    +0.000 C 
ATOM      8  C   UNL     1       6.181   5.465  17.336  0.00  0.00    +0.000 C 
ATOM      9  O   UNL     1       5.997   4.424  18.282  0.00  0.00    +0.000 OA
ATOM     10  C   UNL     1       4.923   4.667  19.193  0.00  0.00    +0.000 C 
ATOM     11  O   UNL     1       4.917   3.587  20.132  0.00  0.00    +0.000 OA
ATOM     12  C   UNL     1       4.067   2.538  19.665  0.00  0.00    +0.000 C 
ATOM     13  C   UNL     1       4.708   1.216  20.075  0.00  0.00    +0.000 C 
ATOM     14  C   UNL     1       2.675   2.689  20.307  0.00  0.00    +0.000 C 
ATOM     15  C   UNL     1       2.326   4.142  20.652  0.00  0.00    +0.000 C 
ATOM     16  C   UNL     1       2.368   5.131  19.463  0.00  0.00    +0.000 C 
ATOM     17  C   UNL     1       3.548   4.853  18.482  0.00  0.00    +0.000 C 
ATOM     18  O   UNL     1       3.144   3.633  17.797  0.00  0.00    +0.000 OA
ATOM     19  O   UNL     1       3.990   2.523  18.235  0.00  0.00    +0.000 OA
ENDROOT
BRANCH   8  20
ATOM     20  O   UNL     1       6.569   6.678  17.981  0.00  0.00    +0.000 OA
BRANCH  20  21
ATOM     21  C   UNL     1       7.774   7.211  17.424  0.00  0.00    +0.000 C 
BRANCH  21  22
ATOM     22  C   UNL     1       7.892   8.690  17.774  0.00  0.00    +0.000 C 
BRANCH  22  23
ATOM     23  O   UNL     1       8.820   8.884  18.853  0.00  0.00    +0.000 OA
BRANCH  23  24
ATOM     24  C   UNL     1       9.083  10.182  19.147  0.00  0.00    +0.000 C 
ATOM     25  O   UNL     1       9.403  10.616  20.257  0.00  0.00    +0.000 OA
BRANCH  24  26
ATOM     26  C   UNL     1       8.923  11.053  17.932  0.00  0.00    +0.000 C 
BRANCH  26  27
ATOM     27  C   UNL     1       9.281  12.500  18.244  0.00  0.00    +0.000 C 
BRANCH  27  28
ATOM     28  C   UNL     1      10.771  12.718  18.263  0.00  0.00    +0.000 C 
ATOM     29  O   UNL     1      11.501  12.564  17.290  0.00  0.00    +0.000 OA
BRANCH  28  30
ATOM     30  O   UNL     1      11.251  13.075  19.473  0.00  0.00    +0.000 OA
ATOM     31  H   UNL     1      10.563  13.420  20.093  0.00  0.00    +0.000 HD
ENDBRANCH  28  30
ENDBRANCH  27  28
ENDBRANCH  26  27
ENDBRANCH  24  26
ENDBRANCH  23  24
ENDBRANCH  22  23
ENDBRANCH  21  22
ENDBRANCH  20  21
ENDBRANCH   8  20
TORSDOF 9
ENDMDL
MODEL 2
REMARK VINA RESULT:      -7.4      0.819      1.047
REMARK  Name = 
REMARK  12 active torsions:
REMARK  status: ('A' for Active; 'I' for Inactive)
REMARK    1  A    between atoms: C_1  and  C_2
REMARK    2  A    between atoms: C_6  and  C_7
REMARK    3  A    between atoms: C_8  and  O_9
REMARK    4  A    between atoms: O_9  and  C_10
REMARK    5  A    between atoms: C_10  and  C_11
REMARK    6  A    between atoms: C_11  and  O_12
REMARK    7  A    between atoms: O_12  and  C_13
REMARK    8  A    between atoms: C_13  and  C_15
REMARK    9  A    between atoms: C_15  and  C_16
REMARK   10  A    between atoms: C_16  and  C_17
REMARK   11  A    between atoms: C_17  and  O_19
REMARK   12  A    between atoms: C_23  and  C_24
REMARK                            x       y       z     vdW  Elec       q    Type
REMARK                         _______ _______ _______ _____ _____    ______ ____
ROOT
ATOM      1  C   UNL     1       0.980   7.233  20.774  0.00  0.00    +0.000 C 
ATOM      2  C   UNL     1       2.252   6.928  19.973  0.00  0.00    +0.000 C 
ATOM      3  C   UNL     1       2.266   7.813  18.724  0.00  0.00    +0.000 C 
ATOM      4  C   UNL     1       3.505   7.565  17.878  0.00  0.00    +0.000 C 
ATOM      5  C   UNL     1       3.592   6.099  17.427  0.00  0.00    +0.000 C 
ATOM      6  C   UNL     1       4.840   5.772  16.559  0.00  0.00    +0.000 C 
ATOM      7  C   UNL     1       4.982   6.683  15.343  0.00  0.00    +0.000 C 
ATOM      8  C   UNL     1       6.132   5.711  17.397  0.00  0.00    +0.000 C 
ATOM      9  O   UNL     1       5.990   4.743  18.425  0.00  0.00    +0.000 OA
ATOM     10  C   UNL     1       4.917   5.025  19.327  0.00  0.00    +0.000 C 
ATOM     11  O   UNL     1       4.955   4.024  20.348  0.00  0.00    +0.000 OA
ATOM     12  C   UNL     1       4.135   2.915  19.977  0.00  0.00    +0.000 C 
ATOM     13  C   UNL     1       4.821   1.650  20.483  0.00  0.00    +0.000 C 
ATOM     14  C   UNL     1       2.744   3.073  20.621  0.00  0.00    +0.000 C 
ATOM     15  C   UNL     1       2.352   4.538  20.853  0.00  0.00    +0.000 C 
ATOM     16  C   UNL     1       2.351   5.429  19.589  0.00  0.00    +0.000 C 
ATOM     17  C   UNL     1       3.530   5.111  18.620  0.00  0.00    +0.000 C 
ATOM     18  O   UNL     1       3.159   3.828  18.039  0.00  0.00    +0.000 OA
ATOM     19  O   UNL     1       4.044   2.783  18.553  0.00  0.00    +0.000 OA
ENDROOT
BRANCH   8  20
ATOM     20  O   UNL     1       6.487   6.983  17.939  0.00  0.00    +0.000 OA
BRANCH  20  21
ATOM     21  C   UNL     1       7.900   7.201  17.895  0.00  0.00    +0.000 C 
BRANCH  21  22
ATOM     22  C   UNL     1       8.186   8.636  17.468  0.00  0.00    +0.000 C 
BRANCH  22  23
ATOM     23  O   UNL     1       8.514   9.449  18.606  0.00  0.00    +0.000 OA
BRANCH  23  24
ATOM     24  C   UNL     1       8.952  10.697  18.302  0.00  0.00    +0.000 C 
ATOM     25  O   UNL     1       8.341  11.524  17.620  0.00  0.00    +0.000 OA
BRANCH  24  26
ATOM     26  C   UNL     1      10.306  10.955  18.900  0.00  0.00    +0.000 C 
BRANCH  26  27
ATOM     27  C   UNL     1      11.228  11.636  17.896  0.00  0.00    +0.000 C 
BRANCH  27  28
ATOM     28  C   UNL     1      11.114  13.137  17.960  0.00  0.00    +0.000 C 
ATOM     29  O   UNL     1      11.574  13.823  18.865  0.00  0.00    +0.000 OA
BRANCH  28  30
ATOM     30  O   UNL     1      10.424  13.671  16.931  0.00  0.00    +0.000 OA
ATOM     31  H   UNL     1       9.494  13.345  16.856  0.00  0.00    +0.000 HD
ENDBRANCH  28  30
ENDBRANCH  27  28
ENDBRANCH  26  27
ENDBRANCH  24  26
ENDBRANCH  23  24
ENDBRANCH  22  23
ENDBRANCH  21  22
ENDBRANCH  20  21
ENDBRANCH   8  20
TORSDOF 9
ENDMDL
MODEL 3
REMARK VINA RESULT:      -7.3      0.986      1.173
REMARK  Name = 
REMARK  12 active torsions:
REMARK  status: ('A' for Active; 'I' for Inactive)
REMARK    1  A    between atoms: C_1  and  C_2
REMARK    2  A    between atoms: C_6  and  C_7
REMARK    3  A    between atoms: C_8  and  O_9
REMARK    4  A    between atoms: O_9  and  C_10
REMARK    5  A    between atoms: C_10  and  C_11
REMARK    6  A    between atoms: C_11  and  O_12
REMARK    7  A    between atoms: O_12  and  C_13
REMARK    8  A    between atoms: C_13  and  C_15
REMARK    9  A    between atoms: C_15  and  C_16
REMARK   10  A    between atoms: C_16  and  C_17
REMARK   11  A    between atoms: C_17  and  O_19
REMARK   12  A    between atoms: C_23  and  C_24
REMARK                            x       y       z     vdW  Elec       q    Type
REMARK                         _______ _______ _______ _____ _____    ______ ____
ROOT
ATOM      1  C   UNL     1       0.967   6.922  20.774  0.00  0.00    +0.000 C 
ATOM      2  C   UNL     1       2.247   6.664  19.969  0.00  0.00    +0.000 C 
ATOM      3  C   UNL     1       2.275   7.622  18.775  0.00  0.00    +0.000 C 
ATOM      4  C   UNL     1       3.522   7.423  17.929  0.00  0.00    +0.000 C 
ATOM      5  C   UNL     1       3.614   5.986  17.393  0.00  0.00    +0.000 C 
ATOM      6  C   UNL     1       4.871   5.710  16.521  0.00  0.00    +0.000 C 
ATOM      7  C   UNL     1       5.026   6.692  15.362  0.00  0.00    +0.000 C 
ATOM      8  C   UNL     1       6.154   5.599  17.368  0.00  0.00    +0.000 C 
ATOM      9  O   UNL     1       6.001   4.572  18.335  0.00  0.00    +0.000 OA
ATOM     10  C   UNL     1       4.918   4.801  19.240  0.00  0.00    +0.000 C 
ATOM     11  O   UNL     1       4.945   3.740  20.201  0.00  0.00    +0.000 OA
ATOM     12  C   UNL     1       4.129   2.656  19.756  0.00  0.00    +0.000 C 
ATOM     13  C   UNL     1       4.810   1.363  20.193  0.00  0.00    +0.000 C 
ATOM     14  C   UNL     1       2.732   2.777  20.394  0.00  0.00    +0.000 C 
ATOM     15  C   UNL     1       2.337   4.226  20.708  0.00  0.00    +0.000 C 
ATOM     16  C   UNL     1       2.350   5.190  19.498  0.00  0.00    +0.000 C 
ATOM     17  C   UNL     1       3.539   4.929  18.525  0.00  0.00    +0.000 C 
ATOM     18  O   UNL     1       3.174   3.683  17.865  0.00  0.00    +0.000 OA
ATOM     19  O   UNL     1       4.054   2.609  18.326  0.00  0.00    +0.000 OA
ENDROOT
BRANCH   8  20
ATOM     20  O   UNL     1       6.503   6.836  17.987  0.00  0.00    +0.000 OA
BRANCH  20  21
ATOM     21  C   UNL     1       7.894   7.132  17.830  0.00  0.00    +0.000 C 
BRANCH  21  22
ATOM     22  C   UNL     1       8.101   8.642  17.833  0.00  0.00    +0.000 C 
BRANCH  22  23
ATOM     23  O   UNL     1       8.868   9.047  18.978  0.00  0.00    +0.000 OA
BRANCH  23  24
ATOM     24  C   UNL     1       9.269  10.344  18.961  0.00  0.00    +0.000 C 
ATOM     25  O   UNL     1       9.497  11.010  17.947  0.00  0.00    +0.000 OA
BRANCH  24  26
ATOM     26  C   UNL     1       9.415  10.882  20.356  0.00  0.00    +0.000 C 
BRANCH  26  27
ATOM     27  C   UNL     1      10.568  11.875  20.442  0.00  0.00    +0.000 C 
BRANCH  27  28
ATOM     28  C   UNL     1      10.079  13.300  20.450  0.00  0.00    +0.000 C 
ATOM     29  O   UNL     1       9.699  13.902  19.452  0.00  0.00    +0.000 OA
BRANCH  28  30
ATOM     30  O   UNL     1      10.124  13.880  21.667  0.00  0.00    +0.000 OA
ATOM     31  H   UNL     1      10.830  13.522  22.259  0.00  0.00    +0.000 HD
ENDBRANCH  28  30
ENDBRANCH  27  28
ENDBRANCH  26  27
ENDBRANCH  24  26
ENDBRANCH  23  24
ENDBRANCH  22  23
ENDBRANCH  21  22
ENDBRANCH  20  21
ENDBRANCH   8  20
TORSDOF 9
ENDMDL
MODEL 4
REMARK VINA RESULT:      -7.0      1.491      2.043
REMARK  Name = 
REMARK  12 active torsions:
REMARK  status: ('A' for Active; 'I' for Inactive)
REMARK    1  A    between atoms: C_1  and  C_2
REMARK    2  A    between atoms: C_6  and  C_7
REMARK    3  A    between atoms: C_8  and  O_9
REMARK    4  A    between atoms: O_9  and  C_10
REMARK    5  A    between atoms: C_10  and  C_11
REMARK    6  A    between atoms: C_11  and  O_12
REMARK    7  A    between atoms: O_12  and  C_13
REMARK    8  A    between atoms: C_13  and  C_15
REMARK    9  A    between atoms: C_15  and  C_16
REMARK   10  A    between atoms: C_16  and  C_17
REMARK   11  A    between atoms: C_17  and  O_19
REMARK   12  A    between atoms: C_23  and  C_24
REMARK                            x       y       z     vdW  Elec       q    Type
REMARK                         _______ _______ _______ _____ _____    ______ ____
ROOT
ATOM      1  C   UNL     1       1.980   8.100  18.381  0.00  0.00    +0.000 C 
ATOM      2  C   UNL     1       3.230   7.269  18.061  0.00  0.00    +0.000 C 
ATOM      3  C   UNL     1       3.723   7.649  16.662  0.00  0.00    +0.000 C 
ATOM      4  C   UNL     1       4.965   6.863  16.275  0.00  0.00    +0.000 C 
ATOM      5  C   UNL     1       4.700   5.349  16.296  0.00  0.00    +0.000 C 
ATOM      6  C   UNL     1       5.932   4.481  15.914  0.00  0.00    +0.000 C 
ATOM      7  C   UNL     1       6.547   4.867  14.572  0.00  0.00    +0.000 C 
ATOM      8  C   UNL     1       6.979   4.429  17.043  0.00  0.00    +0.000 C 
ATOM      9  O   UNL     1       6.381   3.926  18.228  0.00  0.00    +0.000 OA
ATOM     10  C   UNL     1       5.295   4.727  18.700  0.00  0.00    +0.000 C 
ATOM     11  O   UNL     1       4.857   4.152  19.935  0.00  0.00    +0.000 OA
ATOM     12  C   UNL     1       3.829   3.191  19.690  0.00  0.00    +0.000 C 
ATOM     13  C   UNL     1       4.016   2.058  20.693  0.00  0.00    +0.000 C 
ATOM     14  C   UNL     1       2.453   3.859  19.876  0.00  0.00    +0.000 C 
ATOM     15  C   UNL     1       2.470   5.364  19.574  0.00  0.00    +0.000 C 
ATOM     16  C   UNL     1       2.954   5.746  18.155  0.00  0.00    +0.000 C 
ATOM     17  C   UNL     1       4.142   4.867  17.659  0.00  0.00    +0.000 C 
ATOM     18  O   UNL     1       3.522   3.577  17.388  0.00  0.00    +0.000 OA
ATOM     19  O   UNL     1       3.959   2.604  18.389  0.00  0.00    +0.000 OA
ENDROOT
BRANCH   8  20
ATOM     20  O   UNL     1       7.587   5.699  17.278  0.00  0.00    +0.000 OA
BRANCH  20  21
ATOM     21  C   UNL     1       8.078   5.811  18.617  0.00  0.00    +0.000 C 
BRANCH  21  22
ATOM     22  C   UNL     1       8.359   7.274  18.940  0.00  0.00    +0.000 C 
BRANCH  22  23
ATOM     23  O   UNL     1       7.984   8.118  17.840  0.00  0.00    +0.000 OA
BRANCH  23  24
ATOM     24  C   UNL     1       8.256   9.436  18.019  0.00  0.00    +0.000 C 
ATOM     25  O   UNL     1       7.778  10.363  17.361  0.00  0.00    +0.000 OA
BRANCH  24  26
ATOM     26  C   UNL     1       9.242   9.635  19.136  0.00  0.00    +0.000 C 
BRANCH  26  27
ATOM     27  C   UNL     1       9.563  11.113  19.326  0.00  0.00    +0.000 C 
BRANCH  27  28
ATOM     28  C   UNL     1       9.254  11.578  20.724  0.00  0.00    +0.000 C 
ATOM     29  O   UNL     1       8.991  12.737  21.021  0.00  0.00    +0.000 OA
BRANCH  28  30
ATOM     30  O   UNL     1       9.321  10.596  21.648  0.00  0.00    +0.000 OA
ATOM     31  H   UNL     1       8.574   9.950  21.604  0.00  0.00    +0.000 HD
ENDBRANCH  28  30
ENDBRANCH  27  28
ENDBRANCH  26  27
ENDBRANCH  24  26
ENDBRANCH  23  24
ENDBRANCH  22  23
ENDBRANCH  21  22
ENDBRANCH  20  21
ENDBRANCH   8  20
TORSDOF 9
ENDMDL
MODEL 5
REMARK VINA RESULT:      -6.7      1.260      1.634
REMARK  Name = 
REMARK  12 active torsions:
REMARK  status: ('A' for Active; 'I' for Inactive)
REMARK    1  A    between atoms: C_1  and  C_2
REMARK    2  A    between atoms: C_6  and  C_7
REMARK    3  A    between atoms: C_8  and  O_9
REMARK    4  A    between atoms: O_9  and  C_10
REMARK    5  A    between atoms: C_10  and  C_11
REMARK    6  A    between atoms: C_11  and  O_12
REMARK    7  A    between atoms: O_12  and  C_13
REMARK    8  A    between atoms: C_13  and  C_15
REMARK    9  A    between atoms: C_15  and  C_16
REMARK   10  A    between atoms: C_16  and  C_17
REMARK   11  A    between atoms: C_17  and  O_19
REMARK   12  A    between atoms: C_23  and  C_24
REMARK                            x       y       z     vdW  Elec       q    Type
REMARK                         _______ _______ _______ _____ _____    ______ ____
ROOT
ATOM      1  C   UNL     1       1.836   7.444  20.063  0.00  0.00    +0.000 C 
ATOM      2  C   UNL     1       2.979   6.750  19.309  0.00  0.00    +0.000 C 
ATOM      3  C   UNL     1       3.070   7.349  17.904  0.00  0.00    +0.000 C 
ATOM      4  C   UNL     1       4.187   6.708  17.095  0.00  0.00    +0.000 C 
ATOM      5  C   UNL     1       3.981   5.191  16.958  0.00  0.00    +0.000 C 
ATOM      6  C   UNL     1       5.091   4.469  16.145  0.00  0.00    +0.000 C 
ATOM      7  C   UNL     1       5.316   5.075  14.762  0.00  0.00    +0.000 C 
ATOM      8  C   UNL     1       6.403   4.335  16.943  0.00  0.00    +0.000 C 
ATOM      9  O   UNL     1       6.157   3.636  18.153  0.00  0.00    +0.000 OA
ATOM     10  C   UNL     1       5.212   4.290  19.005  0.00  0.00    +0.000 C 
ATOM     11  O   UNL     1       5.136   3.524  20.211  0.00  0.00    +0.000 OA
ATOM     12  C   UNL     1       4.109   2.538  20.101  0.00  0.00    +0.000 C 
ATOM     13  C   UNL     1       4.589   1.294  20.841  0.00  0.00    +0.000 C 
ATOM     14  C   UNL     1       2.814   3.081  20.735  0.00  0.00    +0.000 C 
ATOM     15  C   UNL     1       2.706   4.610  20.666  0.00  0.00    +0.000 C 
ATOM     16  C   UNL     1       2.782   5.214  19.244  0.00  0.00    +0.000 C 
ATOM     17  C   UNL     1       3.821   4.492  18.332  0.00  0.00    +0.000 C 
ATOM     18  O   UNL     1       3.189   3.212  18.041  0.00  0.00    +0.000 OA
ATOM     19  O   UNL     1       3.905   2.144  18.738  0.00  0.00    +0.000 OA
ENDROOT
BRANCH   8  20
ATOM     20  O   UNL     1       7.014   5.598  17.198  0.00  0.00    +0.000 OA
BRANCH  20  21
ATOM     21  C   UNL     1       8.007   5.509  18.224  0.00  0.00    +0.000 C 
BRANCH  21  22
ATOM     22  C   UNL     1       7.927   6.736  19.125  0.00  0.00    +0.000 C 
BRANCH  22  23
ATOM     23  O   UNL     1       8.783   7.781  18.636  0.00  0.00    +0.000 OA
BRANCH  23  24
ATOM     24  C   UNL     1       8.138   8.786  17.992  0.00  0.00    +0.000 C 
ATOM     25  O   UNL     1       7.121   8.660  17.305  0.00  0.00    +0.000 OA
BRANCH  24  26
ATOM     26  C   UNL     1       8.832  10.101  18.210  0.00  0.00    +0.000 C 
BRANCH  26  27
ATOM     27  C   UNL     1       9.346  10.219  19.639  0.00  0.00    +0.000 C 
BRANCH  27  28
ATOM     28  C   UNL     1       9.482  11.656  20.069  0.00  0.00    +0.000 C 
ATOM     29  O   UNL     1       9.294  12.615  19.330  0.00  0.00    +0.000 OA
BRANCH  28  30
ATOM     30  O   UNL     1       9.864  11.802  21.354  0.00  0.00    +0.000 OA
ATOM     31  H   UNL     1       9.202  12.268  21.922  0.00  0.00    +0.000 HD
ENDBRANCH  28  30
ENDBRANCH  27  28
ENDBRANCH  26  27
ENDBRANCH  24  26
ENDBRANCH  23  24
ENDBRANCH  22  23
ENDBRANCH  21  22
ENDBRANCH  20  21
ENDBRANCH   8  20
TORSDOF 9
ENDMDL
MODEL 6
REMARK VINA RESULT:      -6.7      1.315      1.704
REMARK  Name = 
REMARK  12 active torsions:
REMARK  status: ('A' for Active; 'I' for Inactive)
REMARK    1  A    between atoms: C_1  and  C_2
REMARK    2  A    between atoms: C_6  and  C_7
REMARK    3  A    between atoms: C_8  and  O_9
REMARK    4  A    between atoms: O_9  and  C_10
REMARK    5  A    between atoms: C_10  and  C_11
REMARK    6  A    between atoms: C_11  and  O_12
REMARK    7  A    between atoms: O_12  and  C_13
REMARK    8  A    between atoms: C_13  and  C_15
REMARK    9  A    between atoms: C_15  and  C_16
REMARK   10  A    between atoms: C_16  and  C_17
REMARK   11  A    between atoms: C_17  and  O_19
REMARK   12  A    between atoms: C_23  and  C_24
REMARK                            x       y       z     vdW  Elec       q    Type
REMARK                         _______ _______ _______ _____ _____    ______ ____
ROOT
ATOM      1  C   UNL     1       1.005   8.662  19.831  0.00  0.00    +0.000 C 
ATOM      2  C   UNL     1       2.223   7.885  19.313  0.00  0.00    +0.000 C 
ATOM      3  C   UNL     1       2.609   8.442  17.941  0.00  0.00    +0.000 C 
ATOM      4  C   UNL     1       3.814   7.717  17.363  0.00  0.00    +0.000 C 
ATOM      5  C   UNL     1       3.544   6.212  17.211  0.00  0.00    +0.000 C 
ATOM      6  C   UNL     1       4.739   5.406  16.628  0.00  0.00    +0.000 C 
ATOM      7  C   UNL     1       5.252   5.963  15.303  0.00  0.00    +0.000 C 
ATOM      8  C   UNL     1       5.870   5.216  17.658  0.00  0.00    +0.000 C 
ATOM      9  O   UNL     1       5.362   4.564  18.812  0.00  0.00    +0.000 OA
ATOM     10  C   UNL     1       4.318   5.292  19.463  0.00  0.00    +0.000 C 
ATOM     11  O   UNL     1       3.974   4.562  20.645  0.00  0.00    +0.000 OA
ATOM     12  C   UNL     1       2.925   3.635  20.359  0.00  0.00    +0.000 C 
ATOM     13  C   UNL     1       3.183   2.385  21.193  0.00  0.00    +0.000 C 
ATOM     14  C   UNL     1       1.572   4.268  20.734  0.00  0.00    +0.000 C 
ATOM     15  C   UNL     1       1.572   5.798  20.625  0.00  0.00    +0.000 C 
ATOM     16  C   UNL     1       1.948   6.361  19.234  0.00  0.00    +0.000 C 
ATOM     17  C   UNL     1       3.090   5.558  18.541  0.00  0.00    +0.000 C 
ATOM     18  O   UNL     1       2.445   4.310  18.155  0.00  0.00    +0.000 OA
ATOM     19  O   UNL     1       2.953   3.219  18.988  0.00  0.00    +0.000 OA
ENDROOT
BRANCH   8  20
ATOM     20  O   UNL     1       6.500   6.448  18.005  0.00  0.00    +0.000 OA
BRANCH  20  21
ATOM     21  C   UNL     1       7.733   6.235  18.699  0.00  0.00    +0.000 C 
BRANCH  21  22
ATOM     22  C   UNL     1       8.500   7.549  18.799  0.00  0.00    +0.000 C 
BRANCH  22  23
ATOM     23  O   UNL     1       7.931   8.537  17.925  0.00  0.00    +0.000 OA
BRANCH  23  24
ATOM     24  C   UNL     1       8.364   9.804  18.146  0.00  0.00    +0.000 C 
ATOM     25  O   UNL     1       8.049  10.795  17.482  0.00  0.00    +0.000 OA
BRANCH  24  26
ATOM     26  C   UNL     1       9.306   9.856  19.315  0.00  0.00    +0.000 C 
BRANCH  26  27
ATOM     27  C   UNL     1      10.233  11.061  19.219  0.00  0.00    +0.000 C 
BRANCH  27  28
ATOM     28  C   UNL     1      10.020  12.024  20.358  0.00  0.00    +0.000 C 
ATOM     29  O   UNL     1       9.191  11.866  21.246  0.00  0.00    +0.000 OA
BRANCH  28  30
ATOM     30  O   UNL     1      10.816  13.112  20.302  0.00  0.00    +0.000 OA
ATOM     31  H   UNL     1      11.168  13.308  19.399  0.00  0.00    +0.000 HD
ENDBRANCH  28  30
ENDBRANCH  27  28
ENDBRANCH  26  27
ENDBRANCH  24  26
ENDBRANCH  23  24
ENDBRANCH  22  23
ENDBRANCH  21  22
ENDBRANCH  20  21
ENDBRANCH   8  20
TORSDOF 9
ENDMDL
MODEL 7
REMARK VINA RESULT:      -6.5      1.159      1.395
REMARK  Name = 
REMARK  12 active torsions:
REMARK  status: ('A' for Active; 'I' for Inactive)
REMARK    1  A    between atoms: C_1  and  C_2
REMARK    2  A    between atoms: C_6  and  C_7
REMARK    3  A    between atoms: C_8  and  O_9
REMARK    4  A    between atoms: O_9  and  C_10
REMARK    5  A    between atoms: C_10  and  C_11
REMARK    6  A    between atoms: C_11  and  O_12
REMARK    7  A    between atoms: O_12  and  C_13
REMARK    8  A    between atoms: C_13  and  C_15
REMARK    9  A    between atoms: C_15  and  C_16
REMARK   10  A    between atoms: C_16  and  C_17
REMARK   11  A    between atoms: C_17  and  O_19
REMARK   12  A    between atoms: C_23  and  C_24
REMARK                            x       y       z     vdW  Elec       q    Type
REMARK                         _______ _______ _______ _____ _____    ______ ____
ROOT
ATOM      1  C   UNL     1       0.735   8.771  19.796  0.00  0.00    +0.000 C 
ATOM      2  C   UNL     1       1.990   8.024  19.326  0.00  0.00    +0.000 C 
ATOM      3  C   UNL     1       2.437   8.616  17.987  0.00  0.00    +0.000 C 
ATOM      4  C   UNL     1       3.682   7.922  17.457  0.00  0.00    +0.000 C 
ATOM      5  C   UNL     1       3.445   6.416  17.261  0.00  0.00    +0.000 C 
ATOM      6  C   UNL     1       4.681   5.641  16.725  0.00  0.00    +0.000 C 
ATOM      7  C   UNL     1       5.252   6.234  15.440  0.00  0.00    +0.000 C 
ATOM      8  C   UNL     1       5.760   5.447  17.808  0.00  0.00    +0.000 C 
ATOM      9  O   UNL     1       5.205   4.762  18.920  0.00  0.00    +0.000 OA
ATOM     10  C   UNL     1       4.117   5.461  19.531  0.00  0.00    +0.000 C 
ATOM     11  O   UNL     1       3.724   4.701  20.678  0.00  0.00    +0.000 OA
ATOM     12  C   UNL     1       2.707   3.764  20.320  0.00  0.00    +0.000 C 
ATOM     13  C   UNL     1       2.942   2.500  21.141  0.00  0.00    +0.000 C 
ATOM     14  C   UNL     1       1.326   4.368  20.637  0.00  0.00    +0.000 C 
ATOM     15  C   UNL     1       1.307   5.900  20.559  0.00  0.00    +0.000 C 
ATOM     16  C   UNL     1       1.744   6.498  19.201  0.00  0.00    +0.000 C 
ATOM     17  C   UNL     1       2.934   5.727  18.552  0.00  0.00    +0.000 C 
ATOM     18  O   UNL     1       2.330   4.478  18.108  0.00  0.00    +0.000 OA
ATOM     19  O   UNL     1       2.812   3.378  18.944  0.00  0.00    +0.000 OA
ENDROOT
BRANCH   8  20
ATOM     20  O   UNL     1       6.351   6.681  18.212  0.00  0.00    +0.000 OA
BRANCH  20  21
ATOM     21  C   UNL     1       7.691   6.810  17.726  0.00  0.00    +0.000 C 
BRANCH  21  22
ATOM     22  C   UNL     1       8.459   7.801  18.593  0.00  0.00    +0.000 C 
BRANCH  22  23
ATOM     23  O   UNL     1       8.355   9.131  18.059  0.00  0.00    +0.000 OA
BRANCH  23  24
ATOM     24  C   UNL     1       9.003  10.081  18.779  0.00  0.00    +0.000 C 
ATOM     25  O   UNL     1       9.043  10.145  20.011  0.00  0.00    +0.000 OA
BRANCH  24  26
ATOM     26  C   UNL     1       9.674  11.078  17.876  0.00  0.00    +0.000 C 
BRANCH  26  27
ATOM     27  C   UNL     1       8.843  12.349  17.751  0.00  0.00    +0.000 C 
BRANCH  27  28
ATOM     28  C   UNL     1       9.697  13.587  17.835  0.00  0.00    +0.000 C 
ATOM     29  O   UNL     1      10.831  13.673  17.377  0.00  0.00    +0.000 OA
BRANCH  28  30
ATOM     30  O   UNL     1       9.109  14.606  18.495  0.00  0.00    +0.000 OA
ATOM     31  H   UNL     1       9.745  15.259  18.878  0.00  0.00    +0.000 HD
ENDBRANCH  28  30
ENDBRANCH  27  28
ENDBRANCH  26  27
ENDBRANCH  24  26
ENDBRANCH  23  24
ENDBRANCH  22  23
ENDBRANCH  21  22
ENDBRANCH  20  21
ENDBRANCH   8  20
TORSDOF 9
ENDMDL
MODEL 8
REMARK VINA RESULT:      -6.3      5.891      9.637
REMARK  Name = 
REMARK  12 active torsions:
REMARK  status: ('A' for Active; 'I' for Inactive)
REMARK    1  A    between atoms: C_1  and  C_2
REMARK    2  A    between atoms: C_6  and  C_7
REMARK    3  A    between atoms: C_8  and  O_9
REMARK    4  A    between atoms: O_9  and  C_10
REMARK    5  A    between atoms: C_10  and  C_11
REMARK    6  A    between atoms: C_11  and  O_12
REMARK    7  A    between atoms: O_12  and  C_13
REMARK    8  A    between atoms: C_13  and  C_15
REMARK    9  A    between atoms: C_15  and  C_16
REMARK   10  A    between atoms: C_16  and  C_17
REMARK   11  A    between atoms: C_17  and  O_19
REMARK   12  A    between atoms: C_23  and  C_24
REMARK                            x       y       z     vdW  Elec       q    Type
REMARK                         _______ _______ _______ _____ _____    ______ ____
ROOT
ATOM      1  C   UNL     1      -5.167  12.772  21.210  0.00  0.00    +0.000 C 
ATOM      2  C   UNL     1      -3.831  12.112  20.842  0.00  0.00    +0.000 C 
ATOM      3  C   UNL     1      -2.731  12.714  21.721  0.00  0.00    +0.000 C 
ATOM      4  C   UNL     1      -1.373  12.105  21.411  0.00  0.00    +0.000 C 
ATOM      5  C   UNL     1      -0.984  12.319  19.940  0.00  0.00    +0.000 C 
ATOM      6  C   UNL     1       0.395  11.715  19.552  0.00  0.00    +0.000 C 
ATOM      7  C   UNL     1       1.534  12.190  20.450  0.00  0.00    +0.000 C 
ATOM      8  C   UNL     1       0.345  10.179  19.435  0.00  0.00    +0.000 C 
ATOM      9  O   UNL     1      -0.634   9.803  18.479  0.00  0.00    +0.000 OA
ATOM     10  C   UNL     1      -1.953  10.241  18.815  0.00  0.00    +0.000 C 
ATOM     11  O   UNL     1      -2.834   9.717  17.818  0.00  0.00    +0.000 OA
ATOM     12  C   UNL     1      -2.973  10.652  16.746  0.00  0.00    +0.000 C 
ATOM     13  C   UNL     1      -3.085   9.850  15.454  0.00  0.00    +0.000 C 
ATOM     14  C   UNL     1      -4.239  11.499  16.972  0.00  0.00    +0.000 C 
ATOM     15  C   UNL     1      -4.600  11.660  18.454  0.00  0.00    +0.000 C 
ATOM     16  C   UNL     1      -3.494  12.283  19.339  0.00  0.00    +0.000 C 
ATOM     17  C   UNL     1      -2.064  11.790  18.962  0.00  0.00    +0.000 C 
ATOM     18  O   UNL     1      -1.795  12.456  17.695  0.00  0.00    +0.000 OA
ATOM     19  O   UNL     1      -1.806  11.472  16.613  0.00  0.00    +0.000 OA
ENDROOT
BRANCH   8  20
ATOM     20  O   UNL     1       0.102   9.547  20.691  0.00  0.00    +0.000 OA
BRANCH  20  21
ATOM     21  C   UNL     1       1.050   8.508  20.954  0.00  0.00    +0.000 C 
BRANCH  21  22
ATOM     22  C   UNL     1       1.889   8.251  19.708  0.00  0.00    +0.000 C 
BRANCH  22  23
ATOM     23  O   UNL     1       2.339   6.888  19.670  0.00  0.00    +0.000 OA
BRANCH  23  24
ATOM     24  C   UNL     1       3.008   6.543  18.541  0.00  0.00    +0.000 C 
ATOM     25  O   UNL     1       3.542   7.331  17.756  0.00  0.00    +0.000 OA
BRANCH  24  26
ATOM     26  C   UNL     1       3.012   5.053  18.349  0.00  0.00    +0.000 C 
BRANCH  26  27
ATOM     27  C   UNL     1       1.595   4.518  18.186  0.00  0.00    +0.000 C 
BRANCH  27  28
ATOM     28  C   UNL     1       1.569   3.014  18.113  0.00  0.00    +0.000 C 
ATOM     29  O   UNL     1       2.274   2.350  17.362  0.00  0.00    +0.000 OA
BRANCH  28  30
ATOM     30  O   UNL     1       0.666   2.448  18.940  0.00  0.00    +0.000 OA
ATOM     31  H   UNL     1       1.063   1.872  19.638  0.00  0.00    +0.000 HD
ENDBRANCH  28  30
ENDBRANCH  27  28
ENDBRANCH  26  27
ENDBRANCH  24  26
ENDBRANCH  23  24
ENDBRANCH  22  23
ENDBRANCH  21  22
ENDBRANCH  20  21
ENDBRANCH   8  20
TORSDOF 9
ENDMDL
MODEL 9
REMARK VINA RESULT:      -6.3      1.498      2.272
REMARK  Name = 
REMARK  12 active torsions:
REMARK  status: ('A' for Active; 'I' for Inactive)
REMARK    1  A    between atoms: C_1  and  C_2
REMARK    2  A    between atoms: C_6  and  C_7
REMARK    3  A    between atoms: C_8  and  O_9
REMARK    4  A    between atoms: O_9  and  C_10
REMARK    5  A    between atoms: C_10  and  C_11
REMARK    6  A    between atoms: C_11  and  O_12
REMARK    7  A    between atoms: O_12  and  C_13
REMARK    8  A    between atoms: C_13  and  C_15
REMARK    9  A    between atoms: C_15  and  C_16
REMARK   10  A    between atoms: C_16  and  C_17
REMARK   11  A    between atoms: C_17  and  O_19
REMARK   12  A    between atoms: C_23  and  C_24
REMARK                            x       y       z     vdW  Elec       q    Type
REMARK                         _______ _______ _______ _____ _____    ______ ____
ROOT
ATOM      1  C   UNL     1       1.447   8.652  19.074  0.00  0.00    +0.000 C 
ATOM      2  C   UNL     1       2.499   7.540  18.974  0.00  0.00    +0.000 C 
ATOM      3  C   UNL     1       3.346   7.781  17.721  0.00  0.00    +0.000 C 
ATOM      4  C   UNL     1       4.415   6.712  17.556  0.00  0.00    +0.000 C 
ATOM      5  C   UNL     1       3.796   5.310  17.454  0.00  0.00    +0.000 C 
ATOM      6  C   UNL     1       4.834   4.165  17.288  0.00  0.00    +0.000 C 
ATOM      7  C   UNL     1       5.787   4.382  16.116  0.00  0.00    +0.000 C 
ATOM      8  C   UNL     1       5.584   3.865  18.601  0.00  0.00    +0.000 C 
ATOM      9  O   UNL     1       4.652   3.529  19.618  0.00  0.00    +0.000 OA
ATOM     10  C   UNL     1       3.716   4.573  19.898  0.00  0.00    +0.000 C 
ATOM     11  O   UNL     1       2.909   4.129  20.992  0.00  0.00    +0.000 OA
ATOM     12  C   UNL     1       1.753   3.447  20.503  0.00  0.00    +0.000 C 
ATOM     13  C   UNL     1       1.452   2.308  21.471  0.00  0.00    +0.000 C 
ATOM     14  C   UNL     1       0.571   4.432  20.440  0.00  0.00    +0.000 C 
ATOM     15  C   UNL     1       1.010   5.885  20.215  0.00  0.00    +0.000 C 
ATOM     16  C   UNL     1       1.852   6.131  18.942  0.00  0.00    +0.000 C 
ATOM     17  C   UNL     1       2.870   4.986  18.655  0.00  0.00    +0.000 C 
ATOM     18  O   UNL     1       2.029   3.885  18.206  0.00  0.00    +0.000 OA
ATOM     19  O   UNL     1       2.003   2.840  19.230  0.00  0.00    +0.000 OA
ENDROOT
BRANCH   8  20
ATOM     20  O   UNL     1       6.417   4.948  19.010  0.00  0.00    +0.000 OA
BRANCH  20  21
ATOM     21  C   UNL     1       7.582   5.060  18.187  0.00  0.00    +0.000 C 
BRANCH  21  22
ATOM     22  C   UNL     1       8.260   6.402  18.436  0.00  0.00    +0.000 C 
BRANCH  22  23
ATOM     23  O   UNL     1       8.087   7.276  17.308  0.00  0.00    +0.000 OA
BRANCH  23  24
ATOM     24  C   UNL     1       7.816   8.566  17.629  0.00  0.00    +0.000 C 
ATOM     25  O   UNL     1       6.908   9.249  17.148  0.00  0.00    +0.000 OA
BRANCH  24  26
ATOM     26  C   UNL     1       8.784   9.081  18.658  0.00  0.00    +0.000 C 
BRANCH  26  27
ATOM     27  C   UNL     1       9.231  10.499  18.327  0.00  0.00    +0.000 C 
BRANCH  27  28
ATOM     28  C   UNL     1      10.056  11.099  19.436  0.00  0.00    +0.000 C 
ATOM     29  O   UNL     1       9.662  11.237  20.588  0.00  0.00    +0.000 OA
BRANCH  28  30
ATOM     30  O   UNL     1      11.280  11.506  19.040  0.00  0.00    +0.000 OA
ATOM     31  H   UNL     1      11.854  10.780  18.694  0.00  0.00    +0.000 HD
ENDBRANCH  28  30
ENDBRANCH  27  28
ENDBRANCH  26  27
ENDBRANCH  24  26
ENDBRANCH  23  24
ENDBRANCH  22  23
ENDBRANCH  21  22
ENDBRANCH  20  21
ENDBRANCH   8  20
TORSDOF 9
ENDMDL
