MODEL 1
REMARK VINA RESULT:      -8.1      0.000      0.000
REMARK  Name = 
REMARK  2 active torsions:
REMARK  status: ('A' for Active; 'I' for Inactive)
REMARK    1  A    between atoms: C_5  and  C_6
REMARK    2  A    between atoms: C_13  and  C_14
REMARK                            x       y       z     vdW  Elec       q    Type
REMARK                         _______ _______ _______ _____ _____    ______ ____
ROOT
ATOM      1  O   UNL     1       0.944   3.894  17.762  0.00  0.00    +0.000 OA
ATOM      2  C   UNL     1       2.149   3.947  17.609  0.00  0.00    +0.000 C 
ATOM      3  O   UNL     1       2.912   2.945  17.083  0.00  0.00    +0.000 OA
ATOM      4  C   UNL     1       4.281   3.351  17.066  0.00  0.00    +0.000 C 
ATOM      5  C   UNL     1       4.264   4.696  17.670  0.00  0.00    +0.000 C 
ATOM      6  C   UNL     1       3.022   5.078  17.973  0.00  0.00    +0.000 C 
ENDROOT
BRANCH   5   7
ATOM      7  C   UNL     1       5.487   5.464  17.872  0.00  0.00    +0.000 A 
ATOM      8  C   UNL     1       6.317   5.188  18.965  0.00  0.00    +0.000 A 
ATOM      9  C   UNL     1       7.467   5.951  19.183  0.00  0.00    +0.000 A 
ATOM     10  C   UNL     1       7.796   6.992  18.315  0.00  0.00    +0.000 A 
ATOM     11  C   UNL     1       6.975   7.272  17.223  0.00  0.00    +0.000 A 
ATOM     12  C   UNL     1       5.831   6.509  17.008  0.00  0.00    +0.000 A 
ATOM     13  F   UNL     1       5.051   6.794  15.954  0.00  0.00    +0.000 F 
ENDBRANCH   5   7
BRANCH   6  14
ATOM     14  C   UNL     1       2.563   6.333  18.548  0.00  0.00    +0.000 A 
ATOM     15  C   UNL     1       2.388   7.459  17.731  0.00  0.00    +0.000 A 
ATOM     16  C   UNL     1       1.909   8.655  18.272  0.00  0.00    +0.000 A 
ATOM     17  C   UNL     1       1.616   8.728  19.632  0.00  0.00    +0.000 A 
ATOM     18 BR   UNL     1       0.938  10.335  20.360  0.00  0.00    +0.000 Br
ATOM     19  C   UNL     1       1.809   7.623  20.458  0.00  0.00    +0.000 A 
ATOM     20  C   UNL     1       2.285   6.426  19.916  0.00  0.00    +0.000 A 
ENDBRANCH   6  14
TORSDOF 2
ENDMDL
MODEL 2
REMARK VINA RESULT:      -7.9      1.050      1.506
REMARK  Name = 
REMARK  2 active torsions:
REMARK  status: ('A' for Active; 'I' for Inactive)
REMARK    1  A    between atoms: C_5  and  C_6
REMARK    2  A    between atoms: C_13  and  C_14
REMARK                            x       y       z     vdW  Elec       q    Type
REMARK                         _______ _______ _______ _____ _____    ______ ____
ROOT
ATOM      1  O   UNL     1       0.945   4.046  17.612  0.00  0.00    +0.000 OA
ATOM      2  C   UNL     1       2.153   4.112  17.483  0.00  0.00    +0.000 C 
ATOM      3  O   UNL     1       2.931   3.134  16.934  0.00  0.00    +0.000 OA
ATOM      4  C   UNL     1       4.298   3.547  16.958  0.00  0.00    +0.000 C 
ATOM      5  C   UNL     1       4.262   4.869  17.612  0.00  0.00    +0.000 C 
ATOM      6  C   UNL     1       3.011   5.233  17.905  0.00  0.00    +0.000 C 
ENDROOT
BRANCH   5   7
ATOM      7  C   UNL     1       5.476   5.635  17.865  0.00  0.00    +0.000 A 
ATOM      8  C   UNL     1       5.841   6.676  17.003  0.00  0.00    +0.000 A 
ATOM      9  C   UNL     1       7.027   7.384  17.220  0.00  0.00    +0.000 A 
ATOM     10  C   UNL     1       7.854   7.057  18.295  0.00  0.00    +0.000 A 
ATOM     11  C   UNL     1       7.497   6.022  19.158  0.00  0.00    +0.000 A 
ATOM     12  C   UNL     1       6.314   5.321  18.939  0.00  0.00    +0.000 A 
ATOM     13  F   UNL     1       5.987   4.326  19.778  0.00  0.00    +0.000 F 
ENDBRANCH   5   7
BRANCH   6  14
ATOM     14  C   UNL     1       2.535   6.463  18.519  0.00  0.00    +0.000 A 
ATOM     15  C   UNL     1       2.347   7.612  17.737  0.00  0.00    +0.000 A 
ATOM     16  C   UNL     1       1.852   8.784  18.314  0.00  0.00    +0.000 A 
ATOM     17  C   UNL     1       1.553   8.810  19.675  0.00  0.00    +0.000 A 
ATOM     18 BR   UNL     1       0.853  10.384  20.451  0.00  0.00    +0.000 Br
ATOM     19  C   UNL     1       1.758   7.681  20.467  0.00  0.00    +0.000 A 
ATOM     20  C   UNL     1       2.252   6.509  19.888  0.00  0.00    +0.000 A 
ENDBRANCH   6  14
TORSDOF 2
ENDMDL
MODEL 3
REMARK VINA RESULT:      -7.9      0.138      1.090
REMARK  Name = 
REMARK  2 active torsions:
REMARK  status: ('A' for Active; 'I' for Inactive)
REMARK    1  A    between atoms: C_5  and  C_6
REMARK    2  A    between atoms: C_13  and  C_14
REMARK                            x       y       z     vdW  Elec       q    Type
REMARK                         _______ _______ _______ _____ _____    ______ ____
ROOT
ATOM      1  O   UNL     1       0.970   3.894  17.610  0.00  0.00    +0.000 OA
ATOM      2  C   UNL     1       2.180   3.955  17.493  0.00  0.00    +0.000 C 
ATOM      3  O   UNL     1       2.966   2.949  17.009  0.00  0.00    +0.000 OA
ATOM      4  C   UNL     1       4.332   3.366  17.027  0.00  0.00    +0.000 C 
ATOM      5  C   UNL     1       4.286   4.722  17.605  0.00  0.00    +0.000 C 
ATOM      6  C   UNL     1       3.032   5.099  17.862  0.00  0.00    +0.000 C 
ENDROOT
BRANCH   5   7
ATOM      7  C   UNL     1       5.496   5.503  17.830  0.00  0.00    +0.000 A 
ATOM      8  C   UNL     1       6.321   5.220  18.925  0.00  0.00    +0.000 A 
ATOM      9  C   UNL     1       7.459   5.995  19.166  0.00  0.00    +0.000 A 
ATOM     10  C   UNL     1       7.780   7.055  18.318  0.00  0.00    +0.000 A 
ATOM     11  C   UNL     1       6.965   7.342  17.224  0.00  0.00    +0.000 A 
ATOM     12  C   UNL     1       5.833   6.567  16.987  0.00  0.00    +0.000 A 
ATOM     13  F   UNL     1       5.058   6.859  15.931  0.00  0.00    +0.000 F 
ENDBRANCH   5   7
BRANCH   6  14
ATOM     14  C   UNL     1       2.547   6.361  18.400  0.00  0.00    +0.000 A 
ATOM     15  C   UNL     1       2.288   6.487  19.772  0.00  0.00    +0.000 A 
ATOM     16  C   UNL     1       1.861   7.708  20.300  0.00  0.00    +0.000 A 
ATOM     17  C   UNL     1       1.683   8.800  19.453  0.00  0.00    +0.000 A 
ATOM     18 BR   UNL     1       1.135  10.462  20.169  0.00  0.00    +0.000 Br
ATOM     19  C   UNL     1       1.913   8.680  18.084  0.00  0.00    +0.000 A 
ATOM     20  C   UNL     1       2.343   7.459  17.558  0.00  0.00    +0.000 A 
ENDBRANCH   6  14
TORSDOF 2
ENDMDL
MODEL 4
REMARK VINA RESULT:      -7.7      1.044      1.850
REMARK  Name = 
REMARK  2 active torsions:
REMARK  status: ('A' for Active; 'I' for Inactive)
REMARK    1  A    between atoms: C_5  and  C_6
REMARK    2  A    between atoms: C_13  and  C_14
REMARK                            x       y       z     vdW  Elec       q    Type
REMARK                         _______ _______ _______ _____ _____    ______ ____
ROOT
ATOM      1  O   UNL     1       0.941   3.958  17.610  0.00  0.00    +0.000 OA
ATOM      2  C   UNL     1       2.147   4.042  17.477  0.00  0.00    +0.000 C 
ATOM      3  O   UNL     1       2.940   3.073  16.932  0.00  0.00    +0.000 OA
ATOM      4  C   UNL     1       4.300   3.508  16.948  0.00  0.00    +0.000 C 
ATOM      5  C   UNL     1       4.244   4.834  17.593  0.00  0.00    +0.000 C 
ATOM      6  C   UNL     1       2.989   5.179  17.888  0.00  0.00    +0.000 C 
ENDROOT
BRANCH   5   7
ATOM      7  C   UNL     1       5.447   5.621  17.836  0.00  0.00    +0.000 A 
ATOM      8  C   UNL     1       5.803   6.649  16.955  0.00  0.00    +0.000 A 
ATOM      9  C   UNL     1       6.978   7.377  17.163  0.00  0.00    +0.000 A 
ATOM     10  C   UNL     1       7.804   7.084  18.250  0.00  0.00    +0.000 A 
ATOM     11  C   UNL     1       7.455   6.062  19.132  0.00  0.00    +0.000 A 
ATOM     12  C   UNL     1       6.282   5.341  18.921  0.00  0.00    +0.000 A 
ATOM     13  F   UNL     1       5.964   4.360  19.780  0.00  0.00    +0.000 F 
ENDBRANCH   5   7
BRANCH   6  14
ATOM     14  C   UNL     1       2.495   6.406  18.495  0.00  0.00    +0.000 A 
ATOM     15  C   UNL     1       2.195   6.442  19.864  0.00  0.00    +0.000 A 
ATOM     16  C   UNL     1       1.759   7.628  20.459  0.00  0.00    +0.000 A 
ATOM     17  C   UNL     1       1.613   8.776  19.683  0.00  0.00    +0.000 A 
ATOM     18 BR   UNL     1       1.054  10.390  20.492  0.00  0.00    +0.000 Br
ATOM     19  C   UNL     1       1.886   8.746  18.317  0.00  0.00    +0.000 A 
ATOM     20  C   UNL     1       2.324   7.560  17.723  0.00  0.00    +0.000 A 
ENDBRANCH   6  14
TORSDOF 2
ENDMDL
MODEL 5
REMARK VINA RESULT:      -7.6      2.346      3.902
REMARK  Name = 
REMARK  2 active torsions:
REMARK  status: ('A' for Active; 'I' for Inactive)
REMARK    1  A    between atoms: C_5  and  C_6
REMARK    2  A    between atoms: C_13  and  C_14
REMARK                            x       y       z     vdW  Elec       q    Type
REMARK                         _______ _______ _______ _____ _____    ______ ____
ROOT
ATOM      1  O   UNL     1       5.110   7.083  16.081  0.00  0.00    +0.000 OA
ATOM      2  C   UNL     1       4.805   6.050  16.647  0.00  0.00    +0.000 C 
ATOM      3  O   UNL     1       5.354   4.828  16.385  0.00  0.00    +0.000 OA
ATOM      4  C   UNL     1       4.748   3.846  17.226  0.00  0.00    +0.000 C 
ATOM      5  C   UNL     1       3.750   4.605  18.002  0.00  0.00    +0.000 C 
ATOM      6  C   UNL     1       3.783   5.904  17.698  0.00  0.00    +0.000 C 
ENDROOT
BRANCH   5   7
ATOM      7  C   UNL     1       2.876   3.958  18.973  0.00  0.00    +0.000 A 
ATOM      8  C   UNL     1       3.397   3.499  20.189  0.00  0.00    +0.000 A 
ATOM      9  C   UNL     1       2.569   2.840  21.103  0.00  0.00    +0.000 A 
ATOM     10  C   UNL     1       1.221   2.634  20.809  0.00  0.00    +0.000 A 
ATOM     11  C   UNL     1       0.695   3.089  19.601  0.00  0.00    +0.000 A 
ATOM     12  C   UNL     1       1.523   3.746  18.694  0.00  0.00    +0.000 A 
ATOM     13  F   UNL     1       1.000   4.175  17.535  0.00  0.00    +0.000 F 
ENDBRANCH   5   7
BRANCH   6  14
ATOM     14  C   UNL     1       2.995   6.995  18.252  0.00  0.00    +0.000 A 
ATOM     15  C   UNL     1       2.600   8.063  17.434  0.00  0.00    +0.000 A 
ATOM     16  C   UNL     1       1.809   9.092  17.951  0.00  0.00    +0.000 A 
ATOM     17  C   UNL     1       1.422   9.058  19.289  0.00  0.00    +0.000 A 
ATOM     18 BR   UNL     1       0.326  10.433  19.982  0.00  0.00    +0.000 Br
ATOM     19  C   UNL     1       1.828   8.014  20.117  0.00  0.00    +0.000 A 
ATOM     20  C   UNL     1       2.617   6.984  19.599  0.00  0.00    +0.000 A 
ENDBRANCH   6  14
TORSDOF 2
ENDMDL
MODEL 6
REMARK VINA RESULT:      -7.5      1.269      1.322
REMARK  Name = 
REMARK  2 active torsions:
REMARK  status: ('A' for Active; 'I' for Inactive)
REMARK    1  A    between atoms: C_5  and  C_6
REMARK    2  A    between atoms: C_13  and  C_14
REMARK                            x       y       z     vdW  Elec       q    Type
REMARK                         _______ _______ _______ _____ _____    ______ ____
ROOT
ATOM      1  O   UNL     1       0.774   3.634  19.800  0.00  0.00    +0.000 OA
ATOM      2  C   UNL     1       1.922   3.534  19.409  0.00  0.00    +0.000 C 
ATOM      3  O   UNL     1       2.592   2.355  19.252  0.00  0.00    +0.000 OA
ATOM      4  C   UNL     1       3.917   2.621  18.792  0.00  0.00    +0.000 C 
ATOM      5  C   UNL     1       3.984   4.093  18.719  0.00  0.00    +0.000 C 
ATOM      6  C   UNL     1       2.817   4.649  19.052  0.00  0.00    +0.000 C 
ENDROOT
BRANCH   5   7
ATOM      7  C   UNL     1       5.200   4.788  18.316  0.00  0.00    +0.000 A 
ATOM      8  C   UNL     1       6.117   5.217  19.282  0.00  0.00    +0.000 A 
ATOM      9  C   UNL     1       7.262   5.921  18.900  0.00  0.00    +0.000 A 
ATOM     10  C   UNL     1       7.499   6.202  17.554  0.00  0.00    +0.000 A 
ATOM     11  C   UNL     1       6.590   5.777  16.585  0.00  0.00    +0.000 A 
ATOM     12  C   UNL     1       5.451   5.075  16.970  0.00  0.00    +0.000 A 
ATOM     13  F   UNL     1       4.587   4.676  16.025  0.00  0.00    +0.000 F 
ENDBRANCH   5   7
BRANCH   6  14
ATOM     14  C   UNL     1       2.449   6.057  19.080  0.00  0.00    +0.000 A 
ATOM     15  C   UNL     1       2.457   6.810  17.898  0.00  0.00    +0.000 A 
ATOM     16  C   UNL     1       2.065   8.150  17.913  0.00  0.00    +0.000 A 
ATOM     17  C   UNL     1       1.674   8.741  19.113  0.00  0.00    +0.000 A 
ATOM     18 BR   UNL     1       1.113  10.546  19.131  0.00  0.00    +0.000 Br
ATOM     19  C   UNL     1       1.685   8.009  20.299  0.00  0.00    +0.000 A 
ATOM     20  C   UNL     1       2.075   6.667  20.282  0.00  0.00    +0.000 A 
ENDBRANCH   6  14
TORSDOF 2
ENDMDL
MODEL 7
REMARK VINA RESULT:      -7.4      1.709      2.075
REMARK  Name = 
REMARK  2 active torsions:
REMARK  status: ('A' for Active; 'I' for Inactive)
REMARK    1  A    between atoms: C_5  and  C_6
REMARK    2  A    between atoms: C_13  and  C_14
REMARK                            x       y       z     vdW  Elec       q    Type
REMARK                         _______ _______ _______ _____ _____    ______ ____
ROOT
ATOM      1  O   UNL     1       1.109   3.662  20.770  0.00  0.00    +0.000 OA
ATOM      2  C   UNL     1       2.204   3.534  20.255  0.00  0.00    +0.000 C 
ATOM      3  O   UNL     1       2.923   2.374  20.233  0.00  0.00    +0.000 OA
ATOM      4  C   UNL     1       4.161   2.597  19.558  0.00  0.00    +0.000 C 
ATOM      5  C   UNL     1       4.123   4.028  19.202  0.00  0.00    +0.000 C 
ATOM      6  C   UNL     1       2.973   4.593  19.578  0.00  0.00    +0.000 C 
ENDROOT
BRANCH   5   7
ATOM      7  C   UNL     1       5.232   4.679  18.515  0.00  0.00    +0.000 A 
ATOM      8  C   UNL     1       6.206   5.366  19.250  0.00  0.00    +0.000 A 
ATOM      9  C   UNL     1       7.246   6.027  18.591  0.00  0.00    +0.000 A 
ATOM     10  C   UNL     1       7.321   6.007  17.197  0.00  0.00    +0.000 A 
ATOM     11  C   UNL     1       6.356   5.324  16.459  0.00  0.00    +0.000 A 
ATOM     12  C   UNL     1       5.321   4.666  17.120  0.00  0.00    +0.000 A 
ATOM     13  F   UNL     1       4.400   4.016  16.393  0.00  0.00    +0.000 F 
ENDBRANCH   5   7
BRANCH   6  14
ATOM     14  C   UNL     1       2.521   5.963  19.391  0.00  0.00    +0.000 A 
ATOM     15  C   UNL     1       2.090   6.717  20.490  0.00  0.00    +0.000 A 
ATOM     16  C   UNL     1       1.693   8.046  20.322  0.00  0.00    +0.000 A 
ATOM     17  C   UNL     1       1.718   8.617  19.051  0.00  0.00    +0.000 A 
ATOM     18 BR   UNL     1       1.212  10.424  18.826  0.00  0.00    +0.000 Br
ATOM     19  C   UNL     1       2.122   7.870  17.947  0.00  0.00    +0.000 A 
ATOM     20  C   UNL     1       2.522   6.542  18.117  0.00  0.00    +0.000 A 
ENDBRANCH   6  14
TORSDOF 2
ENDMDL
MODEL 8
REMARK VINA RESULT:      -7.4      2.348      4.059
REMARK  Name = 
REMARK  2 active torsions:
REMARK  status: ('A' for Active; 'I' for Inactive)
REMARK    1  A    between atoms: C_5  and  C_6
REMARK    2  A    between atoms: C_13  and  C_14
REMARK                            x       y       z     vdW  Elec       q    Type
REMARK                         _______ _______ _______ _____ _____    ______ ____
ROOT
ATOM      1  O   UNL     1       5.126   7.245  16.197  0.00  0.00    +0.000 OA
ATOM      2  C   UNL     1       4.829   6.199  16.742  0.00  0.00    +0.000 C 
ATOM      3  O   UNL     1       5.426   4.996  16.498  0.00  0.00    +0.000 OA
ATOM      4  C   UNL     1       4.814   3.990  17.306  0.00  0.00    +0.000 C 
ATOM      5  C   UNL     1       3.760   4.713  18.042  0.00  0.00    +0.000 C 
ATOM      6  C   UNL     1       3.766   6.015  17.747  0.00  0.00    +0.000 C 
ENDROOT
BRANCH   5   7
ATOM      7  C   UNL     1       2.865   4.032  18.969  0.00  0.00    +0.000 A 
ATOM      8  C   UNL     1       3.346   3.581  20.204  0.00  0.00    +0.000 A 
ATOM      9  C   UNL     1       2.500   2.890  21.077  0.00  0.00    +0.000 A 
ATOM     10  C   UNL     1       1.172   2.646  20.723  0.00  0.00    +0.000 A 
ATOM     11  C   UNL     1       0.686   3.094  19.496  0.00  0.00    +0.000 A 
ATOM     12  C   UNL     1       1.532   3.783  18.630  0.00  0.00    +0.000 A 
ATOM     13  F   UNL     1       1.047   4.204  17.452  0.00  0.00    +0.000 F 
ENDBRANCH   5   7
BRANCH   6  14
ATOM     14  C   UNL     1       2.921   7.077  18.271  0.00  0.00    +0.000 A 
ATOM     15  C   UNL     1       2.550   7.078  19.623  0.00  0.00    +0.000 A 
ATOM     16  C   UNL     1       1.772   8.117  20.139  0.00  0.00    +0.000 A 
ATOM     17  C   UNL     1       1.358   9.151  19.302  0.00  0.00    +0.000 A 
ATOM     18 BR   UNL     1       0.333  10.574  20.006  0.00  0.00    +0.000 Br
ATOM     19  C   UNL     1       1.701   9.148  17.951  0.00  0.00    +0.000 A 
ATOM     20  C   UNL     1       2.481   8.110  17.436  0.00  0.00    +0.000 A 
ENDBRANCH   6  14
TORSDOF 2
ENDMDL
MODEL 9
REMARK VINA RESULT:      -7.4      1.040      1.531
REMARK  Name = 
REMARK  2 active torsions:
REMARK  status: ('A' for Active; 'I' for Inactive)
REMARK    1  A    between atoms: C_5  and  C_6
REMARK    2  A    between atoms: C_13  and  C_14
REMARK                            x       y       z     vdW  Elec       q    Type
REMARK                         _______ _______ _______ _____ _____    ______ ____
ROOT
ATOM      1  O   UNL     1       0.761   2.971  18.870  0.00  0.00    +0.000 OA
ATOM      2  C   UNL     1       1.924   3.031  18.518  0.00  0.00    +0.000 C 
ATOM      3  O   UNL     1       2.641   1.985  18.014  0.00  0.00    +0.000 OA
ATOM      4  C   UNL     1       3.970   2.417  17.724  0.00  0.00    +0.000 C 
ATOM      5  C   UNL     1       3.986   3.833  18.139  0.00  0.00    +0.000 C 
ATOM      6  C   UNL     1       2.790   4.222  18.585  0.00  0.00    +0.000 C 
ENDROOT
BRANCH   5   7
ATOM      7  C   UNL     1       5.189   4.650  18.038  0.00  0.00    +0.000 A 
ATOM      8  C   UNL     1       5.935   4.946  19.185  0.00  0.00    +0.000 A 
ATOM      9  C   UNL     1       7.064   5.764  19.097  0.00  0.00    +0.000 A 
ATOM     10  C   UNL     1       7.456   6.292  17.866  0.00  0.00    +0.000 A 
ATOM     11  C   UNL     1       6.719   6.000  16.719  0.00  0.00    +0.000 A 
ATOM     12  C   UNL     1       5.595   5.184  16.811  0.00  0.00    +0.000 A 
ATOM     13  F   UNL     1       4.896   4.916  15.697  0.00  0.00    +0.000 F 
ENDBRANCH   5   7
BRANCH   6  14
ATOM     14  C   UNL     1       2.370   5.534  19.055  0.00  0.00    +0.000 A 
ATOM     15  C   UNL     1       1.898   5.693  20.366  0.00  0.00    +0.000 A 
ATOM     16  C   UNL     1       1.532   6.956  20.835  0.00  0.00    +0.000 A 
ATOM     17  C   UNL     1       1.629   8.060  19.990  0.00  0.00    +0.000 A 
ATOM     18 BR   UNL     1       1.164   9.776  20.632  0.00  0.00    +0.000 Br
ATOM     19  C   UNL     1       2.073   7.910  18.678  0.00  0.00    +0.000 A 
ATOM     20  C   UNL     1       2.442   6.646  18.210  0.00  0.00    +0.000 A 
ENDBRANCH   6  14
TORSDOF 2
ENDMDL
