MODEL 1
REMARK VINA RESULT:      -6.7      0.000      0.000
REMARK  Name = 
REMARK  3 active torsions:
REMARK  status: ('A' for Active; 'I' for Inactive)
REMARK    1  A    between atoms: C_2  and  C_3
REMARK    2  A    between atoms: C_2  and  C_10
REMARK    3  A    between atoms: C_3  and  N_4
REMARK                            x       y       z     vdW  Elec       q    Type
REMARK                         _______ _______ _______ _____ _____    ______ ____
ROOT
ATOM      1  O   UNL     1       6.292   5.109  19.868  0.00  0.00    +0.000 OA
ATOM      2  C   UNL     1       5.426   5.293  19.024  0.00  0.00    +0.000 C 
ENDROOT
BRANCH   2   3
ATOM      3  C   UNL     1       5.803   5.220  17.579  0.00  0.00    +0.000 A 
ATOM      4  C   UNL     1       6.973   4.535  17.196  0.00  0.00    +0.000 A 
ATOM      5  C   UNL     1       7.351   4.458  15.853  0.00  0.00    +0.000 A 
ATOM      6  C   UNL     1       6.564   5.056  14.868  0.00  0.00    +0.000 A 
ATOM      7  F   UNL     1       6.931   4.975  13.565  0.00  0.00    +0.000 F 
ATOM      8  C   UNL     1       5.399   5.738  15.228  0.00  0.00    +0.000 A 
ATOM      9  C   UNL     1       5.018   5.824  16.573  0.00  0.00    +0.000 A 
ENDBRANCH   2   3
BRANCH   2  10
ATOM     10  C   UNL     1       4.002   5.576  19.466  0.00  0.00    +0.000 C 
BRANCH  10  11
ATOM     11  N   UNL     1       3.254   4.350  19.840  0.00  0.00    +0.000 NA
ATOM     12  C   UNL     1       2.093   4.668  20.713  0.00  0.00    +0.000 C 
ATOM     13  C   UNL     1       1.359   3.384  21.124  0.00  0.00    +0.000 C 
ATOM     14  C   UNL     1       0.867   2.652  19.876  0.00  0.00    +0.000 C 
ATOM     15  C   UNL     1       2.058   2.356  18.964  0.00  0.00    +0.000 C 
ATOM     16  C   UNL     1       2.785   3.662  18.614  0.00  0.00    +0.000 C 
ENDBRANCH  10  11
ENDBRANCH   2  10
TORSDOF 3
ENDMDL
MODEL 2
REMARK VINA RESULT:      -6.7      2.460      3.188
REMARK  Name = 
REMARK  3 active torsions:
REMARK  status: ('A' for Active; 'I' for Inactive)
REMARK    1  A    between atoms: C_2  and  C_3
REMARK    2  A    between atoms: C_2  and  C_10
REMARK    3  A    between atoms: C_3  and  N_4
REMARK                            x       y       z     vdW  Elec       q    Type
REMARK                         _______ _______ _______ _____ _____    ______ ____
ROOT
ATOM      1  O   UNL     1       4.799   4.106  15.993  0.00  0.00    +0.000 OA
ATOM      2  C   UNL     1       5.125   4.167  17.170  0.00  0.00    +0.000 C 
ENDROOT
BRANCH   2   3
ATOM      3  C   UNL     1       6.100   5.219  17.593  0.00  0.00    +0.000 A 
ATOM      4  C   UNL     1       6.140   6.449  16.907  0.00  0.00    +0.000 A 
ATOM      5  C   UNL     1       7.046   7.446  17.278  0.00  0.00    +0.000 A 
ATOM      6  C   UNL     1       7.922   7.237  18.345  0.00  0.00    +0.000 A 
ATOM      7  F   UNL     1       8.796   8.208  18.705  0.00  0.00    +0.000 F 
ATOM      8  C   UNL     1       7.895   6.024  19.038  0.00  0.00    +0.000 A 
ATOM      9  C   UNL     1       6.994   5.018  18.666  0.00  0.00    +0.000 A 
ENDBRANCH   2   3
BRANCH   2  10
ATOM     10  C   UNL     1       4.527   3.186  18.162  0.00  0.00    +0.000 C 
BRANCH  10  11
ATOM     11  N   UNL     1       3.120   3.499  18.513  0.00  0.00    +0.000 NA
ATOM     12  C   UNL     1       2.305   2.262  18.644  0.00  0.00    +0.000 C 
ATOM     13  C   UNL     1       0.845   2.609  18.965  0.00  0.00    +0.000 C 
ATOM     14  C   UNL     1       0.780   3.399  20.272  0.00  0.00    +0.000 C 
ATOM     15  C   UNL     1       1.645   4.653  20.146  0.00  0.00    +0.000 C 
ATOM     16  C   UNL     1       3.084   4.260  19.785  0.00  0.00    +0.000 C 
ENDBRANCH  10  11
ENDBRANCH   2  10
TORSDOF 3
ENDMDL
MODEL 3
REMARK VINA RESULT:      -6.6      2.406      2.971
REMARK  Name = 
REMARK  3 active torsions:
REMARK  status: ('A' for Active; 'I' for Inactive)
REMARK    1  A    between atoms: C_2  and  C_3
REMARK    2  A    between atoms: C_2  and  C_10
REMARK    3  A    between atoms: C_3  and  N_4
REMARK                            x       y       z     vdW  Elec       q    Type
REMARK                         _______ _______ _______ _____ _____    ______ ____
ROOT
ATOM      1  O   UNL     1       5.241   3.445  16.247  0.00  0.00    +0.000 OA
ATOM      2  C   UNL     1       4.900   4.374  16.965  0.00  0.00    +0.000 C 
ENDROOT
BRANCH   2   3
ATOM      3  C   UNL     1       5.950   5.303  17.486  0.00  0.00    +0.000 A 
ATOM      4  C   UNL     1       6.159   6.545  16.855  0.00  0.00    +0.000 A 
ATOM      5  C   UNL     1       7.138   7.427  17.318  0.00  0.00    +0.000 A 
ATOM      6  C   UNL     1       7.920   7.090  18.424  0.00  0.00    +0.000 A 
ATOM      7  F   UNL     1       8.866   7.951  18.874  0.00  0.00    +0.000 F 
ATOM      8  C   UNL     1       7.727   5.864  19.064  0.00  0.00    +0.000 A 
ATOM      9  C   UNL     1       6.752   4.972  18.600  0.00  0.00    +0.000 A 
ENDBRANCH   2   3
BRANCH   2  10
ATOM     10  C   UNL     1       3.431   4.562  17.295  0.00  0.00    +0.000 C 
BRANCH  10  11
ATOM     11  N   UNL     1       3.065   4.046  18.638  0.00  0.00    +0.000 NA
ATOM     12  C   UNL     1       2.608   5.141  19.534  0.00  0.00    +0.000 C 
ATOM     13  C   UNL     1       2.276   4.593  20.929  0.00  0.00    +0.000 C 
ATOM     14  C   UNL     1       1.177   3.537  20.818  0.00  0.00    +0.000 C 
ATOM     15  C   UNL     1       1.636   2.430  19.870  0.00  0.00    +0.000 C 
ATOM     16  C   UNL     1       1.996   3.029  18.503  0.00  0.00    +0.000 C 
ENDBRANCH  10  11
ENDBRANCH   2  10
TORSDOF 3
ENDMDL
MODEL 4
REMARK VINA RESULT:      -6.6      0.387      1.258
REMARK  Name = 
REMARK  3 active torsions:
REMARK  status: ('A' for Active; 'I' for Inactive)
REMARK    1  A    between atoms: C_2  and  C_3
REMARK    2  A    between atoms: C_2  and  C_10
REMARK    3  A    between atoms: C_3  and  N_4
REMARK                            x       y       z     vdW  Elec       q    Type
REMARK                         _______ _______ _______ _____ _____    ______ ____
ROOT
ATOM      1  O   UNL     1       6.365   5.320  19.754  0.00  0.00    +0.000 OA
ATOM      2  C   UNL     1       5.440   5.376  18.957  0.00  0.00    +0.000 C 
ENDROOT
BRANCH   2   3
ATOM      3  C   UNL     1       5.734   5.203  17.500  0.00  0.00    +0.000 A 
ATOM      4  C   UNL     1       5.025   5.965  16.550  0.00  0.00    +0.000 A 
ATOM      5  C   UNL     1       5.276   5.817  15.184  0.00  0.00    +0.000 A 
ATOM      6  C   UNL     1       6.244   4.914  14.742  0.00  0.00    +0.000 A 
ATOM      7  F   UNL     1       6.489   4.778  13.415  0.00  0.00    +0.000 F 
ATOM      8  C   UNL     1       6.958   4.152  15.669  0.00  0.00    +0.000 A 
ATOM      9  C   UNL     1       6.707   4.290  17.040  0.00  0.00    +0.000 A 
ENDBRANCH   2   3
BRANCH   2  10
ATOM     10  C   UNL     1       4.029   5.605  19.466  0.00  0.00    +0.000 C 
BRANCH  10  11
ATOM     11  N   UNL     1       3.259   4.348  19.635  0.00  0.00    +0.000 NA
ATOM     12  C   UNL     1       2.422   4.385  20.863  0.00  0.00    +0.000 C 
ATOM     13  C   UNL     1       1.668   3.060  21.042  0.00  0.00    +0.000 C 
ATOM     14  C   UNL     1       0.774   2.809  19.828  0.00  0.00    +0.000 C 
ATOM     15  C   UNL     1       1.633   2.805  18.563  0.00  0.00    +0.000 C 
ATOM     16  C   UNL     1       2.399   4.130  18.448  0.00  0.00    +0.000 C 
ENDBRANCH  10  11
ENDBRANCH   2  10
TORSDOF 3
ENDMDL
MODEL 5
REMARK VINA RESULT:      -6.5      2.396      2.763
REMARK  Name = 
REMARK  3 active torsions:
REMARK  status: ('A' for Active; 'I' for Inactive)
REMARK    1  A    between atoms: C_2  and  C_3
REMARK    2  A    between atoms: C_2  and  C_10
REMARK    3  A    between atoms: C_3  and  N_4
REMARK                            x       y       z     vdW  Elec       q    Type
REMARK                         _______ _______ _______ _____ _____    ______ ____
ROOT
ATOM      1  O   UNL     1       5.148   3.195  16.416  0.00  0.00    +0.000 OA
ATOM      2  C   UNL     1       4.790   4.168  17.064  0.00  0.00    +0.000 C 
ENDROOT
BRANCH   2   3
ATOM      3  C   UNL     1       5.821   5.163  17.493  0.00  0.00    +0.000 A 
ATOM      4  C   UNL     1       6.738   4.825  18.507  0.00  0.00    +0.000 A 
ATOM      5  C   UNL     1       7.706   5.740  18.930  0.00  0.00    +0.000 A 
ATOM      6  C   UNL     1       7.780   7.004  18.344  0.00  0.00    +0.000 A 
ATOM      7  F   UNL     1       8.724   7.887  18.754  0.00  0.00    +0.000 F 
ATOM      8  C   UNL     1       6.880   7.357  17.336  0.00  0.00    +0.000 A 
ATOM      9  C   UNL     1       5.904   6.447  16.912  0.00  0.00    +0.000 A 
ENDBRANCH   2   3
BRANCH   2  10
ATOM     10  C   UNL     1       3.321   4.342  17.400  0.00  0.00    +0.000 C 
BRANCH  10  11
ATOM     11  N   UNL     1       3.035   4.199  18.850  0.00  0.00    +0.000 NA
ATOM     12  C   UNL     1       1.590   4.394  19.140  0.00  0.00    +0.000 C 
ATOM     13  C   UNL     1       1.322   4.285  20.647  0.00  0.00    +0.000 C 
ATOM     14  C   UNL     1       1.757   2.908  21.147  0.00  0.00    +0.000 C 
ATOM     15  C   UNL     1       3.235   2.697  20.819  0.00  0.00    +0.000 C 
ATOM     16  C   UNL     1       3.461   2.856  19.309  0.00  0.00    +0.000 C 
ENDBRANCH  10  11
ENDBRANCH   2  10
TORSDOF 3
ENDMDL
MODEL 6
REMARK VINA RESULT:      -6.5      2.134      2.900
REMARK  Name = 
REMARK  3 active torsions:
REMARK  status: ('A' for Active; 'I' for Inactive)
REMARK    1  A    between atoms: C_2  and  C_3
REMARK    2  A    between atoms: C_2  and  C_10
REMARK    3  A    between atoms: C_3  and  N_4
REMARK                            x       y       z     vdW  Elec       q    Type
REMARK                         _______ _______ _______ _____ _____    ______ ____
ROOT
ATOM      1  O   UNL     1       5.471   3.359  19.397  0.00  0.00    +0.000 OA
ATOM      2  C   UNL     1       5.180   4.143  18.504  0.00  0.00    +0.000 C 
ENDROOT
BRANCH   2   3
ATOM      3  C   UNL     1       6.057   5.334  18.280  0.00  0.00    +0.000 A 
ATOM      4  C   UNL     1       5.698   6.292  17.312  0.00  0.00    +0.000 A 
ATOM      5  C   UNL     1       6.503   7.410  17.079  0.00  0.00    +0.000 A 
ATOM      6  C   UNL     1       7.676   7.595  17.813  0.00  0.00    +0.000 A 
ATOM      7  F   UNL     1       8.452   8.684  17.587  0.00  0.00    +0.000 F 
ATOM      8  C   UNL     1       8.048   6.656  18.778  0.00  0.00    +0.000 A 
ATOM      9  C   UNL     1       7.248   5.530  19.012  0.00  0.00    +0.000 A 
ENDBRANCH   2   3
BRANCH   2  10
ATOM     10  C   UNL     1       3.954   3.880  17.650  0.00  0.00    +0.000 C 
BRANCH  10  11
ATOM     11  N   UNL     1       2.685   3.946  18.417  0.00  0.00    +0.000 NA
ATOM     12  C   UNL     1       2.213   2.589  18.803  0.00  0.00    +0.000 C 
ATOM     13  C   UNL     1       0.880   2.675  19.557  0.00  0.00    +0.000 C 
ATOM     14  C   UNL     1       1.055   3.526  20.814  0.00  0.00    +0.000 C 
ATOM     15  C   UNL     1       1.572   4.910  20.418  0.00  0.00    +0.000 C 
ATOM     16  C   UNL     1       2.883   4.771  19.632  0.00  0.00    +0.000 C 
ENDBRANCH  10  11
ENDBRANCH   2  10
TORSDOF 3
ENDMDL
MODEL 7
REMARK VINA RESULT:      -6.3      1.143      1.780
REMARK  Name = 
REMARK  3 active torsions:
REMARK  status: ('A' for Active; 'I' for Inactive)
REMARK    1  A    between atoms: C_2  and  C_3
REMARK    2  A    between atoms: C_2  and  C_10
REMARK    3  A    between atoms: C_3  and  N_4
REMARK                            x       y       z     vdW  Elec       q    Type
REMARK                         _______ _______ _______ _____ _____    ______ ____
ROOT
ATOM      1  O   UNL     1       5.968   5.410  19.363  0.00  0.00    +0.000 OA
ATOM      2  C   UNL     1       5.617   4.481  18.650  0.00  0.00    +0.000 C 
ENDROOT
BRANCH   2   3
ATOM      3  C   UNL     1       5.959   4.523  17.194  0.00  0.00    +0.000 A 
ATOM      4  C   UNL     1       4.994   4.146  16.239  0.00  0.00    +0.000 A 
ATOM      5  C   UNL     1       5.290   4.171  14.874  0.00  0.00    +0.000 A 
ATOM      6  C   UNL     1       6.551   4.578  14.438  0.00  0.00    +0.000 A 
ATOM      7  F   UNL     1       6.834   4.605  13.112  0.00  0.00    +0.000 F 
ATOM      8  C   UNL     1       7.521   4.957  15.369  0.00  0.00    +0.000 A 
ATOM      9  C   UNL     1       7.232   4.928  16.739  0.00  0.00    +0.000 A 
ENDBRANCH   2   3
BRANCH   2  10
ATOM     10  C   UNL     1       4.861   3.315  19.260  0.00  0.00    +0.000 C 
BRANCH  10  11
ATOM     11  N   UNL     1       3.644   3.734  19.999  0.00  0.00    +0.000 NA
ATOM     12  C   UNL     1       2.653   4.374  19.094  0.00  0.00    +0.000 C 
ATOM     13  C   UNL     1       1.421   4.838  19.883  0.00  0.00    +0.000 C 
ATOM     14  C   UNL     1       0.774   3.640  20.577  0.00  0.00    +0.000 C 
ATOM     15  C   UNL     1       1.805   2.964  21.482  0.00  0.00    +0.000 C 
ATOM     16  C   UNL     1       3.034   2.555  20.658  0.00  0.00    +0.000 C 
ENDBRANCH  10  11
ENDBRANCH   2  10
TORSDOF 3
ENDMDL
MODEL 8
REMARK VINA RESULT:      -6.3      2.575      3.133
REMARK  Name = 
REMARK  3 active torsions:
REMARK  status: ('A' for Active; 'I' for Inactive)
REMARK    1  A    between atoms: C_2  and  C_3
REMARK    2  A    between atoms: C_2  and  C_10
REMARK    3  A    between atoms: C_3  and  N_4
REMARK                            x       y       z     vdW  Elec       q    Type
REMARK                         _______ _______ _______ _____ _____    ______ ____
ROOT
ATOM      1  O   UNL     1       5.212   4.296  15.106  0.00  0.00    +0.000 OA
ATOM      2  C   UNL     1       5.188   4.364  16.327  0.00  0.00    +0.000 C 
ENDROOT
BRANCH   2   3
ATOM      3  C   UNL     1       6.129   5.303  17.012  0.00  0.00    +0.000 A 
ATOM      4  C   UNL     1       6.982   4.821  18.024  0.00  0.00    +0.000 A 
ATOM      5  C   UNL     1       7.866   5.678  18.684  0.00  0.00    +0.000 A 
ATOM      6  C   UNL     1       7.919   7.030  18.341  0.00  0.00    +0.000 A 
ATOM      7  F   UNL     1       8.782   7.858  18.980  0.00  0.00    +0.000 F 
ATOM      8  C   UNL     1       7.082   7.526  17.339  0.00  0.00    +0.000 A 
ATOM      9  C   UNL     1       6.190   6.673  16.678  0.00  0.00    +0.000 A 
ENDBRANCH   2   3
BRANCH   2  10
ATOM     10  C   UNL     1       4.203   3.510  17.103  0.00  0.00    +0.000 C 
BRANCH  10  11
ATOM     11  N   UNL     1       3.701   4.173  18.333  0.00  0.00    +0.000 NA
ATOM     12  C   UNL     1       2.659   5.185  18.017  0.00  0.00    +0.000 C 
ATOM     13  C   UNL     1       2.184   5.888  19.295  0.00  0.00    +0.000 C 
ATOM     14  C   UNL     1       1.610   4.857  20.266  0.00  0.00    +0.000 C 
ATOM     15  C   UNL     1       2.673   3.799  20.563  0.00  0.00    +0.000 C 
ATOM     16  C   UNL     1       3.146   3.153  19.254  0.00  0.00    +0.000 C 
ENDBRANCH  10  11
ENDBRANCH   2  10
TORSDOF 3
ENDMDL
MODEL 9
REMARK VINA RESULT:      -6.3      3.078      5.730
REMARK  Name = 
REMARK  3 active torsions:
REMARK  status: ('A' for Active; 'I' for Inactive)
REMARK    1  A    between atoms: C_2  and  C_3
REMARK    2  A    between atoms: C_2  and  C_10
REMARK    3  A    between atoms: C_3  and  N_4
REMARK                            x       y       z     vdW  Elec       q    Type
REMARK                         _______ _______ _______ _____ _____    ______ ____
ROOT
ATOM      1  O   UNL     1       2.264   8.126  18.524  0.00  0.00    +0.000 OA
ATOM      2  C   UNL     1       2.870   7.109  18.222  0.00  0.00    +0.000 C 
ENDROOT
BRANCH   2   3
ATOM      3  C   UNL     1       2.391   5.799  18.760  0.00  0.00    +0.000 A 
ATOM      4  C   UNL     1       2.495   5.530  20.139  0.00  0.00    +0.000 A 
ATOM      5  C   UNL     1       2.059   4.311  20.666  0.00  0.00    +0.000 A 
ATOM      6  C   UNL     1       1.506   3.343  19.827  0.00  0.00    +0.000 A 
ATOM      7  F   UNL     1       1.080   2.163  20.343  0.00  0.00    +0.000 F 
ATOM      8  C   UNL     1       1.393   3.591  18.458  0.00  0.00    +0.000 A 
ATOM      9  C   UNL     1       1.833   4.808  17.922  0.00  0.00    +0.000 A 
ENDBRANCH   2   3
BRANCH   2  10
ATOM     10  C   UNL     1       4.077   7.204  17.307  0.00  0.00    +0.000 C 
BRANCH  10  11
ATOM     11  N   UNL     1       4.960   6.013  17.383  0.00  0.00    +0.000 NA
ATOM     12  C   UNL     1       5.072   5.335  16.064  0.00  0.00    +0.000 C 
ATOM     13  C   UNL     1       5.954   4.084  16.173  0.00  0.00    +0.000 C 
ATOM     14  C   UNL     1       7.348   4.479  16.658  0.00  0.00    +0.000 C 
ATOM     15  C   UNL     1       7.227   5.205  17.998  0.00  0.00    +0.000 C 
ATOM     16  C   UNL     1       6.305   6.423  17.850  0.00  0.00    +0.000 C 
ENDBRANCH  10  11
ENDBRANCH   2  10
TORSDOF 3
ENDMDL
