MODEL 1
REMARK VINA RESULT:      -7.8      0.000      0.000
REMARK  Name = 
REMARK  5 active torsions:
REMARK  status: ('A' for Active; 'I' for Inactive)
REMARK    1  A    between atoms: C_1  and  O_2
REMARK    2  A    between atoms: O_2  and  C_3
REMARK    3  A    between atoms: C_6  and  C_7
REMARK    4  A    between atoms: N_12  and  C_13
REMARK    5  A    between atoms: C_13  and  C_14
REMARK                            x       y       z     vdW  Elec       q    Type
REMARK                         _______ _______ _______ _____ _____    ______ ____
ROOT
ATOM      1  C   UNL     1       7.843   8.109  18.185  0.00  0.00    +0.000 A 
ATOM      2  C   UNL     1       8.570   7.118  18.992  0.00  0.00    +0.000 A 
ATOM      3  C   UNL     1       8.101   5.871  19.023  0.00  0.00    +0.000 A 
ATOM      4  C   UNL     1       6.885   5.508  18.276  0.00  0.00    +0.000 A 
ATOM      5  O   UNL     1       6.485   4.344  18.328  0.00  0.00    +0.000 OA
ATOM      6  N   UNL     1       6.302   6.519  17.522  0.00  0.00    +0.000 N 
ATOM      7  N   UNL     1       6.785   7.830  17.488  0.00  0.00    +0.000 NA
ENDROOT
BRANCH   1  11
ATOM      8  C   UNL     1       9.497  12.090  18.290  0.00  0.00    +0.000 A 
ATOM      9  C   UNL     1       8.435  11.805  17.442  0.00  0.00    +0.000 A 
ATOM     10  C   UNL     1       7.857  10.530  17.423  0.00  0.00    +0.000 A 
ATOM     11  C   UNL     1       8.374   9.506  18.236  0.00  0.00    +0.000 A 
ATOM     12  C   UNL     1       9.445   9.798  19.088  0.00  0.00    +0.000 A 
ATOM     13  C   UNL     1      10.006  11.084  19.115  0.00  0.00    +0.000 A 
BRANCH   8  15
ATOM     14  C   UNL     1      11.054  13.565  17.298  0.00  0.00    +0.000 C 
ATOM     15  O   UNL     1       9.980  13.369  18.207  0.00  0.00    +0.000 OA
ENDBRANCH   8  15
ENDBRANCH   1  11
BRANCH   6  16
ATOM     16  C   UNL     1       5.165   6.190  16.650  0.00  0.00    +0.000 C 
BRANCH  16  17
ATOM     17  C   UNL     1       3.832   6.187  17.395  0.00  0.00    +0.000 A 
ATOM     18  C   UNL     1       3.453   7.217  18.169  0.00  0.00    +0.000 A 
ATOM     19  C   UNL     1       2.303   7.026  19.049  0.00  0.00    +0.000 A 
ATOM     20  O   UNL     1       1.700   7.986  19.521  0.00  0.00    +0.000 OA
ATOM     21  N   UNL     1       2.069   5.700  19.320  0.00  0.00    +0.000 N 
ATOM     22  C   UNL     1       1.759   5.286  20.597  0.00  0.00    +0.000 A 
ATOM     23  C   UNL     1       1.458   4.000  20.830  0.00  0.00    +0.000 A 
ATOM     24  C   UNL     1       1.178   3.141  19.698  0.00  0.00    +0.000 A 
ATOM     25  C   UNL     1       1.527   3.510  18.455  0.00  0.00    +0.000 A 
ATOM     26  C   UNL     1       2.276   4.790  18.299  0.00  0.00    +0.000 A 
ATOM     27  N   UNL     1       3.074   5.024  17.300  0.00  0.00    +0.000 NA
ENDBRANCH  16  17
ENDBRANCH   6  16
TORSDOF 4
ENDMDL
MODEL 2
REMARK VINA RESULT:      -7.8      4.458      6.105
REMARK  Name = 
REMARK  5 active torsions:
REMARK  status: ('A' for Active; 'I' for Inactive)
REMARK    1  A    between atoms: C_1  and  O_2
REMARK    2  A    between atoms: O_2  and  C_3
REMARK    3  A    between atoms: C_6  and  C_7
REMARK    4  A    between atoms: N_12  and  C_13
REMARK    5  A    between atoms: C_13  and  C_14
REMARK                            x       y       z     vdW  Elec       q    Type
REMARK                         _______ _______ _______ _____ _____    ______ ____
ROOT
ATOM      1  C   UNL     1       4.215   3.923  18.883  0.00  0.00    +0.000 A 
ATOM      2  C   UNL     1       4.565   2.688  19.601  0.00  0.00    +0.000 A 
ATOM      3  C   UNL     1       3.812   2.335  20.642  0.00  0.00    +0.000 A 
ATOM      4  C   UNL     1       2.671   3.167  21.060  0.00  0.00    +0.000 A 
ATOM      5  O   UNL     1       1.998   2.804  22.025  0.00  0.00    +0.000 OA
ATOM      6  N   UNL     1       2.415   4.292  20.286  0.00  0.00    +0.000 N 
ATOM      7  N   UNL     1       3.203   4.672  19.197  0.00  0.00    +0.000 NA
ENDROOT
BRANCH   1  11
ATOM      8  C   UNL     1       6.942   4.937  15.701  0.00  0.00    +0.000 A 
ATOM      9  C   UNL     1       5.679   4.444  15.398  0.00  0.00    +0.000 A 
ATOM     10  C   UNL     1       4.764   4.148  16.416  0.00  0.00    +0.000 A 
ATOM     11  C   UNL     1       5.129   4.308  17.764  0.00  0.00    +0.000 A 
ATOM     12  C   UNL     1       6.403   4.804  18.064  0.00  0.00    +0.000 A 
ATOM     13  C   UNL     1       7.307   5.116  17.037  0.00  0.00    +0.000 A 
BRANCH   8  15
ATOM     14  C   UNL     1       7.216   4.794  13.358  0.00  0.00    +0.000 C 
ATOM     15  O   UNL     1       7.747   5.177  14.619  0.00  0.00    +0.000 OA
ENDBRANCH   8  15
ENDBRANCH   1  11
BRANCH   6  16
ATOM     16  C   UNL     1       1.214   5.091  20.569  0.00  0.00    +0.000 C 
BRANCH  16  17
ATOM     17  C   UNL     1       1.501   6.590  20.624  0.00  0.00    +0.000 A 
ATOM     18  C   UNL     1       1.133   7.342  21.674  0.00  0.00    +0.000 A 
ATOM     19  C   UNL     1       1.203   8.794  21.534  0.00  0.00    +0.000 A 
ATOM     20  O   UNL     1       1.211   9.526  22.521  0.00  0.00    +0.000 OA
ATOM     21  N   UNL     1       1.171   9.193  20.220  0.00  0.00    +0.000 N 
ATOM     22  C   UNL     1       0.401  10.267  19.829  0.00  0.00    +0.000 A 
ATOM     23  C   UNL     1       0.441  10.691  18.557  0.00  0.00    +0.000 A 
ATOM     24  C   UNL     1       1.503  10.207  17.701  0.00  0.00    +0.000 A 
ATOM     25  C   UNL     1       2.223   9.127  18.046  0.00  0.00    +0.000 A 
ATOM     26  C   UNL     1       1.836   8.410  19.295  0.00  0.00    +0.000 A 
ATOM     27  N   UNL     1       2.084   7.149  19.490  0.00  0.00    +0.000 NA
ENDBRANCH  16  17
ENDBRANCH   6  16
TORSDOF 4
ENDMDL
MODEL 3
REMARK VINA RESULT:      -7.6      4.187      6.421
REMARK  Name = 
REMARK  5 active torsions:
REMARK  status: ('A' for Active; 'I' for Inactive)
REMARK    1  A    between atoms: C_1  and  O_2
REMARK    2  A    between atoms: O_2  and  C_3
REMARK    3  A    between atoms: C_6  and  C_7
REMARK    4  A    between atoms: N_12  and  C_13
REMARK    5  A    between atoms: C_13  and  C_14
REMARK                            x       y       z     vdW  Elec       q    Type
REMARK                         _______ _______ _______ _____ _____    ______ ____
ROOT
ATOM      1  C   UNL     1       3.725   4.780  17.865  0.00  0.00    +0.000 A 
ATOM      2  C   UNL     1       2.793   3.673  17.601  0.00  0.00    +0.000 A 
ATOM      3  C   UNL     1       1.776   3.497  18.444  0.00  0.00    +0.000 A 
ATOM      4  C   UNL     1       1.604   4.382  19.608  0.00  0.00    +0.000 A 
ATOM      5  O   UNL     1       0.650   4.189  20.362  0.00  0.00    +0.000 OA
ATOM      6  N   UNL     1       2.526   5.414  19.737  0.00  0.00    +0.000 N 
ATOM      7  N   UNL     1       3.598   5.602  18.859  0.00  0.00    +0.000 NA
ENDROOT
BRANCH   1  11
ATOM      8  C   UNL     1       6.982   5.172  15.067  0.00  0.00    +0.000 A 
ATOM      9  C   UNL     1       7.070   5.770  16.317  0.00  0.00    +0.000 A 
ATOM     10  C   UNL     1       6.040   5.620  17.255  0.00  0.00    +0.000 A 
ATOM     11  C   UNL     1       4.883   4.893  16.926  0.00  0.00    +0.000 A 
ATOM     12  C   UNL     1       4.799   4.294  15.664  0.00  0.00    +0.000 A 
ATOM     13  C   UNL     1       5.844   4.433  14.737  0.00  0.00    +0.000 A 
BRANCH   8  15
ATOM     14  C   UNL     1       7.816   5.165  12.856  0.00  0.00    +0.000 C 
ATOM     15  O   UNL     1       8.047   5.403  14.237  0.00  0.00    +0.000 OA
ENDBRANCH   8  15
ENDBRANCH   1  11
BRANCH   6  16
ATOM     16  C   UNL     1       2.334   6.411  20.800  0.00  0.00    +0.000 C 
BRANCH  16  17
ATOM     17  C   UNL     1       1.525   7.620  20.337  0.00  0.00    +0.000 A 
ATOM     18  C   UNL     1       1.800   8.254  19.186  0.00  0.00    +0.000 A 
ATOM     19  C   UNL     1       1.162   9.547  18.947  0.00  0.00    +0.000 A 
ATOM     20  O   UNL     1       1.093  10.019  17.815  0.00  0.00    +0.000 OA
ATOM     21  N   UNL     1       0.760  10.152  20.112  0.00  0.00    +0.000 N 
ATOM     22  C   UNL     1       0.968  11.499  20.314  0.00  0.00    +0.000 A 
ATOM     23  C   UNL     1       0.499  12.090  21.424  0.00  0.00    +0.000 A 
ATOM     24  C   UNL     1      -0.461  11.372  22.235  0.00  0.00    +0.000 A 
ATOM     25  C   UNL     1      -0.631  10.048  22.086  0.00  0.00    +0.000 A 
ATOM     26  C   UNL     1       0.255   9.344  21.114  0.00  0.00    +0.000 A 
ATOM     27  N   UNL     1       0.547   8.081  21.213  0.00  0.00    +0.000 NA
ENDBRANCH  16  17
ENDBRANCH   6  16
TORSDOF 4
ENDMDL
MODEL 4
REMARK VINA RESULT:      -7.5      0.574      1.111
REMARK  Name = 
REMARK  5 active torsions:
REMARK  status: ('A' for Active; 'I' for Inactive)
REMARK    1  A    between atoms: C_1  and  O_2
REMARK    2  A    between atoms: O_2  and  C_3
REMARK    3  A    between atoms: C_6  and  C_7
REMARK    4  A    between atoms: N_12  and  C_13
REMARK    5  A    between atoms: C_13  and  C_14
REMARK                            x       y       z     vdW  Elec       q    Type
REMARK                         _______ _______ _______ _____ _____    ______ ____
ROOT
ATOM      1  C   UNL     1       8.011   8.218  18.218  0.00  0.00    +0.000 A 
ATOM      2  C   UNL     1       8.677   7.269  19.123  0.00  0.00    +0.000 A 
ATOM      3  C   UNL     1       8.209   6.022  19.177  0.00  0.00    +0.000 A 
ATOM      4  C   UNL     1       7.053   5.619  18.359  0.00  0.00    +0.000 A 
ATOM      5  O   UNL     1       6.652   4.457  18.435  0.00  0.00    +0.000 OA
ATOM      6  N   UNL     1       6.526   6.591  17.517  0.00  0.00    +0.000 N 
ATOM      7  N   UNL     1       7.009   7.901  17.458  0.00  0.00    +0.000 NA
ENDROOT
BRANCH   1  11
ATOM      8  C   UNL     1       9.400  12.298  18.341  0.00  0.00    +0.000 A 
ATOM      9  C   UNL     1      10.038  11.328  19.102  0.00  0.00    +0.000 A 
ATOM     10  C   UNL     1       9.628   9.990  19.045  0.00  0.00    +0.000 A 
ATOM     11  C   UNL     1       8.535   9.618  18.243  0.00  0.00    +0.000 A 
ATOM     12  C   UNL     1       7.895  10.600  17.478  0.00  0.00    +0.000 A 
ATOM     13  C   UNL     1       8.324  11.935  17.527  0.00  0.00    +0.000 A 
BRANCH   8  15
ATOM     14  C   UNL     1      10.032  14.018  19.833  0.00  0.00    +0.000 C 
ATOM     15  O   UNL     1       9.886  13.569  18.493  0.00  0.00    +0.000 OA
ENDBRANCH   8  15
ENDBRANCH   1  11
BRANCH   6  16
ATOM     16  C   UNL     1       5.458   6.216  16.579  0.00  0.00    +0.000 C 
BRANCH  16  17
ATOM     17  C   UNL     1       4.073   6.242  17.221  0.00  0.00    +0.000 A 
ATOM     18  C   UNL     1       3.597   7.341  17.828  0.00  0.00    +0.000 A 
ATOM     19  C   UNL     1       2.391   7.206  18.641  0.00  0.00    +0.000 A 
ATOM     20  O   UNL     1       1.718   8.188  18.944  0.00  0.00    +0.000 OA
ATOM     21  N   UNL     1       2.188   5.914  19.061  0.00  0.00    +0.000 N 
ATOM     22  C   UNL     1       1.797   5.648  20.356  0.00  0.00    +0.000 A 
ATOM     23  C   UNL     1       1.528   4.387  20.728  0.00  0.00    +0.000 A 
ATOM     24  C   UNL     1       1.369   3.382  19.698  0.00  0.00    +0.000 A 
ATOM     25  C   UNL     1       1.798   3.610  18.446  0.00  0.00    +0.000 A 
ATOM     26  C   UNL     1       2.507   4.896  18.183  0.00  0.00    +0.000 A 
ATOM     27  N   UNL     1       3.370   5.041  17.221  0.00  0.00    +0.000 NA
ENDBRANCH  16  17
ENDBRANCH   6  16
TORSDOF 4
ENDMDL
MODEL 5
REMARK VINA RESULT:      -7.5      5.584      8.807
REMARK  Name = 
REMARK  5 active torsions:
REMARK  status: ('A' for Active; 'I' for Inactive)
REMARK    1  A    between atoms: C_1  and  O_2
REMARK    2  A    between atoms: O_2  and  C_3
REMARK    3  A    between atoms: C_6  and  C_7
REMARK    4  A    between atoms: N_12  and  C_13
REMARK    5  A    between atoms: C_13  and  C_14
REMARK                            x       y       z     vdW  Elec       q    Type
REMARK                         _______ _______ _______ _____ _____    ______ ____
ROOT
ATOM      1  C   UNL     1       1.481   8.435  20.207  0.00  0.00    +0.000 A 
ATOM      2  C   UNL     1       1.463   8.544  21.674  0.00  0.00    +0.000 A 
ATOM      3  C   UNL     1       0.951   9.651  22.212  0.00  0.00    +0.000 A 
ATOM      4  C   UNL     1       0.431  10.730  21.356  0.00  0.00    +0.000 A 
ATOM      5  O   UNL     1      -0.037  11.736  21.892  0.00  0.00    +0.000 OA
ATOM      6  N   UNL     1       0.470  10.502  19.986  0.00  0.00    +0.000 N 
ATOM      7  N   UNL     1       1.010   9.346  19.414  0.00  0.00    +0.000 NA
ENDROOT
BRANCH   1  11
ATOM      8  C   UNL     1       3.211   4.822  18.610  0.00  0.00    +0.000 A 
ATOM      9  C   UNL     1       3.300   6.007  17.891  0.00  0.00    +0.000 A 
ATOM     10  C   UNL     1       2.781   7.200  18.411  0.00  0.00    +0.000 A 
ATOM     11  C   UNL     1       2.124   7.204  19.654  0.00  0.00    +0.000 A 
ATOM     12  C   UNL     1       2.036   6.007  20.374  0.00  0.00    +0.000 A 
ATOM     13  C   UNL     1       2.576   4.820  19.854  0.00  0.00    +0.000 A 
BRANCH   8  15
ATOM     14  C   UNL     1       4.618   3.996  16.901  0.00  0.00    +0.000 C 
ATOM     15  O   UNL     1       3.746   3.725  17.989  0.00  0.00    +0.000 OA
ENDBRANCH   8  15
ENDBRANCH   1  11
BRANCH   6  16
ATOM     16  C   UNL     1      -0.153  11.481  19.084  0.00  0.00    +0.000 C 
BRANCH  16  17
ATOM     17  C   UNL     1      -1.523  11.032  18.580  0.00  0.00    +0.000 A 
ATOM     18  C   UNL     1      -1.670  10.395  17.407  0.00  0.00    +0.000 A 
ATOM     19  C   UNL     1      -3.022  10.239  16.877  0.00  0.00    +0.000 A 
ATOM     20  O   UNL     1      -3.271   9.403  16.013  0.00  0.00    +0.000 OA
ATOM     21  N   UNL     1      -3.893  11.167  17.393  0.00  0.00    +0.000 N 
ATOM     22  C   UNL     1      -4.802  11.808  16.579  0.00  0.00    +0.000 A 
ATOM     23  C   UNL     1      -5.698  12.654  17.112  0.00  0.00    +0.000 A 
ATOM     24  C   UNL     1      -5.883  12.649  18.547  0.00  0.00    +0.000 A 
ATOM     25  C   UNL     1      -4.974  12.077  19.354  0.00  0.00    +0.000 A 
ATOM     26  C   UNL     1      -3.743  11.520  18.721  0.00  0.00    +0.000 A 
ATOM     27  N   UNL     1      -2.617  11.397  19.359  0.00  0.00    +0.000 NA
ENDBRANCH  16  17
ENDBRANCH   6  16
TORSDOF 4
ENDMDL
MODEL 6
REMARK VINA RESULT:      -7.5      2.884      6.802
REMARK  Name = 
REMARK  5 active torsions:
REMARK  status: ('A' for Active; 'I' for Inactive)
REMARK    1  A    between atoms: C_1  and  O_2
REMARK    2  A    between atoms: O_2  and  C_3
REMARK    3  A    between atoms: C_6  and  C_7
REMARK    4  A    between atoms: N_12  and  C_13
REMARK    5  A    between atoms: C_13  and  C_14
REMARK                            x       y       z     vdW  Elec       q    Type
REMARK                         _______ _______ _______ _____ _____    ______ ____
ROOT
ATOM      1  C   UNL     1       2.202   6.618  19.611  0.00  0.00    +0.000 A 
ATOM      2  C   UNL     1       2.019   5.712  20.755  0.00  0.00    +0.000 A 
ATOM      3  C   UNL     1       2.381   4.438  20.608  0.00  0.00    +0.000 A 
ATOM      4  C   UNL     1       2.938   3.958  19.333  0.00  0.00    +0.000 A 
ATOM      5  O   UNL     1       3.264   2.775  19.238  0.00  0.00    +0.000 OA
ATOM      6  N   UNL     1       3.096   4.912  18.334  0.00  0.00    +0.000 N 
ATOM      7  N   UNL     1       2.714   6.248  18.479  0.00  0.00    +0.000 NA
ENDROOT
BRANCH   1  11
ATOM      8  C   UNL     1       0.712  10.636  20.087  0.00  0.00    +0.000 A 
ATOM      9  C   UNL     1       0.740   9.776  21.177  0.00  0.00    +0.000 A 
ATOM     10  C   UNL     1       1.258   8.481  21.053  0.00  0.00    +0.000 A 
ATOM     11  C   UNL     1       1.720   8.020  19.808  0.00  0.00    +0.000 A 
ATOM     12  C   UNL     1       1.689   8.890  18.712  0.00  0.00    +0.000 A 
ATOM     13  C   UNL     1       1.186  10.193  18.850  0.00  0.00    +0.000 A 
BRANCH   8  15
ATOM     14  C   UNL     1       0.851  12.971  19.747  0.00  0.00    +0.000 C 
ATOM     15  O   UNL     1       0.172  11.870  20.334  0.00  0.00    +0.000 OA
ENDBRANCH   8  15
ENDBRANCH   1  11
BRANCH   6  16
ATOM     16  C   UNL     1       3.768   4.528  17.084  0.00  0.00    +0.000 C 
BRANCH  16  17
ATOM     17  C   UNL     1       5.242   4.926  17.059  0.00  0.00    +0.000 A 
ATOM     18  C   UNL     1       6.204   4.103  17.506  0.00  0.00    +0.000 A 
ATOM     19  C   UNL     1       7.543   4.653  17.696  0.00  0.00    +0.000 A 
ATOM     20  O   UNL     1       8.525   3.919  17.773  0.00  0.00    +0.000 OA
ATOM     21  N   UNL     1       7.528   6.018  17.854  0.00  0.00    +0.000 N 
ATOM     22  C   UNL     1       8.307   6.624  18.815  0.00  0.00    +0.000 A 
ATOM     23  C   UNL     1       8.339   7.963  18.904  0.00  0.00    +0.000 A 
ATOM     24  C   UNL     1       7.794   8.740  17.812  0.00  0.00    +0.000 A 
ATOM     25  C   UNL     1       6.987   8.172  16.901  0.00  0.00    +0.000 A 
ATOM     26  C   UNL     1       6.619   6.740  17.103  0.00  0.00    +0.000 A 
ATOM     27  N   UNL     1       5.524   6.220  16.632  0.00  0.00    +0.000 NA
ENDBRANCH  16  17
ENDBRANCH   6  16
TORSDOF 4
ENDMDL
MODEL 7
REMARK VINA RESULT:      -7.5      9.017     12.570
REMARK  Name = 
REMARK  5 active torsions:
REMARK  status: ('A' for Active; 'I' for Inactive)
REMARK    1  A    between atoms: C_1  and  O_2
REMARK    2  A    between atoms: O_2  and  C_3
REMARK    3  A    between atoms: C_6  and  C_7
REMARK    4  A    between atoms: N_12  and  C_13
REMARK    5  A    between atoms: C_13  and  C_14
REMARK                            x       y       z     vdW  Elec       q    Type
REMARK                         _______ _______ _______ _____ _____    ______ ____
ROOT
ATOM      1  C   UNL     1      -5.328  12.553  20.314  0.00  0.00    +0.000 A 
ATOM      2  C   UNL     1      -6.685  13.047  20.034  0.00  0.00    +0.000 A 
ATOM      3  C   UNL     1      -7.446  13.404  21.067  0.00  0.00    +0.000 A 
ATOM      4  C   UNL     1      -6.940  13.296  22.445  0.00  0.00    +0.000 A 
ATOM      5  O   UNL     1      -7.674  13.640  23.373  0.00  0.00    +0.000 OA
ATOM      6  N   UNL     1      -5.632  12.849  22.587  0.00  0.00    +0.000 N 
ATOM      7  N   UNL     1      -4.829  12.467  21.508  0.00  0.00    +0.000 NA
ENDROOT
BRANCH   1  11
ATOM      8  C   UNL     1      -3.009  11.153  16.960  0.00  0.00    +0.000 A 
ATOM      9  C   UNL     1      -4.390  11.251  16.852  0.00  0.00    +0.000 A 
ATOM     10  C   UNL     1      -5.157  11.743  17.916  0.00  0.00    +0.000 A 
ATOM     11  C   UNL     1      -4.539  12.105  19.126  0.00  0.00    +0.000 A 
ATOM     12  C   UNL     1      -3.147  12.003  19.229  0.00  0.00    +0.000 A 
ATOM     13  C   UNL     1      -2.384  11.528  18.151  0.00  0.00    +0.000 A 
BRANCH   8  15
ATOM     14  C   UNL     1      -3.217  10.291  14.769  0.00  0.00    +0.000 C 
ATOM     15  O   UNL     1      -2.374  10.648  15.856  0.00  0.00    +0.000 OA
ENDBRANCH   8  15
ENDBRANCH   1  11
BRANCH   6  16
ATOM     16  C   UNL     1      -5.023  12.844  23.925  0.00  0.00    +0.000 C 
BRANCH  16  17
ATOM     17  C   UNL     1      -3.497  12.874  23.878  0.00  0.00    +0.000 A 
ATOM     18  C   UNL     1      -2.812  14.028  23.926  0.00  0.00    +0.000 A 
ATOM     19  C   UNL     1      -1.386  13.993  23.610  0.00  0.00    +0.000 A 
ATOM     20  O   UNL     1      -0.639  14.907  23.948  0.00  0.00    +0.000 OA
ATOM     21  N   UNL     1      -1.048  12.898  22.853  0.00  0.00    +0.000 N 
ATOM     22  C   UNL     1      -0.187  13.020  21.783  0.00  0.00    +0.000 A 
ATOM     23  C   UNL     1       0.193  11.929  21.102  0.00  0.00    +0.000 A 
ATOM     24  C   UNL     1      -0.069  10.628  21.680  0.00  0.00    +0.000 A 
ATOM     25  C   UNL     1      -0.949  10.489  22.686  0.00  0.00    +0.000 A 
ATOM     26  C   UNL     1      -1.693  11.706  23.124  0.00  0.00    +0.000 A 
ATOM     27  N   UNL     1      -2.860  11.651  23.695  0.00  0.00    +0.000 NA
ENDBRANCH  16  17
ENDBRANCH   6  16
TORSDOF 4
ENDMDL
MODEL 8
REMARK VINA RESULT:      -7.4      7.099     10.017
REMARK  Name = 
REMARK  5 active torsions:
REMARK  status: ('A' for Active; 'I' for Inactive)
REMARK    1  A    between atoms: C_1  and  O_2
REMARK    2  A    between atoms: O_2  and  C_3
REMARK    3  A    between atoms: C_6  and  C_7
REMARK    4  A    between atoms: N_12  and  C_13
REMARK    5  A    between atoms: C_13  and  C_14
REMARK                            x       y       z     vdW  Elec       q    Type
REMARK                         _______ _______ _______ _____ _____    ______ ____
ROOT
ATOM      1  C   UNL     1       0.015   9.890  20.867  0.00  0.00    +0.000 A 
ATOM      2  C   UNL     1      -0.058   9.584  22.304  0.00  0.00    +0.000 A 
ATOM      3  C   UNL     1      -0.788  10.385  23.078  0.00  0.00    +0.000 A 
ATOM      4  C   UNL     1      -1.491  11.546  22.506  0.00  0.00    +0.000 A 
ATOM      5  O   UNL     1      -2.158  12.261  23.254  0.00  0.00    +0.000 OA
ATOM      6  N   UNL     1      -1.378  11.717  21.131  0.00  0.00    +0.000 N 
ATOM      7  N   UNL     1      -0.609  10.883  20.313  0.00  0.00    +0.000 NA
ENDROOT
BRANCH   1  11
ATOM      8  C   UNL     1       2.653   7.423  18.512  0.00  0.00    +0.000 A 
ATOM      9  C   UNL     1       2.358   7.066  19.821  0.00  0.00    +0.000 A 
ATOM     10  C   UNL     1       1.472   7.831  20.590  0.00  0.00    +0.000 A 
ATOM     11  C   UNL     1       0.898   8.999  20.055  0.00  0.00    +0.000 A 
ATOM     12  C   UNL     1       1.199   9.354  18.735  0.00  0.00    +0.000 A 
ATOM     13  C   UNL     1       2.074   8.571  17.967  0.00  0.00    +0.000 A 
BRANCH   8  15
ATOM     14  C   UNL     1       4.122   5.579  18.669  0.00  0.00    +0.000 C 
ATOM     15  O   UNL     1       3.541   6.601  17.872  0.00  0.00    +0.000 OA
ENDBRANCH   8  15
ENDBRANCH   1  11
BRANCH   6  16
ATOM     16  C   UNL     1      -2.161  12.776  20.479  0.00  0.00    +0.000 C 
BRANCH  16  17
ATOM     17  C   UNL     1      -3.322  12.229  19.654  0.00  0.00    +0.000 A 
ATOM     18  C   UNL     1      -3.140  11.734  18.419  0.00  0.00    +0.000 A 
ATOM     19  C   UNL     1      -4.322  11.480  17.600  0.00  0.00    +0.000 A 
ATOM     20  O   UNL     1      -4.270  10.737  16.624  0.00  0.00    +0.000 OA
ATOM     21  N   UNL     1      -5.406  12.219  18.008  0.00  0.00    +0.000 N 
ATOM     22  C   UNL     1      -6.221  12.841  17.087  0.00  0.00    +0.000 A 
ATOM     23  C   UNL     1      -7.319  13.494  17.498  0.00  0.00    +0.000 A 
ATOM     24  C   UNL     1      -7.781  13.282  18.854  0.00  0.00    +0.000 A 
ATOM     25  C   UNL     1      -6.975  12.728  19.774  0.00  0.00    +0.000 A 
ATOM     26  C   UNL     1      -5.575  12.415  19.366  0.00  0.00    +0.000 A 
ATOM     27  N   UNL     1      -4.590  12.352  20.214  0.00  0.00    +0.000 NA
ENDBRANCH  16  17
ENDBRANCH   6  16
TORSDOF 4
ENDMDL
MODEL 9
REMARK VINA RESULT:      -7.4      7.765     11.581
REMARK  Name = 
REMARK  5 active torsions:
REMARK  status: ('A' for Active; 'I' for Inactive)
REMARK    1  A    between atoms: C_1  and  O_2
REMARK    2  A    between atoms: O_2  and  C_3
REMARK    3  A    between atoms: C_6  and  C_7
REMARK    4  A    between atoms: N_12  and  C_13
REMARK    5  A    between atoms: C_13  and  C_14
REMARK                            x       y       z     vdW  Elec       q    Type
REMARK                         _______ _______ _______ _____ _____    ______ ____
ROOT
ATOM      1  C   UNL     1      -4.475  12.217  19.680  0.00  0.00    +0.000 A 
ATOM      2  C   UNL     1      -5.937  12.347  19.765  0.00  0.00    +0.000 A 
ATOM      3  C   UNL     1      -6.461  12.778  20.912  0.00  0.00    +0.000 A 
ATOM      4  C   UNL     1      -5.594  13.102  22.057  0.00  0.00    +0.000 A 
ATOM      5  O   UNL     1      -6.117  13.500  23.099  0.00  0.00    +0.000 OA
ATOM      6  N   UNL     1      -4.226  12.974  21.850  0.00  0.00    +0.000 N 
ATOM      7  N   UNL     1      -3.670  12.517  20.651  0.00  0.00    +0.000 NA
ENDROOT
BRANCH   1  11
ATOM      8  C   UNL     1      -2.926  10.514  16.033  0.00  0.00    +0.000 A 
ATOM      9  C   UNL     1      -4.224  11.008  16.068  0.00  0.00    +0.000 A 
ATOM     10  C   UNL     1      -4.732  11.602  17.231  0.00  0.00    +0.000 A 
ATOM     11  C   UNL     1      -3.944  11.669  18.394  0.00  0.00    +0.000 A 
ATOM     12  C   UNL     1      -2.637  11.170  18.352  0.00  0.00    +0.000 A 
ATOM     13  C   UNL     1      -2.130  10.593  17.177  0.00  0.00    +0.000 A 
BRANCH   8  15
ATOM     14  C   UNL     1      -3.488  10.071  13.780  0.00  0.00    +0.000 C 
ATOM     15  O   UNL     1      -2.553   9.948  14.843  0.00  0.00    +0.000 OA
ENDBRANCH   8  15
ENDBRANCH   1  11
BRANCH   6  16
ATOM     16  C   UNL     1      -3.302  13.407  22.907  0.00  0.00    +0.000 C 
BRANCH  16  17
ATOM     17  C   UNL     1      -1.891  12.855  22.722  0.00  0.00    +0.000 A 
ATOM     18  C   UNL     1      -0.935  13.557  22.092  0.00  0.00    +0.000 A 
ATOM     19  C   UNL     1       0.295  12.862  21.723  0.00  0.00    +0.000 A 
ATOM     20  O   UNL     1       1.320  13.485  21.460  0.00  0.00    +0.000 OA
ATOM     21  N   UNL     1       0.118  11.503  21.633  0.00  0.00    +0.000 N 
ATOM     22  C   UNL     1       0.669  10.788  20.592  0.00  0.00    +0.000 A 
ATOM     23  C   UNL     1       0.553   9.452  20.561  0.00  0.00    +0.000 A 
ATOM     24  C   UNL     1       0.113   8.770  21.760  0.00  0.00    +0.000 A 
ATOM     25  C   UNL     1      -0.477   9.449  22.758  0.00  0.00    +0.000 A 
ATOM     26  C   UNL     1      -0.727  10.904  22.549  0.00  0.00    +0.000 A 
ATOM     27  N   UNL     1      -1.675  11.552  23.160  0.00  0.00    +0.000 NA
ENDBRANCH  16  17
ENDBRANCH   6  16
TORSDOF 4
ENDMDL
