MODEL 1
REMARK VINA RESULT:      -7.8      0.000      0.000
REMARK  Name = 
REMARK  8 active torsions:
REMARK  status: ('A' for Active; 'I' for Inactive)
REMARK    1  A    between atoms: C_1  and  O_2
REMARK    2  A    between atoms: O_2  and  C_3
REMARK    3  A    between atoms: C_6  and  C_7
REMARK    4  A    between atoms: C_10  and  S_11
REMARK    5  A    between atoms: S_11  and  C_12
REMARK    6  A    between atoms: C_12  and  C_13
REMARK    7  A    between atoms: N_15  and  C_16
REMARK    8  A    between atoms: C_20  and  C_21
REMARK                            x       y       z     vdW  Elec       q    Type
REMARK                         _______ _______ _______ _____ _____    ______ ____
ROOT
ATOM      1  C   UNL     1       2.194   3.691  21.755  0.00  0.00    +0.000 C 
ENDROOT
BRANCH   1   2
ATOM      2  C   UNL     1       1.615   4.775  20.861  0.00  0.00    +0.000 C 
ATOM      3  O   UNL     1       0.497   4.635  20.368  0.00  0.00    +0.000 OA
ATOM      4  N   UNL     1       2.466   5.853  20.653  0.00  0.00    +0.000 N 
ATOM      5  H   UNL     1       3.437   5.732  20.933  0.00  0.00    +0.000 HD
BRANCH   4   6
ATOM      6  C   UNL     1       2.179   6.999  19.880  0.00  0.00    +0.000 A 
ATOM      7  C   UNL     1       2.593   7.147  18.556  0.00  0.00    +0.000 A 
ATOM      8  C   UNL     1       2.308   8.311  17.844  0.00  0.00    +0.000 A 
ATOM      9  C   UNL     1       1.605   9.347  18.451  0.00  0.00    +0.000 A 
ATOM     10  C   UNL     1       1.163   9.220  19.776  0.00  0.00    +0.000 A 
ATOM     11  C   UNL     1       1.442   8.031  20.478  0.00  0.00    +0.000 A 
BRANCH  10  12
ATOM     12  C   UNL     1       0.419  10.348  20.447  0.00  0.00    +0.000 C 
ATOM     13  F   UNL     1       1.218  11.152  21.205  0.00  0.00    +0.000 F 
ATOM     14  F   UNL     1      -0.198  11.171  19.556  0.00  0.00    +0.000 F 
ATOM     15  F   UNL     1      -0.557   9.900  21.285  0.00  0.00    +0.000 F 
ENDBRANCH  10  12
ENDBRANCH   4   6
ENDBRANCH   1   2
BRANCH   1  16
ATOM     16  S   UNL     1       2.405   2.141  20.828  0.00  0.00    +0.000 S 
BRANCH  16  20
ATOM     17  C   UNL     1       4.274   3.591  17.475  0.00  0.00    +0.000 A 
ATOM     18  N   UNL     1       3.057   3.199  17.139  0.00  0.00    +0.000 NA
ATOM     19  N   UNL     1       2.343   2.719  18.213  0.00  0.00    +0.000 NA
ATOM     20  C   UNL     1       3.041   2.761  19.326  0.00  0.00    +0.000 A 
ATOM     21  S   UNL     1       4.611   3.409  19.156  0.00  0.00    +0.000 S 
BRANCH  17  25
ATOM     22  C   UNL     1       7.148   5.175  14.711  0.00  0.00    +0.000 A 
ATOM     23  C   UNL     1       6.418   4.026  14.411  0.00  0.00    +0.000 A 
ATOM     24  C   UNL     1       5.475   3.529  15.314  0.00  0.00    +0.000 A 
ATOM     25  C   UNL     1       5.248   4.168  16.541  0.00  0.00    +0.000 A 
ATOM     26  C   UNL     1       5.998   5.315  16.841  0.00  0.00    +0.000 A 
ATOM     27  C   UNL     1       6.943   5.814  15.932  0.00  0.00    +0.000 A 
BRANCH  22  29
ATOM     28  C   UNL     1       7.754   5.173  12.424  0.00  0.00    +0.000 C 
ATOM     29  O   UNL     1       8.058   5.549  13.761  0.00  0.00    +0.000 OA
ENDBRANCH  22  29
ENDBRANCH  17  25
ENDBRANCH  16  20
ENDBRANCH   1  16
TORSDOF 7
ENDMDL
MODEL 2
REMARK VINA RESULT:      -7.7      4.523      8.162
REMARK  Name = 
REMARK  8 active torsions:
REMARK  status: ('A' for Active; 'I' for Inactive)
REMARK    1  A    between atoms: C_1  and  O_2
REMARK    2  A    between atoms: O_2  and  C_3
REMARK    3  A    between atoms: C_6  and  C_7
REMARK    4  A    between atoms: C_10  and  S_11
REMARK    5  A    between atoms: S_11  and  C_12
REMARK    6  A    between atoms: C_12  and  C_13
REMARK    7  A    between atoms: N_15  and  C_16
REMARK    8  A    between atoms: C_20  and  C_21
REMARK                            x       y       z     vdW  Elec       q    Type
REMARK                         _______ _______ _______ _____ _____    ______ ____
ROOT
ATOM      1  C   UNL     1       2.774   2.036  18.590  0.00  0.00    +0.000 C 
ENDROOT
BRANCH   1   2
ATOM      2  C   UNL     1       3.307   2.891  17.452  0.00  0.00    +0.000 C 
ATOM      3  O   UNL     1       2.526   3.470  16.697  0.00  0.00    +0.000 OA
ATOM      4  N   UNL     1       4.692   2.904  17.352  0.00  0.00    +0.000 N 
ATOM      5  H   UNL     1       5.198   2.206  17.894  0.00  0.00    +0.000 HD
BRANCH   4   6
ATOM      6  C   UNL     1       5.449   3.621  16.400  0.00  0.00    +0.000 A 
ATOM      7  C   UNL     1       6.275   4.694  16.736  0.00  0.00    +0.000 A 
ATOM      8  C   UNL     1       6.981   5.388  15.754  0.00  0.00    +0.000 A 
ATOM      9  C   UNL     1       6.866   5.016  14.417  0.00  0.00    +0.000 A 
ATOM     10  C   UNL     1       6.056   3.932  14.052  0.00  0.00    +0.000 A 
ATOM     11  C   UNL     1       5.362   3.229  15.057  0.00  0.00    +0.000 A 
BRANCH  10  12
ATOM     12  C   UNL     1       5.911   3.537  12.603  0.00  0.00    +0.000 C 
ATOM     13  F   UNL     1       6.111   2.207  12.379  0.00  0.00    +0.000 F 
ATOM     14  F   UNL     1       4.676   3.817  12.106  0.00  0.00    +0.000 F 
ATOM     15  F   UNL     1       6.797   4.185  11.798  0.00  0.00    +0.000 F 
ENDBRANCH  10  12
ENDBRANCH   4   6
ENDBRANCH   1   2
BRANCH   1  16
ATOM     16  S   UNL     1       3.372   2.657  20.191  0.00  0.00    +0.000 S 
BRANCH  16  20
ATOM     17  C   UNL     1       2.422   6.642  19.944  0.00  0.00    +0.000 A 
ATOM     18  N   UNL     1       3.647   6.474  19.475  0.00  0.00    +0.000 NA
ATOM     19  N   UNL     1       4.042   5.156  19.496  0.00  0.00    +0.000 NA
ATOM     20  C   UNL     1       3.107   4.369  19.980  0.00  0.00    +0.000 A 
ATOM     21  S   UNL     1       1.666   5.169  20.427  0.00  0.00    +0.000 S 
BRANCH  17  25
ATOM     22  C   UNL     1       0.335  10.379  20.241  0.00  0.00    +0.000 A 
ATOM     23  C   UNL     1       0.492   9.551  21.352  0.00  0.00    +0.000 A 
ATOM     24  C   UNL     1       1.186   8.344  21.245  0.00  0.00    +0.000 A 
ATOM     25  C   UNL     1       1.732   7.935  20.020  0.00  0.00    +0.000 A 
ATOM     26  C   UNL     1       1.557   8.767  18.904  0.00  0.00    +0.000 A 
ATOM     27  C   UNL     1       0.861   9.980  19.014  0.00  0.00    +0.000 A 
BRANCH  22  29
ATOM     28  C   UNL     1      -0.938  11.664  21.765  0.00  0.00    +0.000 C 
ATOM     29  O   UNL     1      -0.383  11.521  20.464  0.00  0.00    +0.000 OA
ENDBRANCH  22  29
ENDBRANCH  17  25
ENDBRANCH  16  20
ENDBRANCH   1  16
TORSDOF 7
ENDMDL
MODEL 3
REMARK VINA RESULT:      -7.5      4.595      7.915
REMARK  Name = 
REMARK  8 active torsions:
REMARK  status: ('A' for Active; 'I' for Inactive)
REMARK    1  A    between atoms: C_1  and  O_2
REMARK    2  A    between atoms: O_2  and  C_3
REMARK    3  A    between atoms: C_6  and  C_7
REMARK    4  A    between atoms: C_10  and  S_11
REMARK    5  A    between atoms: S_11  and  C_12
REMARK    6  A    between atoms: C_12  and  C_13
REMARK    7  A    between atoms: N_15  and  C_16
REMARK    8  A    between atoms: C_20  and  C_21
REMARK                            x       y       z     vdW  Elec       q    Type
REMARK                         _______ _______ _______ _____ _____    ______ ____
ROOT
ATOM      1  C   UNL     1       3.161   2.019  18.632  0.00  0.00    +0.000 C 
ENDROOT
BRANCH   1   2
ATOM      2  C   UNL     1       3.538   2.877  17.435  0.00  0.00    +0.000 C 
ATOM      3  O   UNL     1       2.661   3.343  16.710  0.00  0.00    +0.000 OA
ATOM      4  N   UNL     1       4.907   3.025  17.253  0.00  0.00    +0.000 N 
ATOM      5  H   UNL     1       5.512   2.404  17.788  0.00  0.00    +0.000 HD
BRANCH   4   6
ATOM      6  C   UNL     1       5.532   3.775  16.234  0.00  0.00    +0.000 A 
ATOM      7  C   UNL     1       6.150   5.005  16.463  0.00  0.00    +0.000 A 
ATOM      8  C   UNL     1       6.729   5.720  15.416  0.00  0.00    +0.000 A 
ATOM      9  C   UNL     1       6.694   5.214  14.120  0.00  0.00    +0.000 A 
ATOM     10  C   UNL     1       6.093   3.973  13.862  0.00  0.00    +0.000 A 
ATOM     11  C   UNL     1       5.528   3.253  14.932  0.00  0.00    +0.000 A 
BRANCH  10  12
ATOM     12  C   UNL     1       6.033   3.429  12.456  0.00  0.00    +0.000 C 
ATOM     13  F   UNL     1       4.897   3.775  11.787  0.00  0.00    +0.000 F 
ATOM     14  F   UNL     1       7.066   3.861  11.683  0.00  0.00    +0.000 F 
ATOM     15  F   UNL     1       6.081   2.068  12.424  0.00  0.00    +0.000 F 
ENDBRANCH  10  12
ENDBRANCH   4   6
ENDBRANCH   1   2
BRANCH   1  16
ATOM     16  S   UNL     1       3.863   2.709  20.161  0.00  0.00    +0.000 S 
BRANCH  16  20
ATOM     17  C   UNL     1       2.136   6.426  19.968  0.00  0.00    +0.000 A 
ATOM     18  N   UNL     1       1.412   5.671  20.776  0.00  0.00    +0.000 NA
ATOM     19  N   UNL     1       1.935   4.406  20.922  0.00  0.00    +0.000 NA
ATOM     20  C   UNL     1       3.035   4.243  20.220  0.00  0.00    +0.000 A 
ATOM     21  S   UNL     1       3.529   5.624  19.346  0.00  0.00    +0.000 S 
BRANCH  17  25
ATOM     22  C   UNL     1       1.156  10.510  19.089  0.00  0.00    +0.000 A 
ATOM     23  C   UNL     1       0.851   9.946  20.327  0.00  0.00    +0.000 A 
ATOM     24  C   UNL     1       1.188   8.620  20.605  0.00  0.00    +0.000 A 
ATOM     25  C   UNL     1       1.832   7.826  19.646  0.00  0.00    +0.000 A 
ATOM     26  C   UNL     1       2.122   8.396  18.399  0.00  0.00    +0.000 A 
ATOM     27  C   UNL     1       1.785   9.729  18.121  0.00  0.00    +0.000 A 
BRANCH  22  29
ATOM     28  C   UNL     1      -0.199  12.287  19.865  0.00  0.00    +0.000 C 
ATOM     29  O   UNL     1       0.754  11.807  18.926  0.00  0.00    +0.000 OA
ENDBRANCH  22  29
ENDBRANCH  17  25
ENDBRANCH  16  20
ENDBRANCH   1  16
TORSDOF 7
ENDMDL
MODEL 4
REMARK VINA RESULT:      -7.5      5.125      9.320
REMARK  Name = 
REMARK  8 active torsions:
REMARK  status: ('A' for Active; 'I' for Inactive)
REMARK    1  A    between atoms: C_1  and  O_2
REMARK    2  A    between atoms: O_2  and  C_3
REMARK    3  A    between atoms: C_6  and  C_7
REMARK    4  A    between atoms: C_10  and  S_11
REMARK    5  A    between atoms: S_11  and  C_12
REMARK    6  A    between atoms: C_12  and  C_13
REMARK    7  A    between atoms: N_15  and  C_16
REMARK    8  A    between atoms: C_20  and  C_21
REMARK                            x       y       z     vdW  Elec       q    Type
REMARK                         _______ _______ _______ _____ _____    ______ ____
ROOT
ATOM      1  C   UNL     1       5.953   4.498  18.252  0.00  0.00    +0.000 C 
ENDROOT
BRANCH   1   2
ATOM      2  C   UNL     1       6.749   4.421  16.959  0.00  0.00    +0.000 C 
ATOM      3  O   UNL     1       7.978   4.382  16.993  0.00  0.00    +0.000 OA
ATOM      4  N   UNL     1       5.968   4.439  15.810  0.00  0.00    +0.000 N 
ATOM      5  H   UNL     1       4.991   4.701  15.923  0.00  0.00    +0.000 HD
BRANCH   4   6
ATOM      6  C   UNL     1       6.444   4.367  14.483  0.00  0.00    +0.000 A 
ATOM      7  C   UNL     1       7.358   5.277  13.950  0.00  0.00    +0.000 A 
ATOM      8  C   UNL     1       7.775   5.178  12.624  0.00  0.00    +0.000 A 
ATOM      9  C   UNL     1       7.279   4.164  11.809  0.00  0.00    +0.000 A 
ATOM     10  C   UNL     1       6.372   3.226  12.321  0.00  0.00    +0.000 A 
ATOM     11  C   UNL     1       5.972   3.327  13.668  0.00  0.00    +0.000 A 
BRANCH  10  12
ATOM     12  C   UNL     1       5.814   2.137  11.437  0.00  0.00    +0.000 C 
ATOM     13  F   UNL     1       5.696   0.933  12.067  0.00  0.00    +0.000 F 
ATOM     14  F   UNL     1       4.573   2.433  10.964  0.00  0.00    +0.000 F 
ATOM     15  F   UNL     1       6.591   1.909  10.343  0.00  0.00    +0.000 F 
ENDBRANCH  10  12
ENDBRANCH   4   6
ENDBRANCH   1   2
BRANCH   1  16
ATOM     16  S   UNL     1       4.212   4.062  17.959  0.00  0.00    +0.000 S 
BRANCH  16  20
ATOM     17  C   UNL     1       2.329   7.436  19.339  0.00  0.00    +0.000 A 
ATOM     18  N   UNL     1       2.949   7.736  18.210  0.00  0.00    +0.000 NA
ATOM     19  N   UNL     1       3.591   6.651  17.659  0.00  0.00    +0.000 NA
ATOM     20  C   UNL     1       3.438   5.566  18.386  0.00  0.00    +0.000 A 
ATOM     21  S   UNL     1       2.483   5.779  19.786  0.00  0.00    +0.000 S 
BRANCH  17  25
ATOM     22  C   UNL     1       0.072  10.304  21.597  0.00  0.00    +0.000 A 
ATOM     23  C   UNL     1       0.280  10.467  20.228  0.00  0.00    +0.000 A 
ATOM     24  C   UNL     1       1.004   9.519  19.502  0.00  0.00    +0.000 A 
ATOM     25  C   UNL     1       1.544   8.389  20.133  0.00  0.00    +0.000 A 
ATOM     26  C   UNL     1       1.343   8.240  21.513  0.00  0.00    +0.000 A 
ATOM     27  C   UNL     1       0.614   9.192  22.241  0.00  0.00    +0.000 A 
BRANCH  22  29
ATOM     28  C   UNL     1      -1.417  12.123  21.344  0.00  0.00    +0.000 C 
ATOM     29  O   UNL     1      -0.629  11.309  22.202  0.00  0.00    +0.000 OA
ENDBRANCH  22  29
ENDBRANCH  17  25
ENDBRANCH  16  20
ENDBRANCH   1  16
TORSDOF 7
ENDMDL
MODEL 5
REMARK VINA RESULT:      -7.4      4.720      8.472
REMARK  Name = 
REMARK  8 active torsions:
REMARK  status: ('A' for Active; 'I' for Inactive)
REMARK    1  A    between atoms: C_1  and  O_2
REMARK    2  A    between atoms: O_2  and  C_3
REMARK    3  A    between atoms: C_6  and  C_7
REMARK    4  A    between atoms: C_10  and  S_11
REMARK    5  A    between atoms: S_11  and  C_12
REMARK    6  A    between atoms: C_12  and  C_13
REMARK    7  A    between atoms: N_15  and  C_16
REMARK    8  A    between atoms: C_20  and  C_21
REMARK                            x       y       z     vdW  Elec       q    Type
REMARK                         _______ _______ _______ _____ _____    ______ ____
ROOT
ATOM      1  C   UNL     1       4.416   3.056  19.623  0.00  0.00    +0.000 C 
ENDROOT
BRANCH   1   2
ATOM      2  C   UNL     1       5.361   3.751  18.656  0.00  0.00    +0.000 C 
ATOM      3  O   UNL     1       6.230   4.510  19.081  0.00  0.00    +0.000 OA
ATOM      4  N   UNL     1       5.110   3.472  17.318  0.00  0.00    +0.000 N 
ATOM      5  H   UNL     1       4.226   3.014  17.103  0.00  0.00    +0.000 HD
BRANCH   4   6
ATOM      6  C   UNL     1       5.838   3.969  16.216  0.00  0.00    +0.000 A 
ATOM      7  C   UNL     1       6.844   4.928  16.338  0.00  0.00    +0.000 A 
ATOM      8  C   UNL     1       7.515   5.407  15.215  0.00  0.00    +0.000 A 
ATOM      9  C   UNL     1       7.184   4.933  13.948  0.00  0.00    +0.000 A 
ATOM     10  C   UNL     1       6.188   3.958  13.796  0.00  0.00    +0.000 A 
ATOM     11  C   UNL     1       5.530   3.470  14.942  0.00  0.00    +0.000 A 
BRANCH  10  12
ATOM     12  C   UNL     1       5.810   3.457  12.424  0.00  0.00    +0.000 C 
ATOM     13  F   UNL     1       5.968   2.110  12.275  0.00  0.00    +0.000 F 
ATOM     14  F   UNL     1       4.511   3.715  12.113  0.00  0.00    +0.000 F 
ATOM     15  F   UNL     1       6.555   4.028  11.439  0.00  0.00    +0.000 F 
ENDBRANCH  10  12
ENDBRANCH   4   6
ENDBRANCH   1   2
BRANCH   1  16
ATOM     16  S   UNL     1       2.716   3.071  18.979  0.00  0.00    +0.000 S 
BRANCH  16  20
ATOM     17  C   UNL     1       1.835   7.022  19.654  0.00  0.00    +0.000 A 
ATOM     18  N   UNL     1       2.303   6.902  18.423  0.00  0.00    +0.000 NA
ATOM     19  N   UNL     1       2.603   5.599  18.098  0.00  0.00    +0.000 NA
ATOM     20  C   UNL     1       2.354   4.774  19.092  0.00  0.00    +0.000 A 
ATOM     21  S   UNL     1       1.716   5.519  20.490  0.00  0.00    +0.000 S 
BRANCH  17  25
ATOM     22  C   UNL     1       0.654  10.780  21.353  0.00  0.00    +0.000 A 
ATOM     23  C   UNL     1       0.832  10.635  19.979  0.00  0.00    +0.000 A 
ATOM     24  C   UNL     1       1.202   9.403  19.437  0.00  0.00    +0.000 A 
ATOM     25  C   UNL     1       1.412   8.289  20.262  0.00  0.00    +0.000 A 
ATOM     26  C   UNL     1       1.245   8.447  21.645  0.00  0.00    +0.000 A 
ATOM     27  C   UNL     1       0.871   9.685  22.188  0.00  0.00    +0.000 A 
BRANCH  22  29
ATOM     28  C   UNL     1      -0.841  12.136  22.586  0.00  0.00    +0.000 C 
ATOM     29  O   UNL     1       0.316  12.039  21.766  0.00  0.00    +0.000 OA
ENDBRANCH  22  29
ENDBRANCH  17  25
ENDBRANCH  16  20
ENDBRANCH   1  16
TORSDOF 7
ENDMDL
MODEL 6
REMARK VINA RESULT:      -7.2      4.620      7.886
REMARK  Name = 
REMARK  8 active torsions:
REMARK  status: ('A' for Active; 'I' for Inactive)
REMARK    1  A    between atoms: C_1  and  O_2
REMARK    2  A    between atoms: O_2  and  C_3
REMARK    3  A    between atoms: C_6  and  C_7
REMARK    4  A    between atoms: C_10  and  S_11
REMARK    5  A    between atoms: S_11  and  C_12
REMARK    6  A    between atoms: C_12  and  C_13
REMARK    7  A    between atoms: N_15  and  C_16
REMARK    8  A    between atoms: C_20  and  C_21
REMARK                            x       y       z     vdW  Elec       q    Type
REMARK                         _______ _______ _______ _____ _____    ______ ____
ROOT
ATOM      1  C   UNL     1       4.061   2.403  19.611  0.00  0.00    +0.000 C 
ENDROOT
BRANCH   1   2
ATOM      2  C   UNL     1       4.982   3.281  18.780  0.00  0.00    +0.000 C 
ATOM      3  O   UNL     1       5.710   4.105  19.330  0.00  0.00    +0.000 OA
ATOM      4  N   UNL     1       4.875   3.078  17.410  0.00  0.00    +0.000 N 
ATOM      5  H   UNL     1       4.078   2.533  17.087  0.00  0.00    +0.000 HD
BRANCH   4   6
ATOM      6  C   UNL     1       5.619   3.744  16.412  0.00  0.00    +0.000 A 
ATOM      7  C   UNL     1       6.493   4.796  16.688  0.00  0.00    +0.000 A 
ATOM      8  C   UNL     1       7.183   5.440  15.663  0.00  0.00    +0.000 A 
ATOM      9  C   UNL     1       7.004   5.041  14.342  0.00  0.00    +0.000 A 
ATOM     10  C   UNL     1       6.144   3.976  14.035  0.00  0.00    +0.000 A 
ATOM     11  C   UNL     1       5.467   3.323  15.083  0.00  0.00    +0.000 A 
BRANCH  10  12
ATOM     12  C   UNL     1       5.930   3.552  12.603  0.00  0.00    +0.000 C 
ATOM     13  F   UNL     1       4.682   3.835  12.133  0.00  0.00    +0.000 F 
ATOM     14  F   UNL     1       6.796   4.154  11.745  0.00  0.00    +0.000 F 
ATOM     15  F   UNL     1       6.097   2.212  12.429  0.00  0.00    +0.000 F 
ENDBRANCH  10  12
ENDBRANCH   4   6
ENDBRANCH   1   2
BRANCH   1  16
ATOM     16  S   UNL     1       2.326   2.658  19.129  0.00  0.00    +0.000 S 
BRANCH  16  20
ATOM     17  C   UNL     1       1.851   6.712  19.548  0.00  0.00    +0.000 A 
ATOM     18  N   UNL     1       1.783   6.158  20.746  0.00  0.00    +0.000 NA
ATOM     19  N   UNL     1       1.959   4.793  20.705  0.00  0.00    +0.000 NA
ATOM     20  C   UNL     1       2.152   4.359  19.479  0.00  0.00    +0.000 A 
ATOM     21  S   UNL     1       2.157   5.579  18.285  0.00  0.00    +0.000 S 
BRANCH  17  25
ATOM     22  C   UNL     1       1.383  10.920  18.850  0.00  0.00    +0.000 A 
ATOM     23  C   UNL     1       0.917  10.328  20.023  0.00  0.00    +0.000 A 
ATOM     24  C   UNL     1       1.089   8.960  20.244  0.00  0.00    +0.000 A 
ATOM     25  C   UNL     1       1.724   8.152  19.291  0.00  0.00    +0.000 A 
ATOM     26  C   UNL     1       2.177   8.753  18.107  0.00  0.00    +0.000 A 
ATOM     27  C   UNL     1       2.006  10.128  17.888  0.00  0.00    +0.000 A 
BRANCH  22  29
ATOM     28  C   UNL     1       0.988  12.972  19.958  0.00  0.00    +0.000 C 
ATOM     29  O   UNL     1       1.135  12.260  18.737  0.00  0.00    +0.000 OA
ENDBRANCH  22  29
ENDBRANCH  17  25
ENDBRANCH  16  20
ENDBRANCH   1  16
TORSDOF 7
ENDMDL
MODEL 7
REMARK VINA RESULT:      -7.1      3.357      7.130
REMARK  Name = 
REMARK  8 active torsions:
REMARK  status: ('A' for Active; 'I' for Inactive)
REMARK    1  A    between atoms: C_1  and  O_2
REMARK    2  A    between atoms: O_2  and  C_3
REMARK    3  A    between atoms: C_6  and  C_7
REMARK    4  A    between atoms: C_10  and  S_11
REMARK    5  A    between atoms: S_11  and  C_12
REMARK    6  A    between atoms: C_12  and  C_13
REMARK    7  A    between atoms: N_15  and  C_16
REMARK    8  A    between atoms: C_20  and  C_21
REMARK                            x       y       z     vdW  Elec       q    Type
REMARK                         _______ _______ _______ _____ _____    ______ ____
ROOT
ATOM      1  C   UNL     1       2.304   1.950  18.492  0.00  0.00    +0.000 C 
ENDROOT
BRANCH   1   2
ATOM      2  C   UNL     1       2.971   2.897  17.508  0.00  0.00    +0.000 C 
ATOM      3  O   UNL     1       2.290   3.530  16.702  0.00  0.00    +0.000 OA
ATOM      4  N   UNL     1       4.357   2.926  17.599  0.00  0.00    +0.000 N 
ATOM      5  H   UNL     1       4.797   2.190  18.148  0.00  0.00    +0.000 HD
BRANCH   4   6
ATOM      6  C   UNL     1       5.223   3.722  16.818  0.00  0.00    +0.000 A 
ATOM      7  C   UNL     1       5.558   3.415  15.499  0.00  0.00    +0.000 A 
ATOM      8  C   UNL     1       6.440   4.218  14.780  0.00  0.00    +0.000 A 
ATOM      9  C   UNL     1       7.005   5.343  15.374  0.00  0.00    +0.000 A 
ATOM     10  C   UNL     1       6.675   5.686  16.694  0.00  0.00    +0.000 A 
ATOM     11  C   UNL     1       5.768   4.874  17.403  0.00  0.00    +0.000 A 
BRANCH  10  12
ATOM     12  C   UNL     1       7.299   6.892  17.351  0.00  0.00    +0.000 C 
ATOM     13  F   UNL     1       7.975   6.596  18.498  0.00  0.00    +0.000 F 
ATOM     14  F   UNL     1       8.194   7.522  16.544  0.00  0.00    +0.000 F 
ATOM     15  F   UNL     1       6.376   7.830  17.697  0.00  0.00    +0.000 F 
ENDBRANCH  10  12
ENDBRANCH   4   6
ENDBRANCH   1   2
BRANCH   1  16
ATOM     16  S   UNL     1       2.716   2.411  20.202  0.00  0.00    +0.000 S 
BRANCH  16  20
ATOM     17  C   UNL     1       2.205   6.481  20.100  0.00  0.00    +0.000 A 
ATOM     18  N   UNL     1       3.473   6.212  19.840  0.00  0.00    +0.000 NA
ATOM     19  N   UNL     1       3.733   4.861  19.828  0.00  0.00    +0.000 NA
ATOM     20  C   UNL     1       2.656   4.150  20.080  0.00  0.00    +0.000 A 
ATOM     21  S   UNL     1       1.239   5.071  20.329  0.00  0.00    +0.000 S 
BRANCH  17  25
ATOM     22  C   UNL     1       0.619  10.467  20.181  0.00  0.00    +0.000 A 
ATOM     23  C   UNL     1       1.145   9.925  19.010  0.00  0.00    +0.000 A 
ATOM     24  C   UNL     1       1.645   8.621  18.993  0.00  0.00    +0.000 A 
ATOM     25  C   UNL     1       1.637   7.833  20.153  0.00  0.00    +0.000 A 
ATOM     26  C   UNL     1       1.119   8.391  21.331  0.00  0.00    +0.000 A 
ATOM     27  C   UNL     1       0.615   9.701  21.345  0.00  0.00    +0.000 A 
BRANCH  22  29
ATOM     28  C   UNL     1      -1.221  11.935  19.947  0.00  0.00    +0.000 C 
ATOM     29  O   UNL     1       0.183  11.759  20.079  0.00  0.00    +0.000 OA
ENDBRANCH  22  29
ENDBRANCH  17  25
ENDBRANCH  16  20
ENDBRANCH   1  16
TORSDOF 7
ENDMDL
MODEL 8
REMARK VINA RESULT:      -7.1      4.663      8.841
REMARK  Name = 
REMARK  8 active torsions:
REMARK  status: ('A' for Active; 'I' for Inactive)
REMARK    1  A    between atoms: C_1  and  O_2
REMARK    2  A    between atoms: O_2  and  C_3
REMARK    3  A    between atoms: C_6  and  C_7
REMARK    4  A    between atoms: C_10  and  S_11
REMARK    5  A    between atoms: S_11  and  C_12
REMARK    6  A    between atoms: C_12  and  C_13
REMARK    7  A    between atoms: N_15  and  C_16
REMARK    8  A    between atoms: C_20  and  C_21
REMARK                            x       y       z     vdW  Elec       q    Type
REMARK                         _______ _______ _______ _____ _____    ______ ____
ROOT
ATOM      1  C   UNL     1       6.162   4.933  18.362  0.00  0.00    +0.000 C 
ENDROOT
BRANCH   1   2
ATOM      2  C   UNL     1       6.420   5.303  16.910  0.00  0.00    +0.000 C 
ATOM      3  O   UNL     1       6.663   6.470  16.605  0.00  0.00    +0.000 OA
ATOM      4  N   UNL     1       6.316   4.237  16.025  0.00  0.00    +0.000 N 
ATOM      5  H   UNL     1       5.891   3.384  16.383  0.00  0.00    +0.000 HD
BRANCH   4   6
ATOM      6  C   UNL     1       6.518   4.295  14.630  0.00  0.00    +0.000 A 
ATOM      7  C   UNL     1       7.616   4.925  14.044  0.00  0.00    +0.000 A 
ATOM      8  C   UNL     1       7.755   4.978  12.658  0.00  0.00    +0.000 A 
ATOM      9  C   UNL     1       6.791   4.402  11.836  0.00  0.00    +0.000 A 
ATOM     10  C   UNL     1       5.684   3.748  12.397  0.00  0.00    +0.000 A 
ATOM     11  C   UNL     1       5.566   3.686  13.799  0.00  0.00    +0.000 A 
BRANCH  10  12
ATOM     12  C   UNL     1       4.624   3.139  11.512  0.00  0.00    +0.000 C 
ATOM     13  F   UNL     1       4.952   1.901  11.044  0.00  0.00    +0.000 F 
ATOM     14  F   UNL     1       3.432   2.992  12.150  0.00  0.00    +0.000 F 
ATOM     15  F   UNL     1       4.372   3.897  10.409  0.00  0.00    +0.000 F 
ENDBRANCH  10  12
ENDBRANCH   4   6
ENDBRANCH   1   2
BRANCH   1  16
ATOM     16  S   UNL     1       4.649   3.935  18.508  0.00  0.00    +0.000 S 
BRANCH  16  20
ATOM     17  C   UNL     1       2.182   6.901  19.906  0.00  0.00    +0.000 A 
ATOM     18  N   UNL     1       2.008   5.825  20.655  0.00  0.00    +0.000 NA
ATOM     19  N   UNL     1       2.819   4.781  20.272  0.00  0.00    +0.000 NA
ATOM     20  C   UNL     1       3.579   5.098  19.247  0.00  0.00    +0.000 A 
ATOM     21  S   UNL     1       3.381   6.698  18.684  0.00  0.00    +0.000 S 
BRANCH  17  25
ATOM     22  C   UNL     1       0.030  10.560  20.534  0.00  0.00    +0.000 A 
ATOM     23  C   UNL     1       0.152   9.612  21.549  0.00  0.00    +0.000 A 
ATOM     24  C   UNL     1       0.867   8.432  21.336  0.00  0.00    +0.000 A 
ATOM     25  C   UNL     1       1.470   8.170  20.098  0.00  0.00    +0.000 A 
ATOM     26  C   UNL     1       1.331   9.122  19.077  0.00  0.00    +0.000 A 
ATOM     27  C   UNL     1       0.613  10.308  19.293  0.00  0.00    +0.000 A 
BRANCH  22  29
ATOM     28  C   UNL     1      -0.088  12.920  20.637  0.00  0.00    +0.000 C 
ATOM     29  O   UNL     1      -0.714  11.662  20.853  0.00  0.00    +0.000 OA
ENDBRANCH  22  29
ENDBRANCH  17  25
ENDBRANCH  16  20
ENDBRANCH   1  16
TORSDOF 7
ENDMDL
MODEL 9
REMARK VINA RESULT:      -7.0      5.876     10.825
REMARK  Name = 
REMARK  8 active torsions:
REMARK  status: ('A' for Active; 'I' for Inactive)
REMARK    1  A    between atoms: C_1  and  O_2
REMARK    2  A    between atoms: O_2  and  C_3
REMARK    3  A    between atoms: C_6  and  C_7
REMARK    4  A    between atoms: C_10  and  S_11
REMARK    5  A    between atoms: S_11  and  C_12
REMARK    6  A    between atoms: C_12  and  C_13
REMARK    7  A    between atoms: N_15  and  C_16
REMARK    8  A    between atoms: C_20  and  C_21
REMARK                            x       y       z     vdW  Elec       q    Type
REMARK                         _______ _______ _______ _____ _____    ______ ____
ROOT
ATOM      1  C   UNL     1       1.480   8.419  20.093  0.00  0.00    +0.000 C 
ENDROOT
BRANCH   1   2
ATOM      2  C   UNL     1       2.119   7.095  19.709  0.00  0.00    +0.000 C 
ATOM      3  O   UNL     1       2.044   6.130  20.467  0.00  0.00    +0.000 OA
ATOM      4  N   UNL     1       2.790   7.121  18.492  0.00  0.00    +0.000 N 
ATOM      5  H   UNL     1       2.964   8.037  18.083  0.00  0.00    +0.000 HD
BRANCH   4   6
ATOM      6  C   UNL     1       3.459   6.034  17.890  0.00  0.00    +0.000 A 
ATOM      7  C   UNL     1       2.841   4.810  17.627  0.00  0.00    +0.000 A 
ATOM      8  C   UNL     1       3.554   3.758  17.056  0.00  0.00    +0.000 A 
ATOM      9  C   UNL     1       4.901   3.915  16.742  0.00  0.00    +0.000 A 
ATOM     10  C   UNL     1       5.545   5.138  16.981  0.00  0.00    +0.000 A 
ATOM     11  C   UNL     1       4.807   6.199  17.542  0.00  0.00    +0.000 A 
BRANCH  10  12
ATOM     12  C   UNL     1       7.010   5.308  16.662  0.00  0.00    +0.000 C 
ATOM     13  F   UNL     1       7.294   5.195  15.333  0.00  0.00    +0.000 F 
ATOM     14  F   UNL     1       7.490   6.522  17.044  0.00  0.00    +0.000 F 
ATOM     15  F   UNL     1       7.787   4.381  17.287  0.00  0.00    +0.000 F 
ENDBRANCH  10  12
ENDBRANCH   4   6
ENDBRANCH   1   2
BRANCH   1  16
ATOM     16  S   UNL     1       1.482   8.630  21.899  0.00  0.00    +0.000 S 
BRANCH  16  20
ATOM     17  C   UNL     1      -0.843  11.946  22.560  0.00  0.00    +0.000 A 
ATOM     18  N   UNL     1       0.124  12.275  21.721  0.00  0.00    +0.000 NA
ATOM     19  N   UNL     1       0.944  11.210  21.420  0.00  0.00    +0.000 NA
ATOM     20  C   UNL     1       0.572  10.112  22.040  0.00  0.00    +0.000 A 
ATOM     21  S   UNL     1      -0.816  10.285  23.020  0.00  0.00    +0.000 S 
BRANCH  17  25
ATOM     22  C   UNL     1      -3.932  14.621  23.870  0.00  0.00    +0.000 A 
ATOM     23  C   UNL     1      -4.241  13.411  23.253  0.00  0.00    +0.000 A 
ATOM     24  C   UNL     1      -3.227  12.542  22.844  0.00  0.00    +0.000 A 
ATOM     25  C   UNL     1      -1.878  12.872  23.037  0.00  0.00    +0.000 A 
ATOM     26  C   UNL     1      -1.575  14.098  23.645  0.00  0.00    +0.000 A 
ATOM     27  C   UNL     1      -2.595  14.969  24.057  0.00  0.00    +0.000 A 
BRANCH  22  29
ATOM     28  C   UNL     1      -6.271  14.944  23.732  0.00  0.00    +0.000 C 
ATOM     29  O   UNL     1      -5.008  15.397  24.202  0.00  0.00    +0.000 OA
ENDBRANCH  22  29
ENDBRANCH  17  25
ENDBRANCH  16  20
ENDBRANCH   1  16
TORSDOF 7
ENDMDL
