MODEL 1
REMARK VINA RESULT:      -8.1      0.000      0.000
REMARK  Name = 
REMARK  3 active torsions:
REMARK  status: ('A' for Active; 'I' for Inactive)
REMARK    1  A    between atoms: C_1  and  C_2
REMARK    2  A    between atoms: C_6  and  C_7
REMARK    3  A    between atoms: C_11  and  C_12
REMARK                            x       y       z     vdW  Elec       q    Type
REMARK                         _______ _______ _______ _____ _____    ______ ____
ROOT
ATOM      1  C   UNL     1       2.435   7.226  19.235  0.00  0.00    +0.000 C 
ATOM      2  C   UNL     1       2.681   5.718  19.208  0.00  0.00    +0.000 C 
ATOM      3  C   UNL     1       4.151   5.412  19.537  0.00  0.00    +0.000 C 
ATOM      4  N   UNL     1       4.427   3.966  19.429  0.00  0.00    +0.000 NA
ATOM      5  C   UNL     1       3.604   3.238  20.417  0.00  0.00    +0.000 C 
ATOM      6  C   UNL     1       2.102   3.466  20.151  0.00  0.00    +0.000 C 
ATOM      7  C   UNL     1       1.238   2.709  21.161  0.00  0.00    +0.000 C 
ATOM      8  C   UNL     1       1.837   2.979  18.712  0.00  0.00    +0.000 C 
ATOM      9  N   UNL     1       2.686   3.709  17.750  0.00  0.00    +0.000 NA
ATOM     10  C   UNL     1       2.373   5.149  17.812  0.00  0.00    +0.000 C 
ATOM     11  C   UNL     1       4.118   3.473  18.065  0.00  0.00    +0.000 C 
ATOM     12  C   UNL     1       1.798   4.981  20.234  0.00  0.00    +0.000 C 
ENDROOT
BRANCH  11  13
ATOM     13  C   UNL     1       5.080   3.990  16.972  0.00  0.00    +0.000 A 
ATOM     14  C   UNL     1       4.690   4.062  15.620  0.00  0.00    +0.000 A 
ATOM     15  C   UNL     1       5.579   4.500  14.634  0.00  0.00    +0.000 A 
ATOM     16  C   UNL     1       6.859   4.907  14.992  0.00  0.00    +0.000 A 
ATOM     17  F   UNL     1       7.711   5.318  14.048  0.00  0.00    +0.000 F 
ATOM     18  C   UNL     1       7.255   4.899  16.323  0.00  0.00    +0.000 A 
ATOM     19  C   UNL     1       6.368   4.454  17.308  0.00  0.00    +0.000 A 
ENDBRANCH  11  13
TORSDOF 1
ENDMDL
MODEL 2
REMARK VINA RESULT:      -8.1      0.071      1.109
REMARK  Name = 
REMARK  3 active torsions:
REMARK  status: ('A' for Active; 'I' for Inactive)
REMARK    1  A    between atoms: C_1  and  C_2
REMARK    2  A    between atoms: C_6  and  C_7
REMARK    3  A    between atoms: C_11  and  C_12
REMARK                            x       y       z     vdW  Elec       q    Type
REMARK                         _______ _______ _______ _____ _____    ______ ____
ROOT
ATOM      1  C   UNL     1       2.503   7.233  19.188  0.00  0.00    +0.000 C 
ATOM      2  C   UNL     1       2.718   5.720  19.172  0.00  0.00    +0.000 C 
ATOM      3  C   UNL     1       4.178   5.385  19.519  0.00  0.00    +0.000 C 
ATOM      4  N   UNL     1       4.425   3.934  19.421  0.00  0.00    +0.000 NA
ATOM      5  C   UNL     1       3.577   3.228  20.404  0.00  0.00    +0.000 C 
ATOM      6  C   UNL     1       2.082   3.485  20.120  0.00  0.00    +0.000 C 
ATOM      7  C   UNL     1       1.192   2.751  21.124  0.00  0.00    +0.000 C 
ATOM      8  C   UNL     1       1.823   2.996  18.680  0.00  0.00    +0.000 C 
ATOM      9  N   UNL     1       2.698   3.704  17.724  0.00  0.00    +0.000 NA
ATOM     10  C   UNL     1       2.414   5.150  17.775  0.00  0.00    +0.000 C 
ATOM     11  C   UNL     1       4.120   3.439  18.056  0.00  0.00    +0.000 C 
ATOM     12  C   UNL     1       1.809   5.007  20.191  0.00  0.00    +0.000 C 
ENDROOT
BRANCH  11  13
ATOM     13  C   UNL     1       5.105   3.931  16.971  0.00  0.00    +0.000 A 
ATOM     14  C   UNL     1       6.401   4.376  17.300  0.00  0.00    +0.000 A 
ATOM     15  C   UNL     1       7.273   4.850  16.315  0.00  0.00    +0.000 A 
ATOM     16  C   UNL     1       6.874   4.851  14.984  0.00  0.00    +0.000 A 
ATOM     17  F   UNL     1       7.705   5.313  14.044  0.00  0.00    +0.000 F 
ATOM     18  C   UNL     1       5.623   4.368  14.622  0.00  0.00    +0.000 A 
ATOM     19  C   UNL     1       4.749   3.901  15.608  0.00  0.00    +0.000 A 
ENDBRANCH  11  13
TORSDOF 1
ENDMDL
MODEL 3
REMARK VINA RESULT:      -7.7      2.005      2.467
REMARK  Name = 
REMARK  3 active torsions:
REMARK  status: ('A' for Active; 'I' for Inactive)
REMARK    1  A    between atoms: C_1  and  C_2
REMARK    2  A    between atoms: C_6  and  C_7
REMARK    3  A    between atoms: C_11  and  C_12
REMARK                            x       y       z     vdW  Elec       q    Type
REMARK                         _______ _______ _______ _____ _____    ______ ____
ROOT
ATOM      1  C   UNL     1       1.666   6.573  20.645  0.00  0.00    +0.000 C 
ATOM      2  C   UNL     1       2.180   5.411  19.795  0.00  0.00    +0.000 C 
ATOM      3  C   UNL     1       3.474   4.841  20.398  0.00  0.00    +0.000 C 
ATOM      4  N   UNL     1       4.032   3.777  19.541  0.00  0.00    +0.000 NA
ATOM      5  C   UNL     1       3.067   2.661  19.460  0.00  0.00    +0.000 C 
ATOM      6  C   UNL     1       1.736   3.134  18.839  0.00  0.00    +0.000 C 
ATOM      7  C   UNL     1       0.730   1.986  18.739  0.00  0.00    +0.000 C 
ATOM      8  C   UNL     1       2.082   3.698  17.447  0.00  0.00    +0.000 C 
ATOM      9  N   UNL     1       3.061   4.797  17.557  0.00  0.00    +0.000 NA
ATOM     10  C   UNL     1       2.486   5.889  18.364  0.00  0.00    +0.000 C 
ATOM     11  C   UNL     1       4.312   4.292  18.178  0.00  0.00    +0.000 C 
ATOM     12  C   UNL     1       1.148   4.270  19.711  0.00  0.00    +0.000 C 
ENDROOT
BRANCH  11  13
ATOM     13  C   UNL     1       5.481   5.301  18.111  0.00  0.00    +0.000 A 
ATOM     14  C   UNL     1       6.630   5.151  18.913  0.00  0.00    +0.000 A 
ATOM     15  C   UNL     1       7.668   6.087  18.870  0.00  0.00    +0.000 A 
ATOM     16  C   UNL     1       7.586   7.166  17.998  0.00  0.00    +0.000 A 
ATOM     17  F   UNL     1       8.574   8.065  17.964  0.00  0.00    +0.000 F 
ATOM     18  C   UNL     1       6.491   7.312  17.156  0.00  0.00    +0.000 A 
ATOM     19  C   UNL     1       5.451   6.380  17.205  0.00  0.00    +0.000 A 
ENDBRANCH  11  13
TORSDOF 1
ENDMDL
MODEL 4
REMARK VINA RESULT:      -7.6      2.967      5.762
REMARK  Name = 
REMARK  3 active torsions:
REMARK  status: ('A' for Active; 'I' for Inactive)
REMARK    1  A    between atoms: C_1  and  C_2
REMARK    2  A    between atoms: C_6  and  C_7
REMARK    3  A    between atoms: C_11  and  C_12
REMARK                            x       y       z     vdW  Elec       q    Type
REMARK                         _______ _______ _______ _____ _____    ______ ____
ROOT
ATOM      1  C   UNL     1       7.690   5.871  19.018  0.00  0.00    +0.000 C 
ATOM      2  C   UNL     1       6.591   5.569  18.000  0.00  0.00    +0.000 C 
ATOM      3  C   UNL     1       5.894   6.869  17.568  0.00  0.00    +0.000 C 
ATOM      4  N   UNL     1       4.772   6.587  16.652  0.00  0.00    +0.000 NA
ATOM      5  C   UNL     1       5.293   5.950  15.425  0.00  0.00    +0.000 C 
ATOM      6  C   UNL     1       5.993   4.616  15.757  0.00  0.00    +0.000 C 
ATOM      7  C   UNL     1       6.528   3.940  14.494  0.00  0.00    +0.000 C 
ATOM      8  C   UNL     1       4.940   3.736  16.460  0.00  0.00    +0.000 C 
ATOM      9  N   UNL     1       4.423   4.406  17.670  0.00  0.00    +0.000 NA
ATOM     10  C   UNL     1       5.532   4.637  18.615  0.00  0.00    +0.000 C 
ATOM     11  C   UNL     1       3.780   5.690  17.295  0.00  0.00    +0.000 C 
ATOM     12  C   UNL     1       7.158   4.888  16.739  0.00  0.00    +0.000 C 
ENDROOT
BRANCH  11  13
ATOM     13  C   UNL     1       2.995   6.345  18.454  0.00  0.00    +0.000 A 
ATOM     14  C   UNL     1       2.650   5.619  19.612  0.00  0.00    +0.000 A 
ATOM     15  C   UNL     1       1.910   6.211  20.641  0.00  0.00    +0.000 A 
ATOM     16  C   UNL     1       1.537   7.546  20.541  0.00  0.00    +0.000 A 
ATOM     17  F   UNL     1       0.823   8.108  21.521  0.00  0.00    +0.000 F 
ATOM     18  C   UNL     1       1.909   8.302  19.437  0.00  0.00    +0.000 A 
ATOM     19  C   UNL     1       2.642   7.708  18.406  0.00  0.00    +0.000 A 
ENDBRANCH  11  13
TORSDOF 1
ENDMDL
MODEL 5
REMARK VINA RESULT:      -7.6      2.933      5.736
REMARK  Name = 
REMARK  3 active torsions:
REMARK  status: ('A' for Active; 'I' for Inactive)
REMARK    1  A    between atoms: C_1  and  C_2
REMARK    2  A    between atoms: C_6  and  C_7
REMARK    3  A    between atoms: C_11  and  C_12
REMARK                            x       y       z     vdW  Elec       q    Type
REMARK                         _______ _______ _______ _____ _____    ______ ____
ROOT
ATOM      1  C   UNL     1       7.603   5.722  19.089  0.00  0.00    +0.000 C 
ATOM      2  C   UNL     1       6.504   5.473  18.055  0.00  0.00    +0.000 C 
ATOM      3  C   UNL     1       5.814   6.795  17.682  0.00  0.00    +0.000 C 
ATOM      4  N   UNL     1       4.692   6.560  16.752  0.00  0.00    +0.000 NA
ATOM      5  C   UNL     1       5.212   5.977  15.498  0.00  0.00    +0.000 C 
ATOM      6  C   UNL     1       5.906   4.626  15.771  0.00  0.00    +0.000 C 
ATOM      7  C   UNL     1       6.440   4.005  14.479  0.00  0.00    +0.000 C 
ATOM      8  C   UNL     1       4.847   3.720  16.431  0.00  0.00    +0.000 C 
ATOM      9  N   UNL     1       4.331   4.337  17.669  0.00  0.00    +0.000 NA
ATOM     10  C   UNL     1       5.439   4.519  18.626  0.00  0.00    +0.000 C 
ATOM     11  C   UNL     1       3.695   5.640  17.352  0.00  0.00    +0.000 C 
ATOM     12  C   UNL     1       7.070   4.848  16.766  0.00  0.00    +0.000 C 
ENDROOT
BRANCH  11  13
ATOM     13  C   UNL     1       2.910   6.245  18.539  0.00  0.00    +0.000 A 
ATOM     14  C   UNL     1       2.516   7.598  18.548  0.00  0.00    +0.000 A 
ATOM     15  C   UNL     1       1.836   8.144  19.640  0.00  0.00    +0.000 A 
ATOM     16  C   UNL     1       1.508   7.335  20.723  0.00  0.00    +0.000 A 
ATOM     17  F   UNL     1       0.866   7.860  21.770  0.00  0.00    +0.000 F 
ATOM     18  C   UNL     1       1.835   5.985  20.719  0.00  0.00    +0.000 A 
ATOM     19  C   UNL     1       2.522   5.442  19.629  0.00  0.00    +0.000 A 
ENDBRANCH  11  13
TORSDOF 1
ENDMDL
MODEL 6
REMARK VINA RESULT:      -7.5      1.981      2.254
REMARK  Name = 
REMARK  3 active torsions:
REMARK  status: ('A' for Active; 'I' for Inactive)
REMARK    1  A    between atoms: C_1  and  C_2
REMARK    2  A    between atoms: C_6  and  C_7
REMARK    3  A    between atoms: C_11  and  C_12
REMARK                            x       y       z     vdW  Elec       q    Type
REMARK                         _______ _______ _______ _____ _____    ______ ____
ROOT
ATOM      1  C   UNL     1       1.658   6.433  20.717  0.00  0.00    +0.000 C 
ATOM      2  C   UNL     1       2.175   5.302  19.828  0.00  0.00    +0.000 C 
ATOM      3  C   UNL     1       3.495   4.746  20.386  0.00  0.00    +0.000 C 
ATOM      4  N   UNL     1       4.053   3.713  19.492  0.00  0.00    +0.000 NA
ATOM      5  C   UNL     1       3.110   2.579  19.409  0.00  0.00    +0.000 C 
ATOM      6  C   UNL     1       1.754   3.037  18.833  0.00  0.00    +0.000 C 
ATOM      7  C   UNL     1       0.770   1.870  18.731  0.00  0.00    +0.000 C 
ATOM      8  C   UNL     1       2.053   3.639  17.445  0.00  0.00    +0.000 C 
ATOM      9  N   UNL     1       3.012   4.756  17.556  0.00  0.00    +0.000 NA
ATOM     10  C   UNL     1       2.435   5.818  18.402  0.00  0.00    +0.000 C 
ATOM     11  C   UNL     1       4.288   4.264  18.135  0.00  0.00    +0.000 C 
ATOM     12  C   UNL     1       1.165   4.141  19.744  0.00  0.00    +0.000 C 
ENDROOT
BRANCH  11  13
ATOM     13  C   UNL     1       5.434   5.299  18.062  0.00  0.00    +0.000 A 
ATOM     14  C   UNL     1       5.381   6.397  17.180  0.00  0.00    +0.000 A 
ATOM     15  C   UNL     1       6.437   7.309  17.098  0.00  0.00    +0.000 A 
ATOM     16  C   UNL     1       7.545   7.156  17.924  0.00  0.00    +0.000 A 
ATOM     17  F   UNL     1       8.558   8.023  17.839  0.00  0.00    +0.000 F 
ATOM     18  C   UNL     1       7.603   6.116  18.842  0.00  0.00    +0.000 A 
ATOM     19  C   UNL     1       6.549   5.200  18.918  0.00  0.00    +0.000 A 
ENDBRANCH  11  13
TORSDOF 1
ENDMDL
MODEL 7
REMARK VINA RESULT:      -7.4      2.784      5.553
REMARK  Name = 
REMARK  3 active torsions:
REMARK  status: ('A' for Active; 'I' for Inactive)
REMARK    1  A    between atoms: C_1  and  C_2
REMARK    2  A    between atoms: C_6  and  C_7
REMARK    3  A    between atoms: C_11  and  C_12
REMARK                            x       y       z     vdW  Elec       q    Type
REMARK                         _______ _______ _______ _____ _____    ______ ____
ROOT
ATOM      1  C   UNL     1       6.526   4.290  14.943  0.00  0.00    +0.000 C 
ATOM      2  C   UNL     1       6.323   5.046  16.256  0.00  0.00    +0.000 C 
ATOM      3  C   UNL     1       6.374   4.072  17.445  0.00  0.00    +0.000 C 
ATOM      4  N   UNL     1       6.091   4.771  18.713  0.00  0.00    +0.000 NA
ATOM      5  C   UNL     1       7.133   5.793  18.948  0.00  0.00    +0.000 C 
ATOM      6  C   UNL     1       7.141   6.836  17.812  0.00  0.00    +0.000 C 
ATOM      7  C   UNL     1       8.208   7.906  18.048  0.00  0.00    +0.000 C 
ATOM      8  C   UNL     1       5.728   7.452  17.777  0.00  0.00    +0.000 C 
ATOM      9  N   UNL     1       4.708   6.407  17.561  0.00  0.00    +0.000 NA
ATOM     10  C   UNL     1       4.951   5.744  16.266  0.00  0.00    +0.000 C 
ATOM     11  C   UNL     1       4.758   5.421  18.670  0.00  0.00    +0.000 C 
ATOM     12  C   UNL     1       7.410   6.116  16.468  0.00  0.00    +0.000 C 
ENDROOT
BRANCH  11  13
ATOM     13  C   UNL     1       3.572   4.431  18.664  0.00  0.00    +0.000 A 
ATOM     14  C   UNL     1       3.618   3.222  19.388  0.00  0.00    +0.000 A 
ATOM     15  C   UNL     1       2.553   2.317  19.350  0.00  0.00    +0.000 A 
ATOM     16  C   UNL     1       1.412   2.626  18.617  0.00  0.00    +0.000 A 
ATOM     17  F   UNL     1       0.399   1.756  18.575  0.00  0.00    +0.000 F 
ATOM     18  C   UNL     1       1.315   3.833  17.938  0.00  0.00    +0.000 A 
ATOM     19  C   UNL     1       2.383   4.734  17.971  0.00  0.00    +0.000 A 
ENDBRANCH  11  13
TORSDOF 1
ENDMDL
MODEL 8
REMARK VINA RESULT:      -7.4      2.781      5.491
REMARK  Name = 
REMARK  3 active torsions:
REMARK  status: ('A' for Active; 'I' for Inactive)
REMARK    1  A    between atoms: C_1  and  C_2
REMARK    2  A    between atoms: C_6  and  C_7
REMARK    3  A    between atoms: C_11  and  C_12
REMARK                            x       y       z     vdW  Elec       q    Type
REMARK                         _______ _______ _______ _____ _____    ______ ____
ROOT
ATOM      1  C   UNL     1       6.551   4.120  14.888  0.00  0.00    +0.000 C 
ATOM      2  C   UNL     1       6.303   4.932  16.159  0.00  0.00    +0.000 C 
ATOM      3  C   UNL     1       6.350   4.018  17.394  0.00  0.00    +0.000 C 
ATOM      4  N   UNL     1       6.025   4.770  18.621  0.00  0.00    +0.000 NA
ATOM      5  C   UNL     1       7.038   5.825  18.828  0.00  0.00    +0.000 C 
ATOM      6  C   UNL     1       7.048   6.813  17.643  0.00  0.00    +0.000 C 
ATOM      7  C   UNL     1       8.085   7.918  17.850  0.00  0.00    +0.000 C 
ATOM      8  C   UNL     1       5.622   7.394  17.550  0.00  0.00    +0.000 C 
ATOM      9  N   UNL     1       4.631   6.316  17.364  0.00  0.00    +0.000 NA
ATOM     10  C   UNL     1       4.916   5.598  16.107  0.00  0.00    +0.000 C 
ATOM     11  C   UNL     1       4.679   5.386  18.519  0.00  0.00    +0.000 C 
ATOM     12  C   UNL     1       7.361   6.037  16.341  0.00  0.00    +0.000 C 
ENDROOT
BRANCH  11  13
ATOM     13  C   UNL     1       3.515   4.369  18.537  0.00  0.00    +0.000 A 
ATOM     14  C   UNL     1       2.239   4.700  18.039  0.00  0.00    +0.000 A 
ATOM     15  C   UNL     1       1.184   3.785  18.090  0.00  0.00    +0.000 A 
ATOM     16  C   UNL     1       1.401   2.512  18.607  0.00  0.00    +0.000 A 
ATOM     17  F   UNL     1       0.389   1.640  18.663  0.00  0.00    +0.000 F 
ATOM     18  C   UNL     1       2.660   2.137  19.056  0.00  0.00    +0.000 A 
ATOM     19  C   UNL     1       3.713   3.056  19.011  0.00  0.00    +0.000 A 
ENDBRANCH  11  13
TORSDOF 1
ENDMDL
MODEL 9
REMARK VINA RESULT:      -7.2      2.867      5.542
REMARK  Name = 
REMARK  3 active torsions:
REMARK  status: ('A' for Active; 'I' for Inactive)
REMARK    1  A    between atoms: C_1  and  C_2
REMARK    2  A    between atoms: C_6  and  C_7
REMARK    3  A    between atoms: C_11  and  C_12
REMARK                            x       y       z     vdW  Elec       q    Type
REMARK                         _______ _______ _______ _____ _____    ______ ____
ROOT
ATOM      1  C   UNL     1       3.542   7.593  17.814  0.00  0.00    +0.000 C 
ATOM      2  C   UNL     1       4.216   6.237  17.604  0.00  0.00    +0.000 C 
ATOM      3  C   UNL     1       3.182   5.191  17.158  0.00  0.00    +0.000 C 
ATOM      4  N   UNL     1       3.799   3.856  17.037  0.00  0.00    +0.000 NA
ATOM      5  C   UNL     1       4.847   3.896  15.996  0.00  0.00    +0.000 C 
ATOM      6  C   UNL     1       5.950   4.908  16.371  0.00  0.00    +0.000 C 
ATOM      7  C   UNL     1       7.048   4.952  15.306  0.00  0.00    +0.000 C 
ATOM      8  C   UNL     1       6.510   4.454  17.734  0.00  0.00    +0.000 C 
ATOM      9  N   UNL     1       5.439   4.404  18.748  0.00  0.00    +0.000 NA
ATOM     10  C   UNL     1       4.857   5.749  18.916  0.00  0.00    +0.000 C 
ATOM     11  C   UNL     1       4.396   3.434  18.328  0.00  0.00    +0.000 C 
ATOM     12  C   UNL     1       5.316   6.311  16.529  0.00  0.00    +0.000 C 
ENDROOT
BRANCH  11  13
ATOM     13  C   UNL     1       3.361   3.128  19.434  0.00  0.00    +0.000 A 
ATOM     14  C   UNL     1       1.981   3.316  19.223  0.00  0.00    +0.000 A 
ATOM     15  C   UNL     1       1.054   3.069  20.240  0.00  0.00    +0.000 A 
ATOM     16  C   UNL     1       1.493   2.593  21.471  0.00  0.00    +0.000 A 
ATOM     17  F   UNL     1       0.608   2.365  22.445  0.00  0.00    +0.000 F 
ATOM     18  C   UNL     1       2.842   2.345  21.691  0.00  0.00    +0.000 A 
ATOM     19  C   UNL     1       3.768   2.600  20.676  0.00  0.00    +0.000 A 
ENDBRANCH  11  13
TORSDOF 1
ENDMDL
