MODEL 1
REMARK VINA RESULT:      -9.0      0.000      0.000
REMARK  Name = 
REMARK  9 active torsions:
REMARK  status: ('A' for Active; 'I' for Inactive)
REMARK    1  A    between atoms: C_1  and  C_2
REMARK    2  A    between atoms: C_2  and  C_3
REMARK    3  A    between atoms: C_12  and  C_13
REMARK    4  A    between atoms: N_15  and  C_16
REMARK    5  A    between atoms: C_16  and  C_17
REMARK    6  A    between atoms: C_20  and  N_21
REMARK    7  A    between atoms: N_21  and  C_22
REMARK    8  A    between atoms: C_25  and  O_26
REMARK    9  A    between atoms: O_26  and  C_27
REMARK                            x       y       z     vdW  Elec       q    Type
REMARK                         _______ _______ _______ _____ _____    ______ ____
ROOT
ATOM      1  C   UNL     1       1.045   9.675  19.344  0.00  0.00    +0.000 A 
ATOM      2  C   UNL     1       1.104   8.890  20.505  0.00  0.00    +0.000 A 
ATOM      3  C   UNL     1       1.705   7.621  20.488  0.00  0.00    +0.000 A 
ATOM      4  C   UNL     1       2.278   7.115  19.317  0.00  0.00    +0.000 A 
ATOM      5  C   UNL     1       2.201   7.903  18.160  0.00  0.00    +0.000 A 
ATOM      6  C   UNL     1       1.592   9.160  18.167  0.00  0.00    +0.000 A 
ENDROOT
BRANCH   4   7
ATOM      7  N   UNL     1       2.825   5.813  19.302  0.00  0.00    +0.000 N 
ATOM      8  H   UNL     1       2.556   5.219  20.078  0.00  0.00    +0.000 HD
BRANCH   7   9
ATOM      9  C   UNL     1       3.861   5.322  18.486  0.00  0.00    +0.000 A 
ATOM     10  C   UNL     1       5.059   6.025  18.337  0.00  0.00    +0.000 A 
ATOM     11  C   UNL     1       6.004   5.610  17.389  0.00  0.00    +0.000 A 
ATOM     12  C   UNL     1       5.774   4.490  16.580  0.00  0.00    +0.000 A 
ATOM     13  C   UNL     1       4.581   3.794  16.721  0.00  0.00    +0.000 A 
ATOM     14  C   UNL     1       3.657   4.190  17.689  0.00  0.00    +0.000 A 
BRANCH  12  15
ATOM     15  O   UNL     1       6.758   4.219  15.682  0.00  0.00    +0.000 OA
BRANCH  15  16
ATOM     16  C   UNL     1       6.562   4.519  14.306  0.00  0.00    +0.000 C 
ATOM     17  F   UNL     1       7.611   5.128  13.716  0.00  0.00    +0.000 F 
ATOM     18  F   UNL     1       6.274   3.386  13.629  0.00  0.00    +0.000 F 
ATOM     19  F   UNL     1       5.500   5.350  14.205  0.00  0.00    +0.000 F 
ENDBRANCH  15  16
ENDBRANCH  12  15
ENDBRANCH   7   9
ENDBRANCH   4   7
BRANCH   1  20
ATOM     20  C   UNL     1       0.506  11.087  19.362  0.00  0.00    +0.000 C 
BRANCH  20  23
ATOM     21  C   UNL     1      -1.549  12.014  18.341  0.00  0.00    +0.000 C 
ATOM     22  O   UNL     1      -0.948  12.965  17.857  0.00  0.00    +0.000 OA
ATOM     23  N   UNL     1      -0.913  11.073  19.123  0.00  0.00    +0.000 N 
ATOM     24  H   UNL     1      -1.476  10.456  19.691  0.00  0.00    +0.000 HD
BRANCH  21  34
ATOM     25  C   UNL     1      -3.675  11.348  17.055  0.00  0.00    +0.000 A 
ATOM     26  N   UNL     1      -5.012  11.217  17.333  0.00  0.00    +0.000 NA
ATOM     27  C   UNL     1      -5.162  11.643  18.562  0.00  0.00    +0.000 A 
ATOM     28  C   UNL     1      -6.342  11.777  19.346  0.00  0.00    +0.000 A 
ATOM     29  C   UNL     1      -6.258  12.263  20.596  0.00  0.00    +0.000 A 
ATOM     30 CL   UNL     1      -7.675  12.442  21.562  0.00  0.00    +0.000 Cl
ATOM     31  C   UNL     1      -4.982  12.653  21.171  0.00  0.00    +0.000 A 
ATOM     32  C   UNL     1      -3.864  12.529  20.436  0.00  0.00    +0.000 A 
ATOM     33  N   UNL     1      -3.946  12.023  19.131  0.00  0.00    +0.000 N 
ATOM     34  C   UNL     1      -2.966  11.782  18.174  0.00  0.00    +0.000 A 
BRANCH  25  36
ATOM     35  C   UNL     1      -2.747   9.612  15.486  0.00  0.00    +0.000 C 
ATOM     36  C   UNL     1      -3.194  11.057  15.669  0.00  0.00    +0.000 C 
ENDBRANCH  25  36
ENDBRANCH  21  34
ENDBRANCH  20  23
ENDBRANCH   1  20
TORSDOF 8
ENDMDL
MODEL 2
REMARK VINA RESULT:      -8.9      5.725     11.400
REMARK  Name = 
REMARK  9 active torsions:
REMARK  status: ('A' for Active; 'I' for Inactive)
REMARK    1  A    between atoms: C_1  and  C_2
REMARK    2  A    between atoms: C_2  and  C_3
REMARK    3  A    between atoms: C_12  and  C_13
REMARK    4  A    between atoms: N_15  and  C_16
REMARK    5  A    between atoms: C_16  and  C_17
REMARK    6  A    between atoms: C_20  and  N_21
REMARK    7  A    between atoms: N_21  and  C_22
REMARK    8  A    between atoms: C_25  and  O_26
REMARK    9  A    between atoms: O_26  and  C_27
REMARK                            x       y       z     vdW  Elec       q    Type
REMARK                         _______ _______ _______ _____ _____    ______ ____
ROOT
ATOM      1  C   UNL     1       2.241   7.288  19.738  0.00  0.00    +0.000 A 
ATOM      2  C   UNL     1       1.528   7.668  20.885  0.00  0.00    +0.000 A 
ATOM      3  C   UNL     1       0.782   8.859  20.908  0.00  0.00    +0.000 A 
ATOM      4  C   UNL     1       0.716   9.686  19.784  0.00  0.00    +0.000 A 
ATOM      5  C   UNL     1       1.444   9.302  18.648  0.00  0.00    +0.000 A 
ATOM      6  C   UNL     1       2.199   8.127  18.622  0.00  0.00    +0.000 A 
ENDROOT
BRANCH   4   7
ATOM      7  N   UNL     1       0.012  10.908  19.843  0.00  0.00    +0.000 N 
ATOM      8  H   UNL     1       0.368  11.584  20.509  0.00  0.00    +0.000 HD
BRANCH   7   9
ATOM      9  C   UNL     1      -1.239  11.212  19.274  0.00  0.00    +0.000 A 
ATOM     10  C   UNL     1      -2.110  12.118  19.883  0.00  0.00    +0.000 A 
ATOM     11  C   UNL     1      -3.415  12.274  19.396  0.00  0.00    +0.000 A 
ATOM     12  C   UNL     1      -3.870  11.537  18.296  0.00  0.00    +0.000 A 
ATOM     13  C   UNL     1      -3.008  10.630  17.693  0.00  0.00    +0.000 A 
ATOM     14  C   UNL     1      -1.700  10.501  18.159  0.00  0.00    +0.000 A 
BRANCH  12  15
ATOM     15  O   UNL     1      -5.165  11.762  17.950  0.00  0.00    +0.000 OA
BRANCH  15  16
ATOM     16  C   UNL     1      -6.210  11.102  18.652  0.00  0.00    +0.000 C 
ATOM     17  F   UNL     1      -5.947   9.815  18.959  0.00  0.00    +0.000 F 
ATOM     18  F   UNL     1      -6.493  11.776  19.788  0.00  0.00    +0.000 F 
ATOM     19  F   UNL     1      -7.314  11.116  17.869  0.00  0.00    +0.000 F 
ENDBRANCH  15  16
ENDBRANCH  12  15
ENDBRANCH   7   9
ENDBRANCH   4   7
BRANCH   1  20
ATOM     20  C   UNL     1       2.957   5.960  19.648  0.00  0.00    +0.000 C 
BRANCH  20  23
ATOM     21  C   UNL     1       5.241   5.503  18.810  0.00  0.00    +0.000 C 
ATOM     22  O   UNL     1       5.597   5.020  19.877  0.00  0.00    +0.000 OA
ATOM     23  N   UNL     1       3.975   6.021  18.631  0.00  0.00    +0.000 N 
ATOM     24  H   UNL     1       3.804   6.616  17.834  0.00  0.00    +0.000 HD
BRANCH  21  34
ATOM     25  C   UNL     1       7.237   6.371  17.441  0.00  0.00    +0.000 A 
ATOM     26  N   UNL     1       7.770   6.147  16.196  0.00  0.00    +0.000 NA
ATOM     27  C   UNL     1       6.935   5.337  15.594  0.00  0.00    +0.000 A 
ATOM     28  C   UNL     1       6.963   4.813  14.272  0.00  0.00    +0.000 A 
ATOM     29  C   UNL     1       5.974   4.003  13.857  0.00  0.00    +0.000 A 
ATOM     30 CL   UNL     1       5.982   3.361  12.256  0.00  0.00    +0.000 Cl
ATOM     31  C   UNL     1       4.874   3.643  14.735  0.00  0.00    +0.000 A 
ATOM     32  C   UNL     1       4.842   4.135  15.985  0.00  0.00    +0.000 A 
ATOM     33  N   UNL     1       5.871   4.981  16.423  0.00  0.00    +0.000 N 
ATOM     34  C   UNL     1       6.089   5.607  17.645  0.00  0.00    +0.000 A 
BRANCH  25  36
ATOM     35  C   UNL     1       8.026   8.746  17.708  0.00  0.00    +0.000 C 
ATOM     36  C   UNL     1       7.900   7.366  18.340  0.00  0.00    +0.000 C 
ENDBRANCH  25  36
ENDBRANCH  21  34
ENDBRANCH  20  23
ENDBRANCH   1  20
TORSDOF 8
ENDMDL
MODEL 3
REMARK VINA RESULT:      -8.7      0.635      1.324
REMARK  Name = 
REMARK  9 active torsions:
REMARK  status: ('A' for Active; 'I' for Inactive)
REMARK    1  A    between atoms: C_1  and  C_2
REMARK    2  A    between atoms: C_2  and  C_3
REMARK    3  A    between atoms: C_12  and  C_13
REMARK    4  A    between atoms: N_15  and  C_16
REMARK    5  A    between atoms: C_16  and  C_17
REMARK    6  A    between atoms: C_20  and  N_21
REMARK    7  A    between atoms: N_21  and  C_22
REMARK    8  A    between atoms: C_25  and  O_26
REMARK    9  A    between atoms: O_26  and  C_27
REMARK                            x       y       z     vdW  Elec       q    Type
REMARK                         _______ _______ _______ _____ _____    ______ ____
ROOT
ATOM      1  C   UNL     1       0.957  10.059  19.979  0.00  0.00    +0.000 A 
ATOM      2  C   UNL     1       1.440   9.548  18.765  0.00  0.00    +0.000 A 
ATOM      3  C   UNL     1       1.922   8.232  18.678  0.00  0.00    +0.000 A 
ATOM      4  C   UNL     1       1.915   7.390  19.794  0.00  0.00    +0.000 A 
ATOM      5  C   UNL     1       1.442   7.917  21.005  0.00  0.00    +0.000 A 
ATOM      6  C   UNL     1       0.975   9.229  21.102  0.00  0.00    +0.000 A 
ENDROOT
BRANCH   4   7
ATOM      7  N   UNL     1       2.458   6.090  19.704  0.00  0.00    +0.000 N 
ATOM      8  H   UNL     1       2.418   5.542  20.556  0.00  0.00    +0.000 HD
BRANCH   7   9
ATOM      9  C   UNL     1       3.242   5.551  18.667  0.00  0.00    +0.000 A 
ATOM     10  C   UNL     1       2.734   4.574  17.809  0.00  0.00    +0.000 A 
ATOM     11  C   UNL     1       3.582   3.928  16.898  0.00  0.00    +0.000 A 
ATOM     12  C   UNL     1       4.943   4.248  16.825  0.00  0.00    +0.000 A 
ATOM     13  C   UNL     1       5.452   5.215  17.682  0.00  0.00    +0.000 A 
ATOM     14  C   UNL     1       4.599   5.879  18.564  0.00  0.00    +0.000 A 
BRANCH  12  15
ATOM     15  O   UNL     1       5.655   3.523  15.922  0.00  0.00    +0.000 OA
BRANCH  15  16
ATOM     16  C   UNL     1       6.224   4.165  14.789  0.00  0.00    +0.000 C 
ATOM     17  F   UNL     1       7.496   4.579  14.966  0.00  0.00    +0.000 F 
ATOM     18  F   UNL     1       6.175   3.336  13.723  0.00  0.00    +0.000 F 
ATOM     19  F   UNL     1       5.477   5.257  14.507  0.00  0.00    +0.000 F 
ENDBRANCH  15  16
ENDBRANCH  12  15
ENDBRANCH   7   9
ENDBRANCH   4   7
BRANCH   1  20
ATOM     20  C   UNL     1       0.330  11.431  20.074  0.00  0.00    +0.000 C 
BRANCH  20  23
ATOM     21  C   UNL     1      -1.634  12.099  18.723  0.00  0.00    +0.000 C 
ATOM     22  O   UNL     1      -0.989  12.925  18.090  0.00  0.00    +0.000 OA
ATOM     23  N   UNL     1      -1.068  11.355  19.737  0.00  0.00    +0.000 N 
ATOM     24  H   UNL     1      -1.678  10.873  20.381  0.00  0.00    +0.000 HD
BRANCH  21  34
ATOM     25  C   UNL     1      -3.683  11.316  17.379  0.00  0.00    +0.000 A 
ATOM     26  N   UNL     1      -5.029  11.171  17.601  0.00  0.00    +0.000 NA
ATOM     27  C   UNL     1      -5.245  11.659  18.797  0.00  0.00    +0.000 A 
ATOM     28  C   UNL     1      -6.463  11.808  19.517  0.00  0.00    +0.000 A 
ATOM     29  C   UNL     1      -6.448  12.364  20.741  0.00  0.00    +0.000 A 
ATOM     30 CL   UNL     1      -7.912  12.562  21.629  0.00  0.00    +0.000 Cl
ATOM     31  C   UNL     1      -5.209  12.813  21.352  0.00  0.00    +0.000 A 
ATOM     32  C   UNL     1      -4.055  12.674  20.677  0.00  0.00    +0.000 A 
ATOM     33  N   UNL     1      -4.065  12.097  19.399  0.00  0.00    +0.000 N 
ATOM     34  C   UNL     1      -3.036  11.826  18.504  0.00  0.00    +0.000 A 
BRANCH  25  36
ATOM     35  C   UNL     1      -2.307   9.681  16.049  0.00  0.00    +0.000 C 
ATOM     36  C   UNL     1      -3.131  10.962  16.035  0.00  0.00    +0.000 C 
ENDBRANCH  25  36
ENDBRANCH  21  34
ENDBRANCH  20  23
ENDBRANCH   1  20
TORSDOF 8
ENDMDL
MODEL 4
REMARK VINA RESULT:      -8.4      6.586     11.932
REMARK  Name = 
REMARK  9 active torsions:
REMARK  status: ('A' for Active; 'I' for Inactive)
REMARK    1  A    between atoms: C_1  and  C_2
REMARK    2  A    between atoms: C_2  and  C_3
REMARK    3  A    between atoms: C_12  and  C_13
REMARK    4  A    between atoms: N_15  and  C_16
REMARK    5  A    between atoms: C_16  and  C_17
REMARK    6  A    between atoms: C_20  and  N_21
REMARK    7  A    between atoms: N_21  and  C_22
REMARK    8  A    between atoms: C_25  and  O_26
REMARK    9  A    between atoms: O_26  and  C_27
REMARK                            x       y       z     vdW  Elec       q    Type
REMARK                         _______ _______ _______ _____ _____    ______ ____
ROOT
ATOM      1  C   UNL     1       2.282   7.163  19.556  0.00  0.00    +0.000 A 
ATOM      2  C   UNL     1       2.193   7.978  18.418  0.00  0.00    +0.000 A 
ATOM      3  C   UNL     1       1.484   9.190  18.455  0.00  0.00    +0.000 A 
ATOM      4  C   UNL     1       0.866   9.625  19.631  0.00  0.00    +0.000 A 
ATOM      5  C   UNL     1       0.952   8.794  20.758  0.00  0.00    +0.000 A 
ATOM      6  C   UNL     1       1.643   7.581  20.725  0.00  0.00    +0.000 A 
ENDROOT
BRANCH   4   7
ATOM      7  N   UNL     1       0.109  10.816  19.635  0.00  0.00    +0.000 N 
ATOM      8  H   UNL     1       0.126  11.346  18.771  0.00  0.00    +0.000 HD
BRANCH   7   9
ATOM      9  C   UNL     1      -0.469  11.469  20.740  0.00  0.00    +0.000 A 
ATOM     10  C   UNL     1      -0.754  10.777  21.920  0.00  0.00    +0.000 A 
ATOM     11  C   UNL     1      -1.486  11.401  22.940  0.00  0.00    +0.000 A 
ATOM     12  C   UNL     1      -1.939  12.719  22.804  0.00  0.00    +0.000 A 
ATOM     13  C   UNL     1      -1.663  13.406  21.630  0.00  0.00    +0.000 A 
ATOM     14  C   UNL     1      -0.906  12.794  20.630  0.00  0.00    +0.000 A 
BRANCH  12  15
ATOM     15  O   UNL     1      -2.663  13.187  23.855  0.00  0.00    +0.000 OA
BRANCH  15  16
ATOM     16  C   UNL     1      -4.056  12.917  23.931  0.00  0.00    +0.000 C 
ATOM     17  F   UNL     1      -4.616  12.550  22.759  0.00  0.00    +0.000 F 
ATOM     18  F   UNL     1      -4.284  11.952  24.849  0.00  0.00    +0.000 F 
ATOM     19  F   UNL     1      -4.680  14.045  24.343  0.00  0.00    +0.000 F 
ENDBRANCH  15  16
ENDBRANCH  12  15
ENDBRANCH   7   9
ENDBRANCH   4   7
BRANCH   1  20
ATOM     20  C   UNL     1       3.131   5.912  19.576  0.00  0.00    +0.000 C 
BRANCH  20  23
ATOM     21  C   UNL     1       5.254   5.163  18.546  0.00  0.00    +0.000 C 
ATOM     22  O   UNL     1       5.456   4.338  19.428  0.00  0.00    +0.000 OA
ATOM     23  N   UNL     1       4.157   5.999  18.570  0.00  0.00    +0.000 N 
ATOM     24  H   UNL     1       4.155   6.811  17.970  0.00  0.00    +0.000 HD
BRANCH  21  34
ATOM     25  C   UNL     1       7.236   6.210  17.285  0.00  0.00    +0.000 A 
ATOM     26  N   UNL     1       7.818   6.077  16.049  0.00  0.00    +0.000 NA
ATOM     27  C   UNL     1       7.051   5.250  15.384  0.00  0.00    +0.000 A 
ATOM     28  C   UNL     1       7.150   4.793  14.040  0.00  0.00    +0.000 A 
ATOM     29  C   UNL     1       6.223   3.948  13.556  0.00  0.00    +0.000 A 
ATOM     30 CL   UNL     1       6.317   3.386  11.929  0.00  0.00    +0.000 Cl
ATOM     31  C   UNL     1       5.120   3.484  14.380  0.00  0.00    +0.000 A 
ATOM     32  C   UNL     1       5.022   3.912  15.650  0.00  0.00    +0.000 A 
ATOM     33  N   UNL     1       5.985   4.794  16.160  0.00  0.00    +0.000 N 
ATOM     34  C   UNL     1       6.129   5.372  17.416  0.00  0.00    +0.000 A 
BRANCH  25  36
ATOM     35  C   UNL     1       7.913   8.603  17.674  0.00  0.00    +0.000 C 
ATOM     36  C   UNL     1       7.811   7.197  18.251  0.00  0.00    +0.000 C 
ENDBRANCH  25  36
ENDBRANCH  21  34
ENDBRANCH  20  23
ENDBRANCH   1  20
TORSDOF 8
ENDMDL
MODEL 5
REMARK VINA RESULT:      -8.4      1.773      2.815
REMARK  Name = 
REMARK  9 active torsions:
REMARK  status: ('A' for Active; 'I' for Inactive)
REMARK    1  A    between atoms: C_1  and  C_2
REMARK    2  A    between atoms: C_2  and  C_3
REMARK    3  A    between atoms: C_12  and  C_13
REMARK    4  A    between atoms: N_15  and  C_16
REMARK    5  A    between atoms: C_16  and  C_17
REMARK    6  A    between atoms: C_20  and  N_21
REMARK    7  A    between atoms: N_21  and  C_22
REMARK    8  A    between atoms: C_25  and  O_26
REMARK    9  A    between atoms: O_26  and  C_27
REMARK                            x       y       z     vdW  Elec       q    Type
REMARK                         _______ _______ _______ _____ _____    ______ ____
ROOT
ATOM      1  C   UNL     1       0.956  10.105  18.957  0.00  0.00    +0.000 A 
ATOM      2  C   UNL     1       0.828   9.516  20.224  0.00  0.00    +0.000 A 
ATOM      3  C   UNL     1       1.437   8.283  20.510  0.00  0.00    +0.000 A 
ATOM      4  C   UNL     1       2.202   7.620  19.547  0.00  0.00    +0.000 A 
ATOM      5  C   UNL     1       2.312   8.212  18.280  0.00  0.00    +0.000 A 
ATOM      6  C   UNL     1       1.697   9.431  17.984  0.00  0.00    +0.000 A 
ENDROOT
BRANCH   4   7
ATOM      7  N   UNL     1       2.758   6.353  19.831  0.00  0.00    +0.000 N 
ATOM      8  H   UNL     1       2.749   6.084  20.808  0.00  0.00    +0.000 HD
BRANCH   7   9
ATOM      9  C   UNL     1       3.519   5.533  18.978  0.00  0.00    +0.000 A 
ATOM     10  C   UNL     1       4.908   5.659  18.903  0.00  0.00    +0.000 A 
ATOM     11  C   UNL     1       5.625   4.957  17.924  0.00  0.00    +0.000 A 
ATOM     12  C   UNL     1       4.973   4.118  17.011  0.00  0.00    +0.000 A 
ATOM     13  C   UNL     1       3.592   3.997  17.079  0.00  0.00    +0.000 A 
ATOM     14  C   UNL     1       2.884   4.671  18.075  0.00  0.00    +0.000 A 
BRANCH  12  15
ATOM     15  O   UNL     1       5.785   3.525  16.096  0.00  0.00    +0.000 OA
BRANCH  15  16
ATOM     16  C   UNL     1       6.135   4.218  14.906  0.00  0.00    +0.000 C 
ATOM     17  F   UNL     1       5.376   5.304  14.652  0.00  0.00    +0.000 F 
ATOM     18  F   UNL     1       7.432   4.592  14.959  0.00  0.00    +0.000 F 
ATOM     19  F   UNL     1       5.985   3.366  13.866  0.00  0.00    +0.000 F 
ENDBRANCH  15  16
ENDBRANCH  12  15
ENDBRANCH   7   9
ENDBRANCH   4   7
BRANCH   1  20
ATOM     20  C   UNL     1       0.408  11.481  18.658  0.00  0.00    +0.000 C 
BRANCH  20  23
ATOM     21  C   UNL     1      -1.846  11.871  19.604  0.00  0.00    +0.000 C 
ATOM     22  O   UNL     1      -2.402  11.552  18.561  0.00  0.00    +0.000 OA
ATOM     23  N   UNL     1      -0.472  11.899  19.718  0.00  0.00    +0.000 N 
ATOM     24  H   UNL     1      -0.062  12.391  20.499  0.00  0.00    +0.000 HD
BRANCH  21  34
ATOM     25  C   UNL     1      -2.122  12.250  22.133  0.00  0.00    +0.000 A 
ATOM     26  N   UNL     1      -3.085  12.756  22.970  0.00  0.00    +0.000 NA
ATOM     27  C   UNL     1      -4.122  13.002  22.209  0.00  0.00    +0.000 A 
ATOM     28  C   UNL     1      -5.414  13.489  22.553  0.00  0.00    +0.000 A 
ATOM     29  C   UNL     1      -6.342  13.647  21.594  0.00  0.00    +0.000 A 
ATOM     30 CL   UNL     1      -7.916  14.228  21.987  0.00  0.00    +0.000 Cl
ATOM     31  C   UNL     1      -6.053  13.335  20.204  0.00  0.00    +0.000 A 
ATOM     32  C   UNL     1      -4.835  12.874  19.873  0.00  0.00    +0.000 A 
ATOM     33  N   UNL     1      -3.863  12.707  20.869  0.00  0.00    +0.000 N 
ATOM     34  C   UNL     1      -2.545  12.269  20.805  0.00  0.00    +0.000 A 
BRANCH  25  36
ATOM     35  C   UNL     1      -0.926  10.296  23.174  0.00  0.00    +0.000 C 
ATOM     36  C   UNL     1      -0.843  11.749  22.725  0.00  0.00    +0.000 C 
ENDBRANCH  25  36
ENDBRANCH  21  34
ENDBRANCH  20  23
ENDBRANCH   1  20
TORSDOF 8
ENDMDL
MODEL 6
REMARK VINA RESULT:      -8.2      1.099      1.469
REMARK  Name = 
REMARK  9 active torsions:
REMARK  status: ('A' for Active; 'I' for Inactive)
REMARK    1  A    between atoms: C_1  and  C_2
REMARK    2  A    between atoms: C_2  and  C_3
REMARK    3  A    between atoms: C_12  and  C_13
REMARK    4  A    between atoms: N_15  and  C_16
REMARK    5  A    between atoms: C_16  and  C_17
REMARK    6  A    between atoms: C_20  and  N_21
REMARK    7  A    between atoms: N_21  and  C_22
REMARK    8  A    between atoms: C_25  and  O_26
REMARK    9  A    between atoms: O_26  and  C_27
REMARK                            x       y       z     vdW  Elec       q    Type
REMARK                         _______ _______ _______ _____ _____    ______ ____
ROOT
ATOM      1  C   UNL     1       0.980   9.580  20.457  0.00  0.00    +0.000 A 
ATOM      2  C   UNL     1       1.296   9.401  19.103  0.00  0.00    +0.000 A 
ATOM      3  C   UNL     1       1.859   8.198  18.646  0.00  0.00    +0.000 A 
ATOM      4  C   UNL     1       2.101   7.140  19.527  0.00  0.00    +0.000 A 
ATOM      5  C   UNL     1       1.793   7.336  20.882  0.00  0.00    +0.000 A 
ATOM      6  C   UNL     1       1.247   8.535  21.345  0.00  0.00    +0.000 A 
ENDROOT
BRANCH   4   7
ATOM      7  N   UNL     1       2.721   5.959  19.064  0.00  0.00    +0.000 N 
ATOM      8  H   UNL     1       2.623   5.151  19.667  0.00  0.00    +0.000 HD
BRANCH   7   9
ATOM      9  C   UNL     1       3.638   5.825  18.004  0.00  0.00    +0.000 A 
ATOM     10  C   UNL     1       4.261   6.941  17.441  0.00  0.00    +0.000 A 
ATOM     11  C   UNL     1       5.032   6.804  16.279  0.00  0.00    +0.000 A 
ATOM     12  C   UNL     1       5.199   5.556  15.665  0.00  0.00    +0.000 A 
ATOM     13  C   UNL     1       4.576   4.446  16.219  0.00  0.00    +0.000 A 
ATOM     14  C   UNL     1       3.836   4.581  17.394  0.00  0.00    +0.000 A 
BRANCH  12  15
ATOM     15  O   UNL     1       5.944   5.572  14.527  0.00  0.00    +0.000 OA
BRANCH  15  16
ATOM     16  C   UNL     1       7.096   4.746  14.424  0.00  0.00    +0.000 C 
ATOM     17  F   UNL     1       8.043   5.216  13.585  0.00  0.00    +0.000 F 
ATOM     18  F   UNL     1       7.641   4.568  15.647  0.00  0.00    +0.000 F 
ATOM     19  F   UNL     1       6.705   3.538  13.958  0.00  0.00    +0.000 F 
ENDBRANCH  15  16
ENDBRANCH  12  15
ENDBRANCH   7   9
ENDBRANCH   4   7
BRANCH   1  20
ATOM     20  C   UNL     1       0.272  10.819  20.955  0.00  0.00    +0.000 C 
BRANCH  20  23
ATOM     21  C   UNL     1      -1.372  11.869  19.431  0.00  0.00    +0.000 C 
ATOM     22  O   UNL     1      -0.591  12.753  19.105  0.00  0.00    +0.000 OA
ATOM     23  N   UNL     1      -1.037  10.907  20.362  0.00  0.00    +0.000 N 
ATOM     24  H   UNL     1      -1.775  10.355  20.774  0.00  0.00    +0.000 HD
BRANCH  21  34
ATOM     25  C   UNL     1      -3.181  11.033  17.804  0.00  0.00    +0.000 A 
ATOM     26  N   UNL     1      -4.543  11.142  17.681  0.00  0.00    +0.000 NA
ATOM     27  C   UNL     1      -4.919  11.968  18.625  0.00  0.00    +0.000 A 
ATOM     28  C   UNL     1      -6.212  12.478  18.933  0.00  0.00    +0.000 A 
ATOM     29  C   UNL     1      -6.360  13.344  19.950  0.00  0.00    +0.000 A 
ATOM     30 CL   UNL     1      -7.915  13.981  20.337  0.00  0.00    +0.000 Cl
ATOM     31  C   UNL     1      -5.225  13.770  20.751  0.00  0.00    +0.000 A 
ATOM     32  C   UNL     1      -4.002  13.291  20.466  0.00  0.00    +0.000 A 
ATOM     33  N   UNL     1      -3.841  12.389  19.405  0.00  0.00    +0.000 N 
ATOM     34  C   UNL     1      -2.714  11.741  18.911  0.00  0.00    +0.000 A 
BRANCH  25  36
ATOM     35  C   UNL     1      -2.813  10.604  15.352  0.00  0.00    +0.000 C 
ATOM     36  C   UNL     1      -2.425  10.247  16.781  0.00  0.00    +0.000 C 
ENDBRANCH  25  36
ENDBRANCH  21  34
ENDBRANCH  20  23
ENDBRANCH   1  20
TORSDOF 8
ENDMDL
MODEL 7
REMARK VINA RESULT:      -8.2      4.021      5.801
REMARK  Name = 
REMARK  9 active torsions:
REMARK  status: ('A' for Active; 'I' for Inactive)
REMARK    1  A    between atoms: C_1  and  C_2
REMARK    2  A    between atoms: C_2  and  C_3
REMARK    3  A    between atoms: C_12  and  C_13
REMARK    4  A    between atoms: N_15  and  C_16
REMARK    5  A    between atoms: C_16  and  C_17
REMARK    6  A    between atoms: C_20  and  N_21
REMARK    7  A    between atoms: N_21  and  C_22
REMARK    8  A    between atoms: C_25  and  O_26
REMARK    9  A    between atoms: O_26  and  C_27
REMARK                            x       y       z     vdW  Elec       q    Type
REMARK                         _______ _______ _______ _____ _____    ______ ____
ROOT
ATOM      1  C   UNL     1       0.957   9.737  19.057  0.00  0.00    +0.000 A 
ATOM      2  C   UNL     1       1.694   9.096  18.050  0.00  0.00    +0.000 A 
ATOM      3  C   UNL     1       2.372   7.893  18.308  0.00  0.00    +0.000 A 
ATOM      4  C   UNL     1       2.313   7.293  19.569  0.00  0.00    +0.000 A 
ATOM      5  C   UNL     1       1.585   7.951  20.571  0.00  0.00    +0.000 A 
ATOM      6  C   UNL     1       0.920   9.154  20.326  0.00  0.00    +0.000 A 
ENDROOT
BRANCH   4   7
ATOM      7  N   UNL     1       3.048   6.116  19.828  0.00  0.00    +0.000 N 
ATOM      8  H   UNL     1       3.206   5.908  20.807  0.00  0.00    +0.000 HD
BRANCH   7   9
ATOM      9  C   UNL     1       3.776   5.334  18.912  0.00  0.00    +0.000 A 
ATOM     10  C   UNL     1       5.155   5.498  18.755  0.00  0.00    +0.000 A 
ATOM     11  C   UNL     1       5.828   4.836  17.720  0.00  0.00    +0.000 A 
ATOM     12  C   UNL     1       5.143   3.999  16.830  0.00  0.00    +0.000 A 
ATOM     13  C   UNL     1       3.772   3.840  16.979  0.00  0.00    +0.000 A 
ATOM     14  C   UNL     1       3.110   4.474  18.031  0.00  0.00    +0.000 A 
BRANCH  12  15
ATOM     15  O   UNL     1       5.913   3.448  15.854  0.00  0.00    +0.000 OA
BRANCH  15  16
ATOM     16  C   UNL     1       6.208   4.191  14.680  0.00  0.00    +0.000 C 
ATOM     17  F   UNL     1       6.203   3.462  13.544  0.00  0.00    +0.000 F 
ATOM     18  F   UNL     1       5.329   5.210  14.552  0.00  0.00    +0.000 F 
ATOM     19  F   UNL     1       7.446   4.719  14.817  0.00  0.00    +0.000 F 
ENDBRANCH  15  16
ENDBRANCH  12  15
ENDBRANCH   7   9
ENDBRANCH   4   7
BRANCH   1  20
ATOM     20  C   UNL     1       0.128  10.970  18.777  0.00  0.00    +0.000 C 
BRANCH  20  23
ATOM     21  C   UNL     1       0.436  13.421  18.938  0.00  0.00    +0.000 C 
ATOM     22  O   UNL     1      -0.435  13.642  18.107  0.00  0.00    +0.000 OA
ATOM     23  N   UNL     1       0.797  12.137  19.291  0.00  0.00    +0.000 N 
ATOM     24  H   UNL     1       1.665  11.998  19.786  0.00  0.00    +0.000 HD
BRANCH  21  34
ATOM     25  C   UNL     1       0.866  15.194  20.751  0.00  0.00    +0.000 A 
ATOM     26  N   UNL     1       1.884  16.049  21.094  0.00  0.00    +0.000 NA
ATOM     27  C   UNL     1       2.786  15.919  20.153  0.00  0.00    +0.000 A 
ATOM     28  C   UNL     1       4.024  16.597  19.975  0.00  0.00    +0.000 A 
ATOM     29  C   UNL     1       4.791  16.312  18.909  0.00  0.00    +0.000 A 
ATOM     30 CL   UNL     1       6.291  17.126  18.667  0.00  0.00    +0.000 Cl
ATOM     31  C   UNL     1       4.385  15.316  17.931  0.00  0.00    +0.000 A 
ATOM     32  C   UNL     1       3.217  14.671  18.095  0.00  0.00    +0.000 A 
ATOM     33  N   UNL     1       2.413  14.966  19.205  0.00  0.00    +0.000 N 
ATOM     34  C   UNL     1       1.189  14.451  19.617  0.00  0.00    +0.000 A 
BRANCH  25  36
ATOM     35  C   UNL     1      -0.517  13.972  22.462  0.00  0.00    +0.000 C 
ATOM     36  C   UNL     1      -0.386  15.199  21.569  0.00  0.00    +0.000 C 
ENDBRANCH  25  36
ENDBRANCH  21  34
ENDBRANCH  20  23
ENDBRANCH   1  20
TORSDOF 8
ENDMDL
MODEL 8
REMARK VINA RESULT:      -8.0      1.257      1.665
REMARK  Name = 
REMARK  9 active torsions:
REMARK  status: ('A' for Active; 'I' for Inactive)
REMARK    1  A    between atoms: C_1  and  C_2
REMARK    2  A    between atoms: C_2  and  C_3
REMARK    3  A    between atoms: C_12  and  C_13
REMARK    4  A    between atoms: N_15  and  C_16
REMARK    5  A    between atoms: C_16  and  C_17
REMARK    6  A    between atoms: C_20  and  N_21
REMARK    7  A    between atoms: N_21  and  C_22
REMARK    8  A    between atoms: C_25  and  O_26
REMARK    9  A    between atoms: O_26  and  C_27
REMARK                            x       y       z     vdW  Elec       q    Type
REMARK                         _______ _______ _______ _____ _____    ______ ____
ROOT
ATOM      1  C   UNL     1       1.016  10.285  19.125  0.00  0.00    +0.000 A 
ATOM      2  C   UNL     1       1.067   9.499  20.285  0.00  0.00    +0.000 A 
ATOM      3  C   UNL     1       1.652   8.222  20.266  0.00  0.00    +0.000 A 
ATOM      4  C   UNL     1       2.216   7.710  19.094  0.00  0.00    +0.000 A 
ATOM      5  C   UNL     1       2.147   8.500  17.937  0.00  0.00    +0.000 A 
ATOM      6  C   UNL     1       1.554   9.764  17.946  0.00  0.00    +0.000 A 
ENDROOT
BRANCH   4   7
ATOM      7  N   UNL     1       2.747   6.402  19.076  0.00  0.00    +0.000 N 
ATOM      8  H   UNL     1       2.740   5.917  19.967  0.00  0.00    +0.000 HD
BRANCH   7   9
ATOM      9  C   UNL     1       3.484   5.783  18.050  0.00  0.00    +0.000 A 
ATOM     10  C   UNL     1       3.207   4.473  17.649  0.00  0.00    +0.000 A 
ATOM     11  C   UNL     1       4.061   3.818  16.751  0.00  0.00    +0.000 A 
ATOM     12  C   UNL     1       5.197   4.455  16.237  0.00  0.00    +0.000 A 
ATOM     13  C   UNL     1       5.479   5.754  16.639  0.00  0.00    +0.000 A 
ATOM     14  C   UNL     1       4.609   6.415  17.507  0.00  0.00    +0.000 A 
BRANCH  12  15
ATOM     15  O   UNL     1       5.954   3.693  15.403  0.00  0.00    +0.000 OA
BRANCH  15  16
ATOM     16  C   UNL     1       6.074   4.048  14.033  0.00  0.00    +0.000 C 
ATOM     17  F   UNL     1       4.905   4.363  13.436  0.00  0.00    +0.000 F 
ATOM     18  F   UNL     1       6.927   5.088  13.903  0.00  0.00    +0.000 F 
ATOM     19  F   UNL     1       6.596   2.991  13.369  0.00  0.00    +0.000 F 
ENDBRANCH  15  16
ENDBRANCH  12  15
ENDBRANCH   7   9
ENDBRANCH   4   7
BRANCH   1  20
ATOM     20  C   UNL     1       0.495  11.704  19.144  0.00  0.00    +0.000 C 
BRANCH  20  23
ATOM     21  C   UNL     1      -1.902  11.761  19.759  0.00  0.00    +0.000 C 
ATOM     22  O   UNL     1      -1.655  11.722  20.957  0.00  0.00    +0.000 OA
ATOM     23  N   UNL     1      -0.905  11.717  18.807  0.00  0.00    +0.000 N 
ATOM     24  H   UNL     1      -1.157  11.509  17.852  0.00  0.00    +0.000 HD
BRANCH  21  34
ATOM     25  C   UNL     1      -3.820  11.101  18.177  0.00  0.00    +0.000 A 
ATOM     26  N   UNL     1      -5.133  11.456  17.994  0.00  0.00    +0.000 NA
ATOM     27  C   UNL     1      -5.351  12.447  18.822  0.00  0.00    +0.000 A 
ATOM     28  C   UNL     1      -6.522  13.230  19.023  0.00  0.00    +0.000 A 
ATOM     29  C   UNL     1      -6.509  14.225  19.927  0.00  0.00    +0.000 A 
ATOM     30 CL   UNL     1      -7.913  15.193  20.182  0.00  0.00    +0.000 Cl
ATOM     31  C   UNL     1      -5.322  14.517  20.712  0.00  0.00    +0.000 A 
ATOM     32  C   UNL     1      -4.213  13.780  20.528  0.00  0.00    +0.000 A 
ATOM     33  N   UNL     1      -4.221  12.742  19.585  0.00  0.00    +0.000 N 
ATOM     34  C   UNL     1      -3.237  11.834  19.210  0.00  0.00    +0.000 A 
BRANCH  25  36
ATOM     35  C   UNL     1      -2.874  10.606  15.898  0.00  0.00    +0.000 C 
ATOM     36  C   UNL     1      -3.221  10.066  17.280  0.00  0.00    +0.000 C 
ENDBRANCH  25  36
ENDBRANCH  21  34
ENDBRANCH  20  23
ENDBRANCH   1  20
TORSDOF 8
ENDMDL
MODEL 9
REMARK VINA RESULT:      -8.0      3.818      5.362
REMARK  Name = 
REMARK  9 active torsions:
REMARK  status: ('A' for Active; 'I' for Inactive)
REMARK    1  A    between atoms: C_1  and  C_2
REMARK    2  A    between atoms: C_2  and  C_3
REMARK    3  A    between atoms: C_12  and  C_13
REMARK    4  A    between atoms: N_15  and  C_16
REMARK    5  A    between atoms: C_16  and  C_17
REMARK    6  A    between atoms: C_20  and  N_21
REMARK    7  A    between atoms: N_21  and  C_22
REMARK    8  A    between atoms: C_25  and  O_26
REMARK    9  A    between atoms: O_26  and  C_27
REMARK                            x       y       z     vdW  Elec       q    Type
REMARK                         _______ _______ _______ _____ _____    ______ ____
ROOT
ATOM      1  C   UNL     1       0.822   9.734  19.006  0.00  0.00    +0.000 A 
ATOM      2  C   UNL     1       0.834   9.167  20.289  0.00  0.00    +0.000 A 
ATOM      3  C   UNL     1       1.572   8.002  20.555  0.00  0.00    +0.000 A 
ATOM      4  C   UNL     1       2.330   7.388  19.553  0.00  0.00    +0.000 A 
ATOM      5  C   UNL     1       2.298   7.957  18.272  0.00  0.00    +0.000 A 
ATOM      6  C   UNL     1       1.555   9.107  17.996  0.00  0.00    +0.000 A 
ENDROOT
BRANCH   4   7
ATOM      7  N   UNL     1       3.018   6.185  19.822  0.00  0.00    +0.000 N 
ATOM      8  H   UNL     1       3.138   5.963  20.804  0.00  0.00    +0.000 HD
BRANCH   7   9
ATOM      9  C   UNL     1       3.748   5.388  18.920  0.00  0.00    +0.000 A 
ATOM     10  C   UNL     1       5.125   5.553  18.761  0.00  0.00    +0.000 A 
ATOM     11  C   UNL     1       5.801   4.873  17.737  0.00  0.00    +0.000 A 
ATOM     12  C   UNL     1       5.118   4.019  16.863  0.00  0.00    +0.000 A 
ATOM     13  C   UNL     1       3.747   3.858  17.015  0.00  0.00    +0.000 A 
ATOM     14  C   UNL     1       3.083   4.510  18.055  0.00  0.00    +0.000 A 
BRANCH  12  15
ATOM     15  O   UNL     1       5.888   3.451  15.898  0.00  0.00    +0.000 OA
BRANCH  15  16
ATOM     16  C   UNL     1       6.193   4.179  14.716  0.00  0.00    +0.000 C 
ATOM     17  F   UNL     1       6.180   3.438  13.588  0.00  0.00    +0.000 F 
ATOM     18  F   UNL     1       5.327   5.207  14.577  0.00  0.00    +0.000 F 
ATOM     19  F   UNL     1       7.437   4.693  14.849  0.00  0.00    +0.000 F 
ENDBRANCH  15  16
ENDBRANCH  12  15
ENDBRANCH   7   9
ENDBRANCH   4   7
BRANCH   1  20
ATOM     20  C   UNL     1       0.129  11.046  18.720  0.00  0.00    +0.000 C 
BRANCH  20  23
ATOM     21  C   UNL     1       0.093  13.340  19.651  0.00  0.00    +0.000 C 
ATOM     22  O   UNL     1      -0.578  13.768  18.720  0.00  0.00    +0.000 OA
ATOM     23  N   UNL     1       0.512  12.027  19.702  0.00  0.00    +0.000 N 
ATOM     24  H   UNL     1       1.250  11.780  20.345  0.00  0.00    +0.000 HD
BRANCH  21  34
ATOM     25  C   UNL     1      -0.014  14.282  22.041  0.00  0.00    +0.000 A 
ATOM     26  N   UNL     1       0.744  15.120  22.822  0.00  0.00    +0.000 NA
ATOM     27  C   UNL     1       1.692  15.571  22.039  0.00  0.00    +0.000 A 
ATOM     28  C   UNL     1       2.730  16.507  22.307  0.00  0.00    +0.000 A 
ATOM     29  C   UNL     1       3.591  16.842  21.331  0.00  0.00    +0.000 A 
ATOM     30 CL   UNL     1       4.852  17.979  21.629  0.00  0.00    +0.000 Cl
ATOM     31  C   UNL     1       3.490  16.262  20.002  0.00  0.00    +0.000 A 
ATOM     32  C   UNL     1       2.512  15.377  19.744  0.00  0.00    +0.000 A 
ATOM     33  N   UNL     1       1.610  15.025  20.758  0.00  0.00    +0.000 N 
ATOM     34  C   UNL     1       0.535  14.144  20.767  0.00  0.00    +0.000 A 
BRANCH  25  36
ATOM     35  C   UNL     1      -1.142  12.205  22.906  0.00  0.00    +0.000 C 
ATOM     36  C   UNL     1      -1.264  13.696  22.616  0.00  0.00    +0.000 C 
ENDBRANCH  25  36
ENDBRANCH  21  34
ENDBRANCH  20  23
ENDBRANCH   1  20
TORSDOF 8
ENDMDL
