MODEL 1
REMARK VINA RESULT:      -8.6      0.000      0.000
REMARK  Name = 
REMARK  10 active torsions:
REMARK  status: ('A' for Active; 'I' for Inactive)
REMARK    1  A    between atoms: C_2  and  O_3
REMARK    2  A    between atoms: C_2  and  C_4
REMARK    3  A    between atoms: C_4  and  N_5
REMARK    4  A    between atoms: C_10  and  O_11
REMARK    5  A    between atoms: O_11  and  C_12
REMARK    6  A    between atoms: C_12  and  C_13
REMARK    7  A    between atoms: C_18  and  C_19
REMARK    8  A    between atoms: C_19  and  O_20
REMARK    9  A    between atoms: O_20  and  C_21
REMARK   10  A    between atoms: C_24  and  C_25
REMARK                            x       y       z     vdW  Elec       q    Type
REMARK                         _______ _______ _______ _____ _____    ______ ____
ROOT
ATOM      1  C   UNL     1       2.439   4.245  19.502  0.00  0.00    +0.000 A 
ATOM      2  C   UNL     1       1.065   3.969  19.362  0.00  0.00    +0.000 A 
ATOM      3  C   UNL     1       0.621   2.707  18.965  0.00  0.00    +0.000 A 
ATOM      4  C   UNL     1       1.539   1.703  18.685  0.00  0.00    +0.000 A 
ATOM      5  C   UNL     1       2.904   1.968  18.785  0.00  0.00    +0.000 A 
ATOM      6  C   UNL     1       3.373   3.237  19.177  0.00  0.00    +0.000 A 
ENDROOT
BRANCH   1   7
ATOM      7  C   UNL     1       2.850   5.606  20.032  0.00  0.00    +0.000 C 
BRANCH   7   8
ATOM      8  O   UNL     1       2.999   6.548  18.966  0.00  0.00    +0.000 OA
BRANCH   8  14
ATOM      9  N   UNL     1      -0.181  10.938  19.988  0.00  0.00    +0.000 N 
ATOM     10  C   UNL     1      -0.513  10.670  21.292  0.00  0.00    +0.000 A 
ATOM     11  C   UNL     1       0.198   9.563  21.689  0.00  0.00    +0.000 A 
ATOM     12  C   UNL     1       0.913   9.077  20.562  0.00  0.00    +0.000 A 
ATOM     13  C   UNL     1       1.755   7.965  20.345  0.00  0.00    +0.000 A 
ATOM     14  C   UNL     1       2.257   7.700  19.065  0.00  0.00    +0.000 A 
ATOM     15  C   UNL     1       1.961   8.575  18.021  0.00  0.00    +0.000 A 
ATOM     16  C   UNL     1       1.164   9.716  18.217  0.00  0.00    +0.000 A 
ATOM     17  C   UNL     1       0.636   9.941  19.497  0.00  0.00    +0.000 A 
BRANCH   9  18
ATOM     18  C   UNL     1      -0.623  12.119  19.261  0.00  0.00    +0.000 C 
BRANCH  18  20
ATOM     19  O   UNL     1      -2.754  11.302  18.551  0.00  0.00    +0.000 OA
ATOM     20  C   UNL     1      -1.728  11.899  18.254  0.00  0.00    +0.000 C 
BRANCH  20  21
ATOM     21  O   UNL     1      -1.539  12.369  17.002  0.00  0.00    +0.000 OA
ATOM     22  H   UNL     1      -2.343  12.534  16.470  0.00  0.00    +0.000 HD
ENDBRANCH  20  21
ENDBRANCH  18  20
ENDBRANCH   9  18
ENDBRANCH   8  14
ENDBRANCH   7   8
ENDBRANCH   1   7
BRANCH   6  23
ATOM     23  C   UNL     1       4.868   3.451  19.257  0.00  0.00    +0.000 C 
BRANCH  23  24
ATOM     24  O   UNL     1       5.350   3.919  17.995  0.00  0.00    +0.000 OA
BRANCH  24  25
ATOM     25  C   UNL     1       6.117   5.055  18.021  0.00  0.00    +0.000 A 
ATOM     26  C   UNL     1       7.262   5.244  18.797  0.00  0.00    +0.000 A 
ATOM     27  C   UNL     1       7.954   6.458  18.755  0.00  0.00    +0.000 A 
ATOM     28  C   UNL     1       7.515   7.507  17.938  0.00  0.00    +0.000 A 
ATOM     29  C   UNL     1       6.380   7.305  17.138  0.00  0.00    +0.000 A 
ATOM     30  C   UNL     1       5.686   6.089  17.186  0.00  0.00    +0.000 A 
BRANCH  28  31
ATOM     31  C   UNL     1       8.233   8.835  17.934  0.00  0.00    +0.000 C 
ATOM     32  F   UNL     1       7.390   9.905  17.861  0.00  0.00    +0.000 F 
ATOM     33  F   UNL     1       8.987   9.031  19.050  0.00  0.00    +0.000 F 
ATOM     34  F   UNL     1       9.084   8.963  16.877  0.00  0.00    +0.000 F 
ENDBRANCH  28  31
ENDBRANCH  24  25
ENDBRANCH  23  24
ENDBRANCH   6  23
TORSDOF 10
ENDMDL
MODEL 2
REMARK VINA RESULT:      -8.5      3.108      5.006
REMARK  Name = 
REMARK  10 active torsions:
REMARK  status: ('A' for Active; 'I' for Inactive)
REMARK    1  A    between atoms: C_2  and  O_3
REMARK    2  A    between atoms: C_2  and  C_4
REMARK    3  A    between atoms: C_4  and  N_5
REMARK    4  A    between atoms: C_10  and  O_11
REMARK    5  A    between atoms: O_11  and  C_12
REMARK    6  A    between atoms: C_12  and  C_13
REMARK    7  A    between atoms: C_18  and  C_19
REMARK    8  A    between atoms: C_19  and  O_20
REMARK    9  A    between atoms: O_20  and  C_21
REMARK   10  A    between atoms: C_24  and  C_25
REMARK                            x       y       z     vdW  Elec       q    Type
REMARK                         _______ _______ _______ _____ _____    ______ ____
ROOT
ATOM      1  C   UNL     1       5.668   6.221  17.323  0.00  0.00    +0.000 A 
ATOM      2  C   UNL     1       6.483   6.847  18.286  0.00  0.00    +0.000 A 
ATOM      3  C   UNL     1       7.704   6.291  18.668  0.00  0.00    +0.000 A 
ATOM      4  C   UNL     1       8.128   5.092  18.107  0.00  0.00    +0.000 A 
ATOM      5  C   UNL     1       7.319   4.441  17.177  0.00  0.00    +0.000 A 
ATOM      6  C   UNL     1       6.080   4.982  16.784  0.00  0.00    +0.000 A 
ENDROOT
BRANCH   1   7
ATOM      7  C   UNL     1       4.401   6.929  16.880  0.00  0.00    +0.000 C 
BRANCH   7   8
ATOM      8  O   UNL     1       3.298   6.579  17.721  0.00  0.00    +0.000 OA
BRANCH   8  14
ATOM      9  N   UNL     1       0.349  10.339  20.476  0.00  0.00    +0.000 N 
ATOM     10  C   UNL     1       0.123   9.637  21.634  0.00  0.00    +0.000 A 
ATOM     11  C   UNL     1       0.832   8.462  21.559  0.00  0.00    +0.000 A 
ATOM     12  C   UNL     1       1.433   8.397  20.273  0.00  0.00    +0.000 A 
ATOM     13  C   UNL     1       2.219   7.430  19.611  0.00  0.00    +0.000 A 
ATOM     14  C   UNL     1       2.601   7.624  18.277  0.00  0.00    +0.000 A 
ATOM     15  C   UNL     1       2.243   8.806  17.630  0.00  0.00    +0.000 A 
ATOM     16  C   UNL     1       1.500   9.806  18.278  0.00  0.00    +0.000 A 
ATOM     17  C   UNL     1       1.091   9.575  19.600  0.00  0.00    +0.000 A 
BRANCH   9  18
ATOM     18  C   UNL     1      -0.119  11.697  20.243  0.00  0.00    +0.000 C 
BRANCH  18  20
ATOM     19  O   UNL     1      -2.287  12.266  21.071  0.00  0.00    +0.000 OA
ATOM     20  C   UNL     1      -1.616  11.869  20.128  0.00  0.00    +0.000 C 
BRANCH  20  21
ATOM     21  O   UNL     1      -2.195  11.553  18.950  0.00  0.00    +0.000 OA
ATOM     22  H   UNL     1      -1.620  11.579  18.158  0.00  0.00    +0.000 HD
ENDBRANCH  20  21
ENDBRANCH  18  20
ENDBRANCH   9  18
ENDBRANCH   8  14
ENDBRANCH   7   8
ENDBRANCH   1   7
BRANCH   6  23
ATOM     23  C   UNL     1       5.255   4.215  15.775  0.00  0.00    +0.000 C 
BRANCH  23  24
ATOM     24  O   UNL     1       4.761   3.017  16.375  0.00  0.00    +0.000 OA
BRANCH  24  25
ATOM     25  C   UNL     1       3.885   3.175  17.419  0.00  0.00    +0.000 A 
ATOM     26  C   UNL     1       2.507   3.363  17.300  0.00  0.00    +0.000 A 
ATOM     27  C   UNL     1       1.714   3.534  18.439  0.00  0.00    +0.000 A 
ATOM     28  C   UNL     1       2.284   3.523  19.718  0.00  0.00    +0.000 A 
ATOM     29  C   UNL     1       3.665   3.307  19.836  0.00  0.00    +0.000 A 
ATOM     30  C   UNL     1       4.457   3.141  18.693  0.00  0.00    +0.000 A 
BRANCH  28  31
ATOM     31  C   UNL     1       1.435   3.761  20.943  0.00  0.00    +0.000 C 
ATOM     32  F   UNL     1       0.562   4.800  20.802  0.00  0.00    +0.000 F 
ATOM     33  F   UNL     1       0.677   2.682  21.278  0.00  0.00    +0.000 F 
ATOM     34  F   UNL     1       2.181   4.054  22.045  0.00  0.00    +0.000 F 
ENDBRANCH  28  31
ENDBRANCH  24  25
ENDBRANCH  23  24
ENDBRANCH   6  23
TORSDOF 10
ENDMDL
MODEL 3
REMARK VINA RESULT:      -8.4      1.548      1.938
REMARK  Name = 
REMARK  10 active torsions:
REMARK  status: ('A' for Active; 'I' for Inactive)
REMARK    1  A    between atoms: C_2  and  O_3
REMARK    2  A    between atoms: C_2  and  C_4
REMARK    3  A    between atoms: C_4  and  N_5
REMARK    4  A    between atoms: C_10  and  O_11
REMARK    5  A    between atoms: O_11  and  C_12
REMARK    6  A    between atoms: C_12  and  C_13
REMARK    7  A    between atoms: C_18  and  C_19
REMARK    8  A    between atoms: C_19  and  O_20
REMARK    9  A    between atoms: O_20  and  C_21
REMARK   10  A    between atoms: C_24  and  C_25
REMARK                            x       y       z     vdW  Elec       q    Type
REMARK                         _______ _______ _______ _____ _____    ______ ____
ROOT
ATOM      1  C   UNL     1       2.060   4.723  19.443  0.00  0.00    +0.000 A 
ATOM      2  C   UNL     1       1.627   4.601  20.779  0.00  0.00    +0.000 A 
ATOM      3  C   UNL     1       1.419   3.348  21.356  0.00  0.00    +0.000 A 
ATOM      4  C   UNL     1       1.623   2.195  20.609  0.00  0.00    +0.000 A 
ATOM      5  C   UNL     1       2.019   2.296  19.276  0.00  0.00    +0.000 A 
ATOM      6  C   UNL     1       2.227   3.551  18.672  0.00  0.00    +0.000 A 
ENDROOT
BRANCH   1   7
ATOM      7  C   UNL     1       2.363   6.109  18.907  0.00  0.00    +0.000 C 
BRANCH   7   8
ATOM      8  O   UNL     1       2.390   7.073  19.964  0.00  0.00    +0.000 OA
BRANCH   8  14
ATOM      9  N   UNL     1      -0.421  11.800  19.541  0.00  0.00    +0.000 N 
ATOM     10  C   UNL     1      -1.015  11.815  20.778  0.00  0.00    +0.000 A 
ATOM     11  C   UNL     1      -0.514  10.756  21.498  0.00  0.00    +0.000 A 
ATOM     12  C   UNL     1       0.337  10.010  20.640  0.00  0.00    +0.000 A 
ATOM     13  C   UNL     1       1.077   8.818  20.795  0.00  0.00    +0.000 A 
ATOM     14  C   UNL     1       1.773   8.274  19.708  0.00  0.00    +0.000 A 
ATOM     15  C   UNL     1       1.772   8.950  18.489  0.00  0.00    +0.000 A 
ATOM     16  C   UNL     1       1.083  10.163  18.318  0.00  0.00    +0.000 A 
ATOM     17  C   UNL     1       0.357  10.670  19.407  0.00  0.00    +0.000 A 
BRANCH   9  18
ATOM     18  C   UNL     1      -0.590  12.847  18.544  0.00  0.00    +0.000 C 
BRANCH  18  20
ATOM     19  O   UNL     1      -0.406  15.222  18.732  0.00  0.00    +0.000 OA
ATOM     20  C   UNL     1       0.153  14.136  18.808  0.00  0.00    +0.000 C 
BRANCH  20  21
ATOM     21  O   UNL     1       1.465  14.053  19.116  0.00  0.00    +0.000 OA
ATOM     22  H   UNL     1       1.756  14.523  19.924  0.00  0.00    +0.000 HD
ENDBRANCH  20  21
ENDBRANCH  18  20
ENDBRANCH   9  18
ENDBRANCH   8  14
ENDBRANCH   7   8
ENDBRANCH   1   7
BRANCH   6  23
ATOM     23  C   UNL     1       2.650   3.583  17.220  0.00  0.00    +0.000 C 
BRANCH  23  24
ATOM     24  O   UNL     1       4.027   3.217  17.118  0.00  0.00    +0.000 OA
BRANCH  24  25
ATOM     25  C   UNL     1       4.940   4.216  17.338  0.00  0.00    +0.000 A 
ATOM     26  C   UNL     1       5.709   4.372  18.493  0.00  0.00    +0.000 A 
ATOM     27  C   UNL     1       6.596   5.446  18.614  0.00  0.00    +0.000 A 
ATOM     28  C   UNL     1       6.730   6.386  17.584  0.00  0.00    +0.000 A 
ATOM     29  C   UNL     1       5.977   6.212  16.414  0.00  0.00    +0.000 A 
ATOM     30  C   UNL     1       5.085   5.137  16.298  0.00  0.00    +0.000 A 
BRANCH  28  31
ATOM     31  C   UNL     1       7.649   7.574  17.738  0.00  0.00    +0.000 C 
ATOM     32  F   UNL     1       8.410   7.815  16.633  0.00  0.00    +0.000 F 
ATOM     33  F   UNL     1       6.979   8.731  17.987  0.00  0.00    +0.000 F 
ATOM     34  F   UNL     1       8.530   7.420  18.766  0.00  0.00    +0.000 F 
ENDBRANCH  28  31
ENDBRANCH  24  25
ENDBRANCH  23  24
ENDBRANCH   6  23
TORSDOF 10
ENDMDL
MODEL 4
REMARK VINA RESULT:      -8.4      3.147      4.967
REMARK  Name = 
REMARK  10 active torsions:
REMARK  status: ('A' for Active; 'I' for Inactive)
REMARK    1  A    between atoms: C_2  and  O_3
REMARK    2  A    between atoms: C_2  and  C_4
REMARK    3  A    between atoms: C_4  and  N_5
REMARK    4  A    between atoms: C_10  and  O_11
REMARK    5  A    between atoms: O_11  and  C_12
REMARK    6  A    between atoms: C_12  and  C_13
REMARK    7  A    between atoms: C_18  and  C_19
REMARK    8  A    between atoms: C_19  and  O_20
REMARK    9  A    between atoms: O_20  and  C_21
REMARK   10  A    between atoms: C_24  and  C_25
REMARK                            x       y       z     vdW  Elec       q    Type
REMARK                         _______ _______ _______ _____ _____    ______ ____
ROOT
ATOM      1  C   UNL     1       5.676   6.204  17.330  0.00  0.00    +0.000 A 
ATOM      2  C   UNL     1       6.518   6.762  18.311  0.00  0.00    +0.000 A 
ATOM      3  C   UNL     1       7.728   6.155  18.651  0.00  0.00    +0.000 A 
ATOM      4  C   UNL     1       8.112   4.974  18.030  0.00  0.00    +0.000 A 
ATOM      5  C   UNL     1       7.275   4.389  17.081  0.00  0.00    +0.000 A 
ATOM      6  C   UNL     1       6.047   4.981  16.729  0.00  0.00    +0.000 A 
ENDROOT
BRANCH   1   7
ATOM      7  C   UNL     1       4.424   6.966  16.937  0.00  0.00    +0.000 C 
BRANCH   7   8
ATOM      8  O   UNL     1       3.323   6.611  17.779  0.00  0.00    +0.000 OA
BRANCH   8  14
ATOM      9  N   UNL     1       0.275  10.364  20.435  0.00  0.00    +0.000 N 
ATOM     10  C   UNL     1       0.031   9.670  21.594  0.00  0.00    +0.000 A 
ATOM     11  C   UNL     1       0.754   8.502  21.545  0.00  0.00    +0.000 A 
ATOM     12  C   UNL     1       1.383   8.432  20.273  0.00  0.00    +0.000 A 
ATOM     13  C   UNL     1       2.194   7.467  19.637  0.00  0.00    +0.000 A 
ATOM     14  C   UNL     1       2.603   7.654  18.310  0.00  0.00    +0.000 A 
ATOM     15  C   UNL     1       2.246   8.826  17.645  0.00  0.00    +0.000 A 
ATOM     16  C   UNL     1       1.479   9.825  18.268  0.00  0.00    +0.000 A 
ATOM     17  C   UNL     1       1.044   9.600  19.583  0.00  0.00    +0.000 A 
BRANCH   9  18
ATOM     18  C   UNL     1      -0.202  11.715  20.180  0.00  0.00    +0.000 C 
BRANCH  18  20
ATOM     19  O   UNL     1      -2.376  11.621  19.192  0.00  0.00    +0.000 OA
ATOM     20  C   UNL     1      -1.702  11.896  20.176  0.00  0.00    +0.000 C 
BRANCH  20  21
ATOM     21  O   UNL     1      -2.278  12.391  21.293  0.00  0.00    +0.000 OA
ATOM     22  H   UNL     1      -3.248  12.285  21.369  0.00  0.00    +0.000 HD
ENDBRANCH  20  21
ENDBRANCH  18  20
ENDBRANCH   9  18
ENDBRANCH   8  14
ENDBRANCH   7   8
ENDBRANCH   1   7
BRANCH   6  23
ATOM     23  C   UNL     1       5.190   4.285  15.695  0.00  0.00    +0.000 C 
BRANCH  23  24
ATOM     24  O   UNL     1       4.632   3.098  16.261  0.00  0.00    +0.000 OA
BRANCH  24  25
ATOM     25  C   UNL     1       3.925   3.252  17.426  0.00  0.00    +0.000 A 
ATOM     26  C   UNL     1       4.444   3.114  18.714  0.00  0.00    +0.000 A 
ATOM     27  C   UNL     1       3.619   3.275  19.831  0.00  0.00    +0.000 A 
ATOM     28  C   UNL     1       2.260   3.577  19.682  0.00  0.00    +0.000 A 
ATOM     29  C   UNL     1       1.746   3.743  18.387  0.00  0.00    +0.000 A 
ATOM     30  C   UNL     1       2.575   3.575  17.270  0.00  0.00    +0.000 A 
BRANCH  28  31
ATOM     31  C   UNL     1       1.360   3.699  20.888  0.00  0.00    +0.000 C 
ATOM     32  F   UNL     1       0.378   4.634  20.738  0.00  0.00    +0.000 F 
ATOM     33  F   UNL     1       0.721   2.536  21.191  0.00  0.00    +0.000 F 
ATOM     34  F   UNL     1       2.041   4.058  22.012  0.00  0.00    +0.000 F 
ENDBRANCH  28  31
ENDBRANCH  24  25
ENDBRANCH  23  24
ENDBRANCH   6  23
TORSDOF 10
ENDMDL
MODEL 5
REMARK VINA RESULT:      -8.3      1.139      1.312
REMARK  Name = 
REMARK  10 active torsions:
REMARK  status: ('A' for Active; 'I' for Inactive)
REMARK    1  A    between atoms: C_2  and  O_3
REMARK    2  A    between atoms: C_2  and  C_4
REMARK    3  A    between atoms: C_4  and  N_5
REMARK    4  A    between atoms: C_10  and  O_11
REMARK    5  A    between atoms: O_11  and  C_12
REMARK    6  A    between atoms: C_12  and  C_13
REMARK    7  A    between atoms: C_18  and  C_19
REMARK    8  A    between atoms: C_19  and  O_20
REMARK    9  A    between atoms: O_20  and  C_21
REMARK   10  A    between atoms: C_24  and  C_25
REMARK                            x       y       z     vdW  Elec       q    Type
REMARK                         _______ _______ _______ _____ _____    ______ ____
ROOT
ATOM      1  C   UNL     1       2.019   4.738  18.981  0.00  0.00    +0.000 A 
ATOM      2  C   UNL     1       1.152   4.404  20.041  0.00  0.00    +0.000 A 
ATOM      3  C   UNL     1       1.040   3.088  20.492  0.00  0.00    +0.000 A 
ATOM      4  C   UNL     1       1.779   2.080  19.886  0.00  0.00    +0.000 A 
ATOM      5  C   UNL     1       2.617   2.386  18.814  0.00  0.00    +0.000 A 
ATOM      6  C   UNL     1       2.738   3.706  18.338  0.00  0.00    +0.000 A 
ENDROOT
BRANCH   1   7
ATOM      7  C   UNL     1       2.167   6.200  18.605  0.00  0.00    +0.000 C 
BRANCH   7   8
ATOM      8  O   UNL     1       2.586   6.979  19.730  0.00  0.00    +0.000 OA
BRANCH   8  14
ATOM      9  N   UNL     1      -0.624  11.110  21.477  0.00  0.00    +0.000 N 
ATOM     10  C   UNL     1      -0.901  10.655  22.741  0.00  0.00    +0.000 A 
ATOM     11  C   UNL     1      -0.156   9.518  22.952  0.00  0.00    +0.000 A 
ATOM     12  C   UNL     1       0.522   9.212  21.742  0.00  0.00    +0.000 A 
ATOM     13  C   UNL     1       1.373   8.160  21.340  0.00  0.00    +0.000 A 
ATOM     14  C   UNL     1       1.829   8.089  20.017  0.00  0.00    +0.000 A 
ATOM     15  C   UNL     1       1.479   9.095  19.119  0.00  0.00    +0.000 A 
ATOM     16  C   UNL     1       0.671  10.179  19.503  0.00  0.00    +0.000 A 
ATOM     17  C   UNL     1       0.190  10.211  20.821  0.00  0.00    +0.000 A 
BRANCH   9  18
ATOM     18  C   UNL     1      -1.114  12.372  20.940  0.00  0.00    +0.000 C 
BRANCH  18  20
ATOM     19  O   UNL     1      -3.454  12.817  20.751  0.00  0.00    +0.000 OA
ATOM     20  C   UNL     1      -2.456  12.318  20.248  0.00  0.00    +0.000 C 
BRANCH  20  21
ATOM     21  O   UNL     1      -2.524  11.683  19.058  0.00  0.00    +0.000 OA
ATOM     22  H   UNL     1      -2.741  10.729  19.082  0.00  0.00    +0.000 HD
ENDBRANCH  20  21
ENDBRANCH  18  20
ENDBRANCH   9  18
ENDBRANCH   8  14
ENDBRANCH   7   8
ENDBRANCH   1   7
BRANCH   6  23
ATOM     23  C   UNL     1       3.661   3.960  17.168  0.00  0.00    +0.000 C 
BRANCH  23  24
ATOM     24  O   UNL     1       5.011   3.705  17.562  0.00  0.00    +0.000 OA
BRANCH  24  25
ATOM     25  C   UNL     1       5.830   4.798  17.673  0.00  0.00    +0.000 A 
ATOM     26  C   UNL     1       7.008   4.857  18.421  0.00  0.00    +0.000 A 
ATOM     27  C   UNL     1       7.754   6.038  18.476  0.00  0.00    +0.000 A 
ATOM     28  C   UNL     1       7.337   7.183  17.785  0.00  0.00    +0.000 A 
ATOM     29  C   UNL     1       6.168   7.113  17.012  0.00  0.00    +0.000 A 
ATOM     30  C   UNL     1       5.421   5.930  16.964  0.00  0.00    +0.000 A 
BRANCH  28  31
ATOM     31  C   UNL     1       8.115   8.473  17.888  0.00  0.00    +0.000 C 
ATOM     32  F   UNL     1       7.321   9.578  17.980  0.00  0.00    +0.000 F 
ATOM     33  F   UNL     1       8.932   8.511  18.976  0.00  0.00    +0.000 F 
ATOM     34  F   UNL     1       8.917   8.684  16.808  0.00  0.00    +0.000 F 
ENDBRANCH  28  31
ENDBRANCH  24  25
ENDBRANCH  23  24
ENDBRANCH   6  23
TORSDOF 10
ENDMDL
MODEL 6
REMARK VINA RESULT:      -8.3      3.271      4.945
REMARK  Name = 
REMARK  10 active torsions:
REMARK  status: ('A' for Active; 'I' for Inactive)
REMARK    1  A    between atoms: C_2  and  O_3
REMARK    2  A    between atoms: C_2  and  C_4
REMARK    3  A    between atoms: C_4  and  N_5
REMARK    4  A    between atoms: C_10  and  O_11
REMARK    5  A    between atoms: O_11  and  C_12
REMARK    6  A    between atoms: C_12  and  C_13
REMARK    7  A    between atoms: C_18  and  C_19
REMARK    8  A    between atoms: C_19  and  O_20
REMARK    9  A    between atoms: O_20  and  C_21
REMARK   10  A    between atoms: C_24  and  C_25
REMARK                            x       y       z     vdW  Elec       q    Type
REMARK                         _______ _______ _______ _____ _____    ______ ____
ROOT
ATOM      1  C   UNL     1       5.412   6.327  16.575  0.00  0.00    +0.000 A 
ATOM      2  C   UNL     1       5.145   6.246  15.195  0.00  0.00    +0.000 A 
ATOM      3  C   UNL     1       5.696   5.229  14.414  0.00  0.00    +0.000 A 
ATOM      4  C   UNL     1       6.534   4.284  14.993  0.00  0.00    +0.000 A 
ATOM      5  C   UNL     1       6.837   4.369  16.351  0.00  0.00    +0.000 A 
ATOM      6  C   UNL     1       6.298   5.392  17.155  0.00  0.00    +0.000 A 
ENDROOT
BRANCH   1   7
ATOM      7  C   UNL     1       4.704   7.398  17.384  0.00  0.00    +0.000 C 
BRANCH   7   8
ATOM      8  O   UNL     1       3.346   7.030  17.644  0.00  0.00    +0.000 OA
BRANCH   8  14
ATOM      9  N   UNL     1      -0.069  10.558  20.157  0.00  0.00    +0.000 N 
ATOM     10  C   UNL     1      -0.308   9.851  21.309  0.00  0.00    +0.000 A 
ATOM     11  C   UNL     1       0.500   8.739  21.295  0.00  0.00    +0.000 A 
ATOM     12  C   UNL     1       1.182   8.711  20.049  0.00  0.00    +0.000 A 
ATOM     13  C   UNL     1       2.085   7.807  19.451  0.00  0.00    +0.000 A 
ATOM     14  C   UNL     1       2.532   8.020  18.141  0.00  0.00    +0.000 A 
ATOM     15  C   UNL     1       2.118   9.160  17.455  0.00  0.00    +0.000 A 
ATOM     16  C   UNL     1       1.256  10.102  18.042  0.00  0.00    +0.000 A 
ATOM     17  C   UNL     1       0.786   9.850  19.340  0.00  0.00    +0.000 A 
BRANCH   9  18
ATOM     18  C   UNL     1      -0.633  11.871  19.876  0.00  0.00    +0.000 C 
BRANCH  18  20
ATOM     19  O   UNL     1      -2.650  11.347  18.706  0.00  0.00    +0.000 OA
ATOM     20  C   UNL     1      -1.581  11.944  18.702  0.00  0.00    +0.000 C 
BRANCH  20  21
ATOM     21  O   UNL     1      -1.203  12.679  17.634  0.00  0.00    +0.000 OA
ATOM     22  H   UNL     1      -1.824  13.376  17.340  0.00  0.00    +0.000 HD
ENDBRANCH  20  21
ENDBRANCH  18  20
ENDBRANCH   9  18
ENDBRANCH   8  14
ENDBRANCH   7   8
ENDBRANCH   1   7
BRANCH   6  23
ATOM     23  C   UNL     1       6.676   5.423  18.618  0.00  0.00    +0.000 C 
BRANCH  23  24
ATOM     24  O   UNL     1       6.428   4.142  19.202  0.00  0.00    +0.000 OA
BRANCH  24  25
ATOM     25  C   UNL     1       5.118   3.842  19.475  0.00  0.00    +0.000 A 
ATOM     26  C   UNL     1       4.525   2.587  19.320  0.00  0.00    +0.000 A 
ATOM     27  C   UNL     1       3.170   2.404  19.613  0.00  0.00    +0.000 A 
ATOM     28  C   UNL     1       2.382   3.470  20.063  0.00  0.00    +0.000 A 
ATOM     29  C   UNL     1       2.987   4.723  20.244  0.00  0.00    +0.000 A 
ATOM     30  C   UNL     1       4.344   4.905  19.946  0.00  0.00    +0.000 A 
BRANCH  28  31
ATOM     31  C   UNL     1       0.907   3.282  20.328  0.00  0.00    +0.000 C 
ATOM     32  F   UNL     1       0.647   2.627  21.496  0.00  0.00    +0.000 F 
ATOM     33  F   UNL     1       0.230   4.460  20.405  0.00  0.00    +0.000 F 
ATOM     34  F   UNL     1       0.292   2.557  19.353  0.00  0.00    +0.000 F 
ENDBRANCH  28  31
ENDBRANCH  24  25
ENDBRANCH  23  24
ENDBRANCH   6  23
TORSDOF 10
ENDMDL
MODEL 7
REMARK VINA RESULT:      -8.3      3.318      5.107
REMARK  Name = 
REMARK  10 active torsions:
REMARK  status: ('A' for Active; 'I' for Inactive)
REMARK    1  A    between atoms: C_2  and  O_3
REMARK    2  A    between atoms: C_2  and  C_4
REMARK    3  A    between atoms: C_4  and  N_5
REMARK    4  A    between atoms: C_10  and  O_11
REMARK    5  A    between atoms: O_11  and  C_12
REMARK    6  A    between atoms: C_12  and  C_13
REMARK    7  A    between atoms: C_18  and  C_19
REMARK    8  A    between atoms: C_19  and  O_20
REMARK    9  A    between atoms: O_20  and  C_21
REMARK   10  A    between atoms: C_24  and  C_25
REMARK                            x       y       z     vdW  Elec       q    Type
REMARK                         _______ _______ _______ _____ _____    ______ ____
ROOT
ATOM      1  C   UNL     1       5.720   6.119  17.375  0.00  0.00    +0.000 A 
ATOM      2  C   UNL     1       6.545   6.707  18.353  0.00  0.00    +0.000 A 
ATOM      3  C   UNL     1       7.779   6.147  18.687  0.00  0.00    +0.000 A 
ATOM      4  C   UNL     1       8.204   4.981  18.062  0.00  0.00    +0.000 A 
ATOM      5  C   UNL     1       7.386   4.366  17.116  0.00  0.00    +0.000 A 
ATOM      6  C   UNL     1       6.134   4.911  16.771  0.00  0.00    +0.000 A 
ENDROOT
BRANCH   1   7
ATOM      7  C   UNL     1       4.438   6.832  16.990  0.00  0.00    +0.000 C 
BRANCH   7   8
ATOM      8  O   UNL     1       3.375   6.500  17.889  0.00  0.00    +0.000 OA
BRANCH   8  14
ATOM      9  N   UNL     1       0.249  10.310  20.367  0.00  0.00    +0.000 N 
ATOM     10  C   UNL     1       0.005   9.659  21.550  0.00  0.00    +0.000 A 
ATOM     11  C   UNL     1       0.747   8.501  21.554  0.00  0.00    +0.000 A 
ATOM     12  C   UNL     1       1.388   8.390  20.291  0.00  0.00    +0.000 A 
ATOM     13  C   UNL     1       2.218   7.413  19.702  0.00  0.00    +0.000 A 
ATOM     14  C   UNL     1       2.636   7.553  18.372  0.00  0.00    +0.000 A 
ATOM     15  C   UNL     1       2.267   8.691  17.656  0.00  0.00    +0.000 A 
ATOM     16  C   UNL     1       1.480   9.702  18.232  0.00  0.00    +0.000 A 
ATOM     17  C   UNL     1       1.037   9.524  19.552  0.00  0.00    +0.000 A 
BRANCH   9  18
ATOM     18  C   UNL     1      -0.246  11.642  20.053  0.00  0.00    +0.000 C 
BRANCH  18  20
ATOM     19  O   UNL     1      -1.448  12.923  21.673  0.00  0.00    +0.000 OA
ATOM     20  C   UNL     1      -0.360  12.596  21.219  0.00  0.00    +0.000 C 
BRANCH  20  21
ATOM     21  O   UNL     1       0.784  13.093  21.738  0.00  0.00    +0.000 OA
ATOM     22  H   UNL     1       1.572  13.072  21.159  0.00  0.00    +0.000 HD
ENDBRANCH  20  21
ENDBRANCH  18  20
ENDBRANCH   9  18
ENDBRANCH   8  14
ENDBRANCH   7   8
ENDBRANCH   1   7
BRANCH   6  23
ATOM     23  C   UNL     1       5.299   4.185  15.741  0.00  0.00    +0.000 C 
BRANCH  23  24
ATOM     24  O   UNL     1       4.753   2.998  16.321  0.00  0.00    +0.000 OA
BRANCH  24  25
ATOM     25  C   UNL     1       3.979   3.169  17.440  0.00  0.00    +0.000 A 
ATOM     26  C   UNL     1       4.425   3.059  18.759  0.00  0.00    +0.000 A 
ATOM     27  C   UNL     1       3.537   3.235  19.824  0.00  0.00    +0.000 A 
ATOM     28  C   UNL     1       2.185   3.521  19.591  0.00  0.00    +0.000 A 
ATOM     29  C   UNL     1       1.746   3.658  18.266  0.00  0.00    +0.000 A 
ATOM     30  C   UNL     1       2.638   3.477  17.201  0.00  0.00    +0.000 A 
BRANCH  28  31
ATOM     31  C   UNL     1       1.217   3.658  20.742  0.00  0.00    +0.000 C 
ATOM     32  F   UNL     1       1.807   3.521  21.964  0.00  0.00    +0.000 F 
ATOM     33  F   UNL     1       0.592   4.866  20.765  0.00  0.00    +0.000 F 
ATOM     34  F   UNL     1       0.228   2.723  20.703  0.00  0.00    +0.000 F 
ENDBRANCH  28  31
ENDBRANCH  24  25
ENDBRANCH  23  24
ENDBRANCH   6  23
TORSDOF 10
ENDMDL
MODEL 8
REMARK VINA RESULT:      -8.2      3.563      5.713
REMARK  Name = 
REMARK  10 active torsions:
REMARK  status: ('A' for Active; 'I' for Inactive)
REMARK    1  A    between atoms: C_2  and  O_3
REMARK    2  A    between atoms: C_2  and  C_4
REMARK    3  A    between atoms: C_4  and  N_5
REMARK    4  A    between atoms: C_10  and  O_11
REMARK    5  A    between atoms: O_11  and  C_12
REMARK    6  A    between atoms: C_12  and  C_13
REMARK    7  A    between atoms: C_18  and  C_19
REMARK    8  A    between atoms: C_19  and  O_20
REMARK    9  A    between atoms: O_20  and  C_21
REMARK   10  A    between atoms: C_24  and  C_25
REMARK                            x       y       z     vdW  Elec       q    Type
REMARK                         _______ _______ _______ _____ _____    ______ ____
ROOT
ATOM      1  C   UNL     1       6.318   6.615  17.462  0.00  0.00    +0.000 A 
ATOM      2  C   UNL     1       7.187   7.045  18.484  0.00  0.00    +0.000 A 
ATOM      3  C   UNL     1       8.178   6.202  18.988  0.00  0.00    +0.000 A 
ATOM      4  C   UNL     1       8.310   4.910  18.493  0.00  0.00    +0.000 A 
ATOM      5  C   UNL     1       7.437   4.456  17.506  0.00  0.00    +0.000 A 
ATOM      6  C   UNL     1       6.425   5.289  16.989  0.00  0.00    +0.000 A 
ENDROOT
BRANCH   1   7
ATOM      7  C   UNL     1       5.329   7.614  16.890  0.00  0.00    +0.000 C 
BRANCH   7   8
ATOM      8  O   UNL     1       4.017   7.048  16.812  0.00  0.00    +0.000 OA
BRANCH   8  14
ATOM      9  N   UNL     1       0.500   8.981  20.596  0.00  0.00    +0.000 N 
ATOM     10  C   UNL     1       0.190  10.186  20.015  0.00  0.00    +0.000 A 
ATOM     11  C   UNL     1       0.791  10.223  18.778  0.00  0.00    +0.000 A 
ATOM     12  C   UNL     1       1.575   9.046  18.639  0.00  0.00    +0.000 A 
ATOM     13  C   UNL     1       2.438   8.562  17.633  0.00  0.00    +0.000 A 
ATOM     14  C   UNL     1       3.153   7.373  17.830  0.00  0.00    +0.000 A 
ATOM     15  C   UNL     1       2.961   6.648  19.004  0.00  0.00    +0.000 A 
ATOM     16  C   UNL     1       2.073   7.081  20.003  0.00  0.00    +0.000 A 
ATOM     17  C   UNL     1       1.398   8.295  19.806  0.00  0.00    +0.000 A 
BRANCH   9  18
ATOM     18  C   UNL     1      -0.069   8.513  21.852  0.00  0.00    +0.000 C 
BRANCH  18  20
ATOM     19  O   UNL     1       1.026   9.730  23.593  0.00  0.00    +0.000 OA
ATOM     20  C   UNL     1      -0.020   9.490  23.003  0.00  0.00    +0.000 C 
BRANCH  20  21
ATOM     21  O   UNL     1      -1.176  10.081  23.375  0.00  0.00    +0.000 OA
ATOM     22  H   UNL     1      -1.288  11.020  23.125  0.00  0.00    +0.000 HD
ENDBRANCH  20  21
ENDBRANCH  18  20
ENDBRANCH   9  18
ENDBRANCH   8  14
ENDBRANCH   7   8
ENDBRANCH   1   7
BRANCH   6  23
ATOM     23  C   UNL     1       5.512   4.725  15.924  0.00  0.00    +0.000 C 
BRANCH  23  24
ATOM     24  O   UNL     1       5.075   3.421  16.314  0.00  0.00    +0.000 OA
BRANCH  24  25
ATOM     25  C   UNL     1       4.016   3.369  17.183  0.00  0.00    +0.000 A 
ATOM     26  C   UNL     1       2.696   3.706  16.875  0.00  0.00    +0.000 A 
ATOM     27  C   UNL     1       1.700   3.633  17.853  0.00  0.00    +0.000 A 
ATOM     28  C   UNL     1       2.003   3.222  19.157  0.00  0.00    +0.000 A 
ATOM     29  C   UNL     1       3.324   2.858  19.457  0.00  0.00    +0.000 A 
ATOM     30  C   UNL     1       4.321   2.937  18.476  0.00  0.00    +0.000 A 
BRANCH  28  31
ATOM     31  C   UNL     1       0.936   3.194  20.225  0.00  0.00    +0.000 C 
ATOM     32  F   UNL     1      -0.179   2.502  19.856  0.00  0.00    +0.000 F 
ATOM     33  F   UNL     1       1.363   2.621  21.383  0.00  0.00    +0.000 F 
ATOM     34  F   UNL     1       0.502   4.441  20.560  0.00  0.00    +0.000 F 
ENDBRANCH  28  31
ENDBRANCH  24  25
ENDBRANCH  23  24
ENDBRANCH   6  23
TORSDOF 10
ENDMDL
MODEL 9
REMARK VINA RESULT:      -8.2      3.519      5.557
REMARK  Name = 
REMARK  10 active torsions:
REMARK  status: ('A' for Active; 'I' for Inactive)
REMARK    1  A    between atoms: C_2  and  O_3
REMARK    2  A    between atoms: C_2  and  C_4
REMARK    3  A    between atoms: C_4  and  N_5
REMARK    4  A    between atoms: C_10  and  O_11
REMARK    5  A    between atoms: O_11  and  C_12
REMARK    6  A    between atoms: C_12  and  C_13
REMARK    7  A    between atoms: C_18  and  C_19
REMARK    8  A    between atoms: C_19  and  O_20
REMARK    9  A    between atoms: O_20  and  C_21
REMARK   10  A    between atoms: C_24  and  C_25
REMARK                            x       y       z     vdW  Elec       q    Type
REMARK                         _______ _______ _______ _____ _____    ______ ____
ROOT
ATOM      1  C   UNL     1       6.198   6.423  17.570  0.00  0.00    +0.000 A 
ATOM      2  C   UNL     1       7.021   6.856  18.627  0.00  0.00    +0.000 A 
ATOM      3  C   UNL     1       8.109   6.092  19.052  0.00  0.00    +0.000 A 
ATOM      4  C   UNL     1       8.385   4.876  18.441  0.00  0.00    +0.000 A 
ATOM      5  C   UNL     1       7.561   4.414  17.416  0.00  0.00    +0.000 A 
ATOM      6  C   UNL     1       6.454   5.166  16.977  0.00  0.00    +0.000 A 
ENDROOT
BRANCH   1   7
ATOM      7  C   UNL     1       5.093   7.346  17.092  0.00  0.00    +0.000 C 
BRANCH   7   8
ATOM      8  O   UNL     1       3.815   6.711  17.191  0.00  0.00    +0.000 OA
BRANCH   8  14
ATOM      9  N   UNL     1       0.326   9.468  20.456  0.00  0.00    +0.000 N 
ATOM     10  C   UNL     1       0.189  10.614  19.713  0.00  0.00    +0.000 A 
ATOM     11  C   UNL     1       0.860  10.431  18.527  0.00  0.00    +0.000 A 
ATOM     12  C   UNL     1       1.513   9.170  18.587  0.00  0.00    +0.000 A 
ATOM     13  C   UNL     1       2.372   8.474  17.710  0.00  0.00    +0.000 A 
ATOM     14  C   UNL     1       2.936   7.252  18.098  0.00  0.00    +0.000 A 
ATOM     15  C   UNL     1       2.596   6.706  19.335  0.00  0.00    +0.000 A 
ATOM     16  C   UNL     1       1.707   7.354  20.209  0.00  0.00    +0.000 A 
ATOM     17  C   UNL     1       1.186   8.597  19.820  0.00  0.00    +0.000 A 
BRANCH   9  18
ATOM     18  C   UNL     1      -0.362   9.226  21.715  0.00  0.00    +0.000 C 
BRANCH  18  20
ATOM     19  O   UNL     1       1.086   9.589  23.581  0.00  0.00    +0.000 OA
ATOM     20  C   UNL     1       0.151  10.000  22.907  0.00  0.00    +0.000 C 
BRANCH  20  21
ATOM     21  O   UNL     1      -0.471  11.158  23.219  0.00  0.00    +0.000 OA
ATOM     22  H   UNL     1      -1.015  11.158  24.032  0.00  0.00    +0.000 HD
ENDBRANCH  20  21
ENDBRANCH  18  20
ENDBRANCH   9  18
ENDBRANCH   8  14
ENDBRANCH   7   8
ENDBRANCH   1   7
BRANCH   6  23
ATOM     23  C   UNL     1       5.602   4.599  15.864  0.00  0.00    +0.000 C 
BRANCH  23  24
ATOM     24  O   UNL     1       5.106   3.316  16.251  0.00  0.00    +0.000 OA
BRANCH  24  25
ATOM     25  C   UNL     1       4.225   3.295  17.301  0.00  0.00    +0.000 A 
ATOM     26  C   UNL     1       4.574   3.282  18.653  0.00  0.00    +0.000 A 
ATOM     27  C   UNL     1       3.584   3.240  19.640  0.00  0.00    +0.000 A 
ATOM     28  C   UNL     1       2.227   3.208  19.294  0.00  0.00    +0.000 A 
ATOM     29  C   UNL     1       1.879   3.249  17.936  0.00  0.00    +0.000 A 
ATOM     30  C   UNL     1       2.873   3.286  16.950  0.00  0.00    +0.000 A 
BRANCH  28  31
ATOM     31  C   UNL     1       1.162   3.110  20.360  0.00  0.00    +0.000 C 
ATOM     32  F   UNL     1       1.403   2.128  21.276  0.00  0.00    +0.000 F 
ATOM     33  F   UNL     1       1.022   4.259  21.075  0.00  0.00    +0.000 F 
ATOM     34  F   UNL     1      -0.068   2.836  19.842  0.00  0.00    +0.000 F 
ENDBRANCH  28  31
ENDBRANCH  24  25
ENDBRANCH  23  24
ENDBRANCH   6  23
TORSDOF 10
ENDMDL
