MODEL 1
REMARK VINA RESULT:      -6.5      0.000      0.000
REMARK  Name = 
REMARK  14 active torsions:
REMARK  status: ('A' for Active; 'I' for Inactive)
REMARK    1  A    between atoms: C_1  and  O_2
REMARK    2  A    between atoms: O_2  and  C_3
REMARK    3  A    between atoms: C_3  and  C_5
REMARK    4  A    between atoms: C_5  and  C_6
REMARK    5  A    between atoms: C_5  and  N_10
REMARK    6  A    between atoms: C_6  and  C_7
REMARK    7  A    between atoms: C_7  and  C_8
REMARK    8  A    between atoms: C_7  and  C_9
REMARK    9  A    between atoms: C_11  and  C_13
REMARK   10  A    between atoms: C_13  and  N_14
REMARK   11  A    between atoms: C_13  and  C_15
REMARK   12  A    between atoms: C_15  and  C_16
REMARK   13  A    between atoms: C_16  and  C_17
REMARK   14  A    between atoms: C_16  and  C_18
REMARK                            x       y       z     vdW  Elec       q    Type
REMARK                         _______ _______ _______ _____ _____    ______ ____
ROOT
ATOM      1  N   UNL     1       5.009   3.778  16.651  0.00  0.00    +0.000 N 
ATOM      2  C   UNL     1       4.235   4.831  17.112  0.00  0.00    +0.000 C 
ATOM      3  O   UNL     1       4.398   5.997  16.777  0.00  0.00    +0.000 OA
ATOM      4  H   UNL     1       4.569   2.862  16.772  0.00  0.00    +0.000 HD
ENDROOT
BRANCH   1   5
ATOM      5  C   UNL     1       6.056   3.868  15.625  0.00  0.00    +0.000 C 
BRANCH   5   6
ATOM      6  C   UNL     1       7.203   4.805  16.057  0.00  0.00    +0.000 C 
ATOM      7  O   UNL     1       7.539   5.821  15.447  0.00  0.00    +0.000 OA
BRANCH   6   9
ATOM      8  C   UNL     1       7.694   5.279  18.313  0.00  0.00    +0.000 C 
ATOM      9  O   UNL     1       7.777   4.364  17.218  0.00  0.00    +0.000 OA
ENDBRANCH   6   9
ENDBRANCH   5   6
BRANCH   5  10
ATOM     10  C   UNL     1       5.523   4.246  14.229  0.00  0.00    +0.000 C 
BRANCH  10  11
ATOM     11  C   UNL     1       6.075   3.556  12.955  0.00  0.00    +0.000 C 
ATOM     12  C   UNL     1       4.998   3.180  11.943  0.00  0.00    +0.000 C 
ATOM     13  C   UNL     1       7.214   4.308  12.263  0.00  0.00    +0.000 C 
ENDBRANCH  10  11
ENDBRANCH   5  10
ENDBRANCH   1   5
BRANCH   2  14
ATOM     14  C   UNL     1       3.158   4.341  18.132  0.00  0.00    +0.000 C 
BRANCH  14  15
ATOM     15  N   UNL     1       2.834   5.477  19.029  0.00  0.00    +0.000 NA
ATOM     16  H   UNL     1       1.822   5.617  19.011  0.00  0.00    +0.000 HD
ATOM     17  H   UNL     1       3.229   6.333  18.641  0.00  0.00    +0.000 HD
ENDBRANCH  14  15
BRANCH  14  18
ATOM     18  C   UNL     1       3.521   3.062  18.925  0.00  0.00    +0.000 C 
BRANCH  18  19
ATOM     19  C   UNL     1       2.291   2.288  19.486  0.00  0.00    +0.000 C 
ATOM     20  C   UNL     1       1.998   2.662  20.942  0.00  0.00    +0.000 C 
ATOM     21  C   UNL     1       1.025   2.500  18.649  0.00  0.00    +0.000 C 
ENDBRANCH  18  19
ENDBRANCH  14  18
ENDBRANCH   2  14
TORSDOF 9
ENDMDL
MODEL 2
REMARK VINA RESULT:      -6.4      2.001      6.189
REMARK  Name = 
REMARK  14 active torsions:
REMARK  status: ('A' for Active; 'I' for Inactive)
REMARK    1  A    between atoms: C_1  and  O_2
REMARK    2  A    between atoms: O_2  and  C_3
REMARK    3  A    between atoms: C_3  and  C_5
REMARK    4  A    between atoms: C_5  and  C_6
REMARK    5  A    between atoms: C_5  and  N_10
REMARK    6  A    between atoms: C_6  and  C_7
REMARK    7  A    between atoms: C_7  and  C_8
REMARK    8  A    between atoms: C_7  and  C_9
REMARK    9  A    between atoms: C_11  and  C_13
REMARK   10  A    between atoms: C_13  and  N_14
REMARK   11  A    between atoms: C_13  and  C_15
REMARK   12  A    between atoms: C_15  and  C_16
REMARK   13  A    between atoms: C_16  and  C_17
REMARK   14  A    between atoms: C_16  and  C_18
REMARK                            x       y       z     vdW  Elec       q    Type
REMARK                         _______ _______ _______ _____ _____    ______ ____
ROOT
ATOM      1  N   UNL     1       4.802   4.152  16.629  0.00  0.00    +0.000 N 
ATOM      2  C   UNL     1       6.177   4.302  16.552  0.00  0.00    +0.000 C 
ATOM      3  O   UNL     1       6.907   4.427  17.526  0.00  0.00    +0.000 OA
ATOM      4  H   UNL     1       4.385   3.760  15.781  0.00  0.00    +0.000 HD
ENDROOT
BRANCH   1   5
ATOM      5  C   UNL     1       4.023   4.009  17.866  0.00  0.00    +0.000 C 
BRANCH   5   6
ATOM      6  C   UNL     1       4.147   2.592  18.462  0.00  0.00    +0.000 C 
ATOM      7  O   UNL     1       3.652   1.581  17.960  0.00  0.00    +0.000 OA
BRANCH   6   9
ATOM      8  C   UNL     1       4.210   2.172  20.780  0.00  0.00    +0.000 C 
ATOM      9  O   UNL     1       4.897   2.611  19.606  0.00  0.00    +0.000 OA
ENDBRANCH   6   9
ENDBRANCH   5   6
BRANCH   5  10
ATOM     10  C   UNL     1       2.547   4.426  17.718  0.00  0.00    +0.000 C 
BRANCH  10  11
ATOM     11  C   UNL     1       1.679   4.729  18.966  0.00  0.00    +0.000 C 
ATOM     12  C   UNL     1       0.935   3.512  19.509  0.00  0.00    +0.000 C 
ATOM     13  C   UNL     1       2.413   5.451  20.097  0.00  0.00    +0.000 C 
ENDBRANCH  10  11
ENDBRANCH   5  10
ENDBRANCH   1   5
BRANCH   2  14
ATOM     14  C   UNL     1       6.665   4.325  15.068  0.00  0.00    +0.000 C 
BRANCH  14  15
ATOM     15  N   UNL     1       7.569   5.489  14.906  0.00  0.00    +0.000 NA
ATOM     16  H   UNL     1       8.404   5.176  14.407  0.00  0.00    +0.000 HD
ATOM     17  H   UNL     1       7.903   5.785  15.823  0.00  0.00    +0.000 HD
ENDBRANCH  14  15
BRANCH  14  18
ATOM     18  C   UNL     1       5.548   4.306  13.997  0.00  0.00    +0.000 C 
BRANCH  18  19
ATOM     19  C   UNL     1       5.867   3.422  12.755  0.00  0.00    +0.000 C 
ATOM     20  C   UNL     1       4.662   3.297  11.818  0.00  0.00    +0.000 C 
ATOM     21  C   UNL     1       7.072   3.934  11.957  0.00  0.00    +0.000 C 
ENDBRANCH  18  19
ENDBRANCH  14  18
ENDBRANCH   2  14
TORSDOF 9
ENDMDL
MODEL 3
REMARK VINA RESULT:      -6.4      1.629      2.328
REMARK  Name = 
REMARK  14 active torsions:
REMARK  status: ('A' for Active; 'I' for Inactive)
REMARK    1  A    between atoms: C_1  and  O_2
REMARK    2  A    between atoms: O_2  and  C_3
REMARK    3  A    between atoms: C_3  and  C_5
REMARK    4  A    between atoms: C_5  and  C_6
REMARK    5  A    between atoms: C_5  and  N_10
REMARK    6  A    between atoms: C_6  and  C_7
REMARK    7  A    between atoms: C_7  and  C_8
REMARK    8  A    between atoms: C_7  and  C_9
REMARK    9  A    between atoms: C_11  and  C_13
REMARK   10  A    between atoms: C_13  and  N_14
REMARK   11  A    between atoms: C_13  and  C_15
REMARK   12  A    between atoms: C_15  and  C_16
REMARK   13  A    between atoms: C_16  and  C_17
REMARK   14  A    between atoms: C_16  and  C_18
REMARK                            x       y       z     vdW  Elec       q    Type
REMARK                         _______ _______ _______ _____ _____    ______ ____
ROOT
ATOM      1  N   UNL     1       4.963   3.720  17.693  0.00  0.00    +0.000 N 
ATOM      2  C   UNL     1       3.667   3.229  17.677  0.00  0.00    +0.000 C 
ATOM      3  O   UNL     1       2.812   3.582  16.877  0.00  0.00    +0.000 OA
ATOM      4  H   UNL     1       5.621   3.123  18.199  0.00  0.00    +0.000 HD
ENDROOT
BRANCH   1   5
ATOM      5  C   UNL     1       5.542   4.641  16.707  0.00  0.00    +0.000 C 
BRANCH   5   6
ATOM      6  C   UNL     1       5.208   6.112  17.031  0.00  0.00    +0.000 C 
ATOM      7  O   UNL     1       4.178   6.484  17.595  0.00  0.00    +0.000 OA
BRANCH   6   9
ATOM      8  C   UNL     1       7.383   6.913  17.457  0.00  0.00    +0.000 C 
ATOM      9  O   UNL     1       6.220   6.939  16.626  0.00  0.00    +0.000 OA
ENDBRANCH   6   9
ENDBRANCH   5   6
BRANCH   5  10
ATOM     10  C   UNL     1       5.181   4.295  15.250  0.00  0.00    +0.000 C 
BRANCH  10  11
ATOM     11  C   UNL     1       6.285   3.949  14.218  0.00  0.00    +0.000 C 
ATOM     12  C   UNL     1       5.744   3.506  12.862  0.00  0.00    +0.000 C 
ATOM     13  C   UNL     1       7.353   5.029  14.037  0.00  0.00    +0.000 C 
ENDBRANCH  10  11
ENDBRANCH   5  10
ENDBRANCH   1   5
BRANCH   2  14
ATOM     14  C   UNL     1       3.435   2.198  18.828  0.00  0.00    +0.000 C 
BRANCH  14  15
ATOM     15  N   UNL     1       4.159   0.953  18.474  0.00  0.00    +0.000 NA
ATOM     16  H   UNL     1       4.967   0.868  19.093  0.00  0.00    +0.000 HD
ATOM     17  H   UNL     1       4.551   1.048  17.537  0.00  0.00    +0.000 HD
ENDBRANCH  14  15
BRANCH  14  18
ATOM     18  C   UNL     1       1.956   1.924  19.193  0.00  0.00    +0.000 C 
BRANCH  18  19
ATOM     19  C   UNL     1       1.465   2.665  20.472  0.00  0.00    +0.000 C 
ATOM     20  C   UNL     1       2.553   2.724  21.549  0.00  0.00    +0.000 C 
ATOM     21  C   UNL     1       0.970   4.086  20.180  0.00  0.00    +0.000 C 
ENDBRANCH  18  19
ENDBRANCH  14  18
ENDBRANCH   2  14
TORSDOF 9
ENDMDL
MODEL 4
REMARK VINA RESULT:      -6.4      2.308      4.332
REMARK  Name = 
REMARK  14 active torsions:
REMARK  status: ('A' for Active; 'I' for Inactive)
REMARK    1  A    between atoms: C_1  and  O_2
REMARK    2  A    between atoms: O_2  and  C_3
REMARK    3  A    between atoms: C_3  and  C_5
REMARK    4  A    between atoms: C_5  and  C_6
REMARK    5  A    between atoms: C_5  and  N_10
REMARK    6  A    between atoms: C_6  and  C_7
REMARK    7  A    between atoms: C_7  and  C_8
REMARK    8  A    between atoms: C_7  and  C_9
REMARK    9  A    between atoms: C_11  and  C_13
REMARK   10  A    between atoms: C_13  and  N_14
REMARK   11  A    between atoms: C_13  and  C_15
REMARK   12  A    between atoms: C_15  and  C_16
REMARK   13  A    between atoms: C_16  and  C_17
REMARK   14  A    between atoms: C_16  and  C_18
REMARK                            x       y       z     vdW  Elec       q    Type
REMARK                         _______ _______ _______ _____ _____    ______ ____
ROOT
ATOM      1  N   UNL     1       3.778   4.443  18.054  0.00  0.00    +0.000 N 
ATOM      2  C   UNL     1       4.667   4.048  19.041  0.00  0.00    +0.000 C 
ATOM      3  O   UNL     1       5.757   4.571  19.228  0.00  0.00    +0.000 OA
ATOM      4  H   UNL     1       2.818   4.131  18.218  0.00  0.00    +0.000 HD
ENDROOT
BRANCH   1   5
ATOM      5  C   UNL     1       3.946   5.596  17.160  0.00  0.00    +0.000 C 
BRANCH   5   6
ATOM      6  C   UNL     1       5.253   5.505  16.346  0.00  0.00    +0.000 C 
ATOM      7  O   UNL     1       6.182   6.311  16.429  0.00  0.00    +0.000 OA
BRANCH   6   9
ATOM      8  C   UNL     1       6.539   3.963  15.113  0.00  0.00    +0.000 C 
ATOM      9  O   UNL     1       5.247   4.399  15.541  0.00  0.00    +0.000 OA
ENDBRANCH   6   9
ENDBRANCH   5   6
BRANCH   5  10
ATOM     10  C   UNL     1       3.827   6.955  17.876  0.00  0.00    +0.000 C 
BRANCH  10  11
ATOM     11  C   UNL     1       2.444   7.510  18.302  0.00  0.00    +0.000 C 
ATOM     12  C   UNL     1       2.172   7.402  19.800  0.00  0.00    +0.000 C 
ATOM     13  C   UNL     1       2.144   8.928  17.810  0.00  0.00    +0.000 C 
ENDBRANCH  10  11
ENDBRANCH   5  10
ENDBRANCH   1   5
BRANCH   2  14
ATOM     14  C   UNL     1       4.110   2.837  19.857  0.00  0.00    +0.000 C 
BRANCH  14  15
ATOM     15  N   UNL     1       5.146   1.776  19.856  0.00  0.00    +0.000 NA
ATOM     16  H   UNL     1       5.714   1.888  19.014  0.00  0.00    +0.000 HD
ATOM     17  H   UNL     1       4.695   0.867  19.754  0.00  0.00    +0.000 HD
ENDBRANCH  14  15
BRANCH  14  18
ATOM     18  C   UNL     1       2.732   2.301  19.400  0.00  0.00    +0.000 C 
BRANCH  18  19
ATOM     19  C   UNL     1       1.566   2.613  20.385  0.00  0.00    +0.000 C 
ATOM     20  C   UNL     1       2.054   2.709  21.833  0.00  0.00    +0.000 C 
ATOM     21  C   UNL     1       0.813   3.898  20.022  0.00  0.00    +0.000 C 
ENDBRANCH  18  19
ENDBRANCH  14  18
ENDBRANCH   2  14
TORSDOF 9
ENDMDL
MODEL 5
REMARK VINA RESULT:      -6.4      2.457      4.301
REMARK  Name = 
REMARK  14 active torsions:
REMARK  status: ('A' for Active; 'I' for Inactive)
REMARK    1  A    between atoms: C_1  and  O_2
REMARK    2  A    between atoms: O_2  and  C_3
REMARK    3  A    between atoms: C_3  and  C_5
REMARK    4  A    between atoms: C_5  and  C_6
REMARK    5  A    between atoms: C_5  and  N_10
REMARK    6  A    between atoms: C_6  and  C_7
REMARK    7  A    between atoms: C_7  and  C_8
REMARK    8  A    between atoms: C_7  and  C_9
REMARK    9  A    between atoms: C_11  and  C_13
REMARK   10  A    between atoms: C_13  and  N_14
REMARK   11  A    between atoms: C_13  and  C_15
REMARK   12  A    between atoms: C_15  and  C_16
REMARK   13  A    between atoms: C_16  and  C_17
REMARK   14  A    between atoms: C_16  and  C_18
REMARK                            x       y       z     vdW  Elec       q    Type
REMARK                         _______ _______ _______ _____ _____    ______ ____
ROOT
ATOM      1  N   UNL     1       3.611   4.001  17.813  0.00  0.00    +0.000 N 
ATOM      2  C   UNL     1       4.321   3.360  18.816  0.00  0.00    +0.000 C 
ATOM      3  O   UNL     1       5.366   3.784  19.292  0.00  0.00    +0.000 OA
ATOM      4  H   UNL     1       2.637   3.698  17.744  0.00  0.00    +0.000 HD
ENDROOT
BRANCH   1   5
ATOM      5  C   UNL     1       3.927   5.318  17.247  0.00  0.00    +0.000 C 
BRANCH   5   6
ATOM      6  C   UNL     1       5.297   5.324  16.537  0.00  0.00    +0.000 C 
ATOM      7  O   UNL     1       5.737   4.388  15.868  0.00  0.00    +0.000 OA
BRANCH   6   9
ATOM      8  C   UNL     1       7.283   6.400  17.208  0.00  0.00    +0.000 C 
ATOM      9  O   UNL     1       5.940   6.515  16.734  0.00  0.00    +0.000 OA
ENDBRANCH   6   9
ENDBRANCH   5   6
BRANCH   5  10
ATOM     10  C   UNL     1       3.821   6.470  18.265  0.00  0.00    +0.000 C 
BRANCH  10  11
ATOM     11  C   UNL     1       2.484   7.225  18.474  0.00  0.00    +0.000 C 
ATOM     12  C   UNL     1       2.113   7.425  19.940  0.00  0.00    +0.000 C 
ATOM     13  C   UNL     1       2.368   8.547  17.712  0.00  0.00    +0.000 C 
ENDBRANCH  10  11
ENDBRANCH   5  10
ENDBRANCH   1   5
BRANCH   2  14
ATOM     14  C   UNL     1       3.635   2.019  19.231  0.00  0.00    +0.000 C 
BRANCH  14  15
ATOM     15  N   UNL     1       4.204   0.939  18.388  0.00  0.00    +0.000 NA
ATOM     16  H   UNL     1       3.461   0.586  17.781  0.00  0.00    +0.000 HD
ATOM     17  H   UNL     1       4.461   0.151  18.981  0.00  0.00    +0.000 HD
ENDBRANCH  14  15
BRANCH  14  18
ATOM     18  C   UNL     1       2.088   2.022  19.202  0.00  0.00    +0.000 C 
BRANCH  18  19
ATOM     19  C   UNL     1       1.426   2.648  20.465  0.00  0.00    +0.000 C 
ATOM     20  C   UNL     1       2.391   2.687  21.654  0.00  0.00    +0.000 C 
ATOM     21  C   UNL     1       0.883   4.059  20.212  0.00  0.00    +0.000 C 
ENDBRANCH  18  19
ENDBRANCH  14  18
ENDBRANCH   2  14
TORSDOF 9
ENDMDL
MODEL 6
REMARK VINA RESULT:      -6.4      0.936      1.249
REMARK  Name = 
REMARK  14 active torsions:
REMARK  status: ('A' for Active; 'I' for Inactive)
REMARK    1  A    between atoms: C_1  and  O_2
REMARK    2  A    between atoms: O_2  and  C_3
REMARK    3  A    between atoms: C_3  and  C_5
REMARK    4  A    between atoms: C_5  and  C_6
REMARK    5  A    between atoms: C_5  and  N_10
REMARK    6  A    between atoms: C_6  and  C_7
REMARK    7  A    between atoms: C_7  and  C_8
REMARK    8  A    between atoms: C_7  and  C_9
REMARK    9  A    between atoms: C_11  and  C_13
REMARK   10  A    between atoms: C_13  and  N_14
REMARK   11  A    between atoms: C_13  and  C_15
REMARK   12  A    between atoms: C_15  and  C_16
REMARK   13  A    between atoms: C_16  and  C_17
REMARK   14  A    between atoms: C_16  and  C_18
REMARK                            x       y       z     vdW  Elec       q    Type
REMARK                         _______ _______ _______ _____ _____    ______ ____
ROOT
ATOM      1  N   UNL     1       4.684   4.435  17.157  0.00  0.00    +0.000 N 
ATOM      2  C   UNL     1       4.018   5.609  17.471  0.00  0.00    +0.000 C 
ATOM      3  O   UNL     1       4.395   6.721  17.129  0.00  0.00    +0.000 OA
ATOM      4  H   UNL     1       4.102   3.598  17.241  0.00  0.00    +0.000 HD
ENDROOT
BRANCH   1   5
ATOM      5  C   UNL     1       5.863   4.324  16.288  0.00  0.00    +0.000 C 
BRANCH   5   6
ATOM      6  C   UNL     1       7.059   5.127  16.841  0.00  0.00    +0.000 C 
ATOM      7  O   UNL     1       7.559   6.104  16.282  0.00  0.00    +0.000 OA
BRANCH   6   9
ATOM      8  C   UNL     1       7.652   5.590  19.074  0.00  0.00    +0.000 C 
ATOM      9  O   UNL     1       7.471   4.618  18.042  0.00  0.00    +0.000 OA
ENDBRANCH   6   9
ENDBRANCH   5   6
BRANCH   5  10
ATOM     10  C   UNL     1       5.583   4.683  14.816  0.00  0.00    +0.000 C 
BRANCH  10  11
ATOM     11  C   UNL     1       6.388   4.020  13.670  0.00  0.00    +0.000 C 
ATOM     12  C   UNL     1       5.515   3.387  12.590  0.00  0.00    +0.000 C 
ATOM     13  C   UNL     1       7.453   4.916  13.034  0.00  0.00    +0.000 C 
ENDBRANCH  10  11
ENDBRANCH   5  10
ENDBRANCH   1   5
BRANCH   2  14
ATOM     14  C   UNL     1       2.751   5.328  18.342  0.00  0.00    +0.000 C 
BRANCH  14  15
ATOM     15  N   UNL     1       2.586   6.465  19.280  0.00  0.00    +0.000 NA
ATOM     16  H   UNL     1       2.398   6.084  20.210  0.00  0.00    +0.000 HD
ATOM     17  H   UNL     1       1.745   6.985  19.031  0.00  0.00    +0.000 HD
ENDBRANCH  14  15
BRANCH  14  18
ATOM     18  C   UNL     1       2.732   3.965  19.074  0.00  0.00    +0.000 C 
BRANCH  18  19
ATOM     19  C   UNL     1       1.328   3.541  19.599  0.00  0.00    +0.000 C 
ATOM     20  C   UNL     1       0.741   2.383  18.785  0.00  0.00    +0.000 C 
ATOM     21  C   UNL     1       1.342   3.156  21.083  0.00  0.00    +0.000 C 
ENDBRANCH  18  19
ENDBRANCH  14  18
ENDBRANCH   2  14
TORSDOF 9
ENDMDL
MODEL 7
REMARK VINA RESULT:      -6.3      1.669      2.417
REMARK  Name = 
REMARK  14 active torsions:
REMARK  status: ('A' for Active; 'I' for Inactive)
REMARK    1  A    between atoms: C_1  and  O_2
REMARK    2  A    between atoms: O_2  and  C_3
REMARK    3  A    between atoms: C_3  and  C_5
REMARK    4  A    between atoms: C_5  and  C_6
REMARK    5  A    between atoms: C_5  and  N_10
REMARK    6  A    between atoms: C_6  and  C_7
REMARK    7  A    between atoms: C_7  and  C_8
REMARK    8  A    between atoms: C_7  and  C_9
REMARK    9  A    between atoms: C_11  and  C_13
REMARK   10  A    between atoms: C_13  and  N_14
REMARK   11  A    between atoms: C_13  and  C_15
REMARK   12  A    between atoms: C_15  and  C_16
REMARK   13  A    between atoms: C_16  and  C_17
REMARK   14  A    between atoms: C_16  and  C_18
REMARK                            x       y       z     vdW  Elec       q    Type
REMARK                         _______ _______ _______ _____ _____    ______ ____
ROOT
ATOM      1  N   UNL     1       5.156   3.477  17.755  0.00  0.00    +0.000 N 
ATOM      2  C   UNL     1       3.786   3.282  17.818  0.00  0.00    +0.000 C 
ATOM      3  O   UNL     1       2.976   3.904  17.143  0.00  0.00    +0.000 OA
ATOM      4  H   UNL     1       5.699   2.697  18.133  0.00  0.00    +0.000 HD
ENDROOT
BRANCH   1   5
ATOM      5  C   UNL     1       5.854   4.362  16.814  0.00  0.00    +0.000 C 
BRANCH   5   6
ATOM      6  C   UNL     1       5.845   5.829  17.291  0.00  0.00    +0.000 C 
ATOM      7  O   UNL     1       6.609   6.289  18.141  0.00  0.00    +0.000 OA
BRANCH   6   9
ATOM      8  C   UNL     1       3.914   7.168  17.464  0.00  0.00    +0.000 C 
ATOM      9  O   UNL     1       4.891   6.549  16.625  0.00  0.00    +0.000 OA
ENDBRANCH   6   9
ENDBRANCH   5   6
BRANCH   5  10
ATOM     10  C   UNL     1       5.348   4.244  15.363  0.00  0.00    +0.000 C 
BRANCH  10  11
ATOM     11  C   UNL     1       6.332   3.962  14.199  0.00  0.00    +0.000 C 
ATOM     12  C   UNL     1       5.646   3.595  12.887  0.00  0.00    +0.000 C 
ATOM     13  C   UNL     1       7.376   5.057  13.964  0.00  0.00    +0.000 C 
ENDBRANCH  10  11
ENDBRANCH   5  10
ENDBRANCH   1   5
BRANCH   2  14
ATOM     14  C   UNL     1       3.413   2.197  18.878  0.00  0.00    +0.000 C 
BRANCH  14  15
ATOM     15  N   UNL     1       4.024   0.916  18.448  0.00  0.00    +0.000 NA
ATOM     16  H   UNL     1       3.559   0.615  17.589  0.00  0.00    +0.000 HD
ATOM     17  H   UNL     1       3.806   0.194  19.135  0.00  0.00    +0.000 HD
ENDBRANCH  14  15
BRANCH  14  18
ATOM     18  C   UNL     1       1.902   2.046  19.178  0.00  0.00    +0.000 C 
BRANCH  18  19
ATOM     19  C   UNL     1       1.447   2.702  20.516  0.00  0.00    +0.000 C 
ATOM     20  C   UNL     1       2.563   2.689  21.565  0.00  0.00    +0.000 C 
ATOM     21  C   UNL     1       0.949   4.139  20.331  0.00  0.00    +0.000 C 
ENDBRANCH  18  19
ENDBRANCH  14  18
ENDBRANCH   2  14
TORSDOF 9
ENDMDL
MODEL 8
REMARK VINA RESULT:      -6.3      1.748      5.720
REMARK  Name = 
REMARK  14 active torsions:
REMARK  status: ('A' for Active; 'I' for Inactive)
REMARK    1  A    between atoms: C_1  and  O_2
REMARK    2  A    between atoms: O_2  and  C_3
REMARK    3  A    between atoms: C_3  and  C_5
REMARK    4  A    between atoms: C_5  and  C_6
REMARK    5  A    between atoms: C_5  and  N_10
REMARK    6  A    between atoms: C_6  and  C_7
REMARK    7  A    between atoms: C_7  and  C_8
REMARK    8  A    between atoms: C_7  and  C_9
REMARK    9  A    between atoms: C_11  and  C_13
REMARK   10  A    between atoms: C_13  and  N_14
REMARK   11  A    between atoms: C_13  and  C_15
REMARK   12  A    between atoms: C_15  and  C_16
REMARK   13  A    between atoms: C_16  and  C_17
REMARK   14  A    between atoms: C_16  and  C_18
REMARK                            x       y       z     vdW  Elec       q    Type
REMARK                         _______ _______ _______ _____ _____    ______ ____
ROOT
ATOM      1  N   UNL     1       5.534   4.059  15.956  0.00  0.00    +0.000 N 
ATOM      2  C   UNL     1       5.835   5.042  15.026  0.00  0.00    +0.000 C 
ATOM      3  O   UNL     1       5.346   6.164  15.034  0.00  0.00    +0.000 OA
ATOM      4  H   UNL     1       6.229   3.311  16.001  0.00  0.00    +0.000 HD
ENDROOT
BRANCH   1   5
ATOM      5  C   UNL     1       4.682   4.232  17.140  0.00  0.00    +0.000 C 
BRANCH   5   6
ATOM      6  C   UNL     1       5.516   4.443  18.421  0.00  0.00    +0.000 C 
ATOM      7  O   UNL     1       5.037   4.628  19.540  0.00  0.00    +0.000 OA
BRANCH   6   9
ATOM      8  C   UNL     1       7.597   5.548  18.476  0.00  0.00    +0.000 C 
ATOM      9  O   UNL     1       6.855   4.373  18.144  0.00  0.00    +0.000 OA
ENDBRANCH   6   9
ENDBRANCH   5   6
BRANCH   5  10
ATOM     10  C   UNL     1       3.648   3.105  17.327  0.00  0.00    +0.000 C 
BRANCH  10  11
ATOM     11  C   UNL     1       2.150   3.432  17.552  0.00  0.00    +0.000 C 
ATOM     12  C   UNL     1       1.455   2.492  18.533  0.00  0.00    +0.000 C 
ATOM     13  C   UNL     1       1.860   4.889  17.917  0.00  0.00    +0.000 C 
ENDBRANCH  10  11
ENDBRANCH   5  10
ENDBRANCH   1   5
BRANCH   2  14
ATOM     14  C   UNL     1       6.848   4.522  13.957  0.00  0.00    +0.000 C 
BRANCH  14  15
ATOM     15  N   UNL     1       8.042   5.400  13.998  0.00  0.00    +0.000 NA
ATOM     16  H   UNL     1       8.219   5.649  14.973  0.00  0.00    +0.000 HD
ATOM     17  H   UNL     1       7.825   6.282  13.533  0.00  0.00    +0.000 HD
ENDBRANCH  14  15
BRANCH  14  18
ATOM     18  C   UNL     1       6.288   4.373  12.522  0.00  0.00    +0.000 C 
BRANCH  18  19
ATOM     19  C   UNL     1       5.477   3.065  12.284  0.00  0.00    +0.000 C 
ATOM     20  C   UNL     1       4.216   3.318  11.452  0.00  0.00    +0.000 C 
ATOM     21  C   UNL     1       6.309   1.967  11.612  0.00  0.00    +0.000 C 
ENDBRANCH  18  19
ENDBRANCH  14  18
ENDBRANCH   2  14
TORSDOF 9
ENDMDL
MODEL 9
REMARK VINA RESULT:      -6.3      1.813      2.679
REMARK  Name = 
REMARK  14 active torsions:
REMARK  status: ('A' for Active; 'I' for Inactive)
REMARK    1  A    between atoms: C_1  and  O_2
REMARK    2  A    between atoms: O_2  and  C_3
REMARK    3  A    between atoms: C_3  and  C_5
REMARK    4  A    between atoms: C_5  and  C_6
REMARK    5  A    between atoms: C_5  and  N_10
REMARK    6  A    between atoms: C_6  and  C_7
REMARK    7  A    between atoms: C_7  and  C_8
REMARK    8  A    between atoms: C_7  and  C_9
REMARK    9  A    between atoms: C_11  and  C_13
REMARK   10  A    between atoms: C_13  and  N_14
REMARK   11  A    between atoms: C_13  and  C_15
REMARK   12  A    between atoms: C_15  and  C_16
REMARK   13  A    between atoms: C_16  and  C_17
REMARK   14  A    between atoms: C_16  and  C_18
REMARK                            x       y       z     vdW  Elec       q    Type
REMARK                         _______ _______ _______ _____ _____    ______ ____
ROOT
ATOM      1  N   UNL     1       5.079   4.672  18.076  0.00  0.00    +0.000 N 
ATOM      2  C   UNL     1       4.319   4.005  19.024  0.00  0.00    +0.000 C 
ATOM      3  O   UNL     1       4.758   3.131  19.760  0.00  0.00    +0.000 OA
ATOM      4  H   UNL     1       4.667   5.556  17.769  0.00  0.00    +0.000 HD
ENDROOT
BRANCH   1   5
ATOM      5  C   UNL     1       6.527   4.523  17.879  0.00  0.00    +0.000 C 
BRANCH   5   6
ATOM      6  C   UNL     1       7.321   5.640  18.590  0.00  0.00    +0.000 C 
ATOM      7  O   UNL     1       8.233   5.441  19.393  0.00  0.00    +0.000 OA
BRANCH   6   9
ATOM      8  C   UNL     1       7.922   7.764  17.767  0.00  0.00    +0.000 C 
ATOM      9  O   UNL     1       6.887   6.873  18.187  0.00  0.00    +0.000 OA
ENDBRANCH   6   9
ENDBRANCH   5   6
BRANCH   5  10
ATOM     10  C   UNL     1       6.940   4.400  16.400  0.00  0.00    +0.000 C 
BRANCH  10  11
ATOM     11  C   UNL     1       5.894   4.560  15.267  0.00  0.00    +0.000 C 
ATOM     12  C   UNL     1       5.388   5.989  15.093  0.00  0.00    +0.000 C 
ATOM     13  C   UNL     1       6.320   3.980  13.917  0.00  0.00    +0.000 C 
ENDBRANCH  10  11
ENDBRANCH   5  10
ENDBRANCH   1   5
BRANCH   2  14
ATOM     14  C   UNL     1       2.833   4.488  19.004  0.00  0.00    +0.000 C 
BRANCH  14  15
ATOM     15  N   UNL     1       2.777   5.747  18.223  0.00  0.00    +0.000 NA
ATOM     16  H   UNL     1       3.710   6.164  18.226  0.00  0.00    +0.000 HD
ATOM     17  H   UNL     1       2.185   6.418  18.712  0.00  0.00    +0.000 HD
ENDBRANCH  14  15
BRANCH  14  18
ATOM     18  C   UNL     1       2.160   4.635  20.390  0.00  0.00    +0.000 C 
BRANCH  18  19
ATOM     19  C   UNL     1       1.136   3.510  20.725  0.00  0.00    +0.000 C 
ATOM     20  C   UNL     1       0.707   2.738  19.474  0.00  0.00    +0.000 C 
ATOM     21  C   UNL     1       1.665   2.520  21.769  0.00  0.00    +0.000 C 
ENDBRANCH  18  19
ENDBRANCH  14  18
ENDBRANCH   2  14
TORSDOF 9
ENDMDL
