MODEL 1
REMARK VINA RESULT:      -7.6      0.000      0.000
REMARK  Name = 
REMARK  5 active torsions:
REMARK  status: ('A' for Active; 'I' for Inactive)
REMARK    1  A    between atoms: C_1  and  C_2
REMARK    2  A    between atoms: C_2  and  C_3
REMARK    3  A    between atoms: C_2  and  C_6
REMARK    4  A    between atoms: C_3  and  O_5
REMARK    5  A    between atoms: C_12  and  O_13
REMARK                            x       y       z     vdW  Elec       q    Type
REMARK                         _______ _______ _______ _____ _____    ______ ____
ROOT
ATOM      1  C   UNL     1       2.522   3.947  19.294  0.00  0.00    +0.000 A 
ATOM      2  C   UNL     1       1.823   4.213  20.482  0.00  0.00    +0.000 A 
ATOM      3  C   UNL     1       1.640   5.531  20.910  0.00  0.00    +0.000 A 
ATOM      4  C   UNL     1       2.138   6.590  20.150  0.00  0.00    +0.000 A 
ATOM      5  C   UNL     1       2.870   6.349  18.986  0.00  0.00    +0.000 A 
ATOM      6  C   UNL     1       3.034   5.025  18.556  0.00  0.00    +0.000 A 
ATOM      7  C   UNL     1       3.406   7.527  18.219  0.00  0.00    +0.000 C 
ATOM      8  C   UNL     1       2.242   8.291  17.587  0.00  0.00    +0.000 C 
ATOM      9  C   UNL     1       1.284   8.973  18.534  0.00  0.00    +0.000 A 
ATOM     10  C   UNL     1       0.413   9.920  17.959  0.00  0.00    +0.000 A 
ATOM     11  C   UNL     1      -0.483  10.648  18.739  0.00  0.00    +0.000 A 
ATOM     12  C   UNL     1      -0.524  10.445  20.113  0.00  0.00    +0.000 A 
ATOM     13  C   UNL     1       0.314   9.497  20.696  0.00  0.00    +0.000 A 
ATOM     14  C   UNL     1       1.199   8.740  19.914  0.00  0.00    +0.000 A 
ATOM     15  O   UNL     1       1.982   7.864  20.641  0.00  0.00    +0.000 OA
ENDROOT
BRANCH   1  17
ATOM     16  C   UNL     1       2.547   2.472  17.279  0.00  0.00    +0.000 C 
ATOM     17  C   UNL     1       2.692   2.517  18.802  0.00  0.00    +0.000 C 
BRANCH  17  18
ATOM     18  C   UNL     1       4.006   1.876  19.250  0.00  0.00    +0.000 C 
ATOM     19  O   UNL     1       4.738   2.316  20.124  0.00  0.00    +0.000 OA
BRANCH  18  20
ATOM     20  O   UNL     1       4.318   0.745  18.567  0.00  0.00    +0.000 OA
ATOM     21  H   UNL     1       3.562   0.359  18.080  0.00  0.00    +0.000 HD
ENDBRANCH  18  20
ENDBRANCH  17  18
ENDBRANCH   1  17
BRANCH   7  22
ATOM     22  O   UNL     1       4.322   7.118  17.201  0.00  0.00    +0.000 OA
ATOM     23  H   UNL     1       5.129   6.798  17.637  0.00  0.00    +0.000 HD
ENDBRANCH   7  22
TORSDOF 4
ENDMDL
MODEL 2
REMARK VINA RESULT:      -7.5      2.540      3.808
REMARK  Name = 
REMARK  5 active torsions:
REMARK  status: ('A' for Active; 'I' for Inactive)
REMARK    1  A    between atoms: C_1  and  C_2
REMARK    2  A    between atoms: C_2  and  C_3
REMARK    3  A    between atoms: C_2  and  C_6
REMARK    4  A    between atoms: C_3  and  O_5
REMARK    5  A    between atoms: C_12  and  O_13
REMARK                            x       y       z     vdW  Elec       q    Type
REMARK                         _______ _______ _______ _____ _____    ______ ____
ROOT
ATOM      1  C   UNL     1       5.459   5.719  18.378  0.00  0.00    +0.000 A 
ATOM      2  C   UNL     1       5.288   6.624  17.319  0.00  0.00    +0.000 A 
ATOM      3  C   UNL     1       4.077   7.306  17.165  0.00  0.00    +0.000 A 
ATOM      4  C   UNL     1       3.038   7.101  18.072  0.00  0.00    +0.000 A 
ATOM      5  C   UNL     1       3.169   6.176  19.109  0.00  0.00    +0.000 A 
ATOM      6  C   UNL     1       4.392   5.511  19.266  0.00  0.00    +0.000 A 
ATOM      7  C   UNL     1       2.007   5.976  20.043  0.00  0.00    +0.000 C 
ATOM      8  C   UNL     1       1.821   7.231  20.896  0.00  0.00    +0.000 C 
ATOM      9  C   UNL     1       1.397   8.487  20.171  0.00  0.00    +0.000 A 
ATOM     10  C   UNL     1       0.928   9.541  20.980  0.00  0.00    +0.000 A 
ATOM     11  C   UNL     1       0.465  10.732  20.424  0.00  0.00    +0.000 A 
ATOM     12  C   UNL     1       0.460  10.891  19.043  0.00  0.00    +0.000 A 
ATOM     13  C   UNL     1       0.942   9.868  18.229  0.00  0.00    +0.000 A 
ATOM     14  C   UNL     1       1.435   8.677  18.782  0.00  0.00    +0.000 A 
ATOM     15  O   UNL     1       1.848   7.751  17.845  0.00  0.00    +0.000 OA
ENDROOT
BRANCH   1  17
ATOM     16  C   UNL     1       7.334   4.543  17.222  0.00  0.00    +0.000 C 
ATOM     17  C   UNL     1       6.787   5.003  18.575  0.00  0.00    +0.000 C 
BRANCH  17  18
ATOM     18  C   UNL     1       7.818   5.841  19.331  0.00  0.00    +0.000 C 
ATOM     19  O   UNL     1       8.362   6.845  18.895  0.00  0.00    +0.000 OA
BRANCH  18  20
ATOM     20  O   UNL     1       8.107   5.360  20.567  0.00  0.00    +0.000 OA
ATOM     21  H   UNL     1       7.345   5.374  21.181  0.00  0.00    +0.000 HD
ENDBRANCH  18  20
ENDBRANCH  17  18
ENDBRANCH   1  17
BRANCH   7  22
ATOM     22  O   UNL     1       2.205   4.843  20.892  0.00  0.00    +0.000 OA
ATOM     23  H   UNL     1       1.363   4.360  20.945  0.00  0.00    +0.000 HD
ENDBRANCH   7  22
TORSDOF 4
ENDMDL
MODEL 3
REMARK VINA RESULT:      -7.5      1.455      1.749
REMARK  Name = 
REMARK  5 active torsions:
REMARK  status: ('A' for Active; 'I' for Inactive)
REMARK    1  A    between atoms: C_1  and  C_2
REMARK    2  A    between atoms: C_2  and  C_3
REMARK    3  A    between atoms: C_2  and  C_6
REMARK    4  A    between atoms: C_3  and  O_5
REMARK    5  A    between atoms: C_12  and  O_13
REMARK                            x       y       z     vdW  Elec       q    Type
REMARK                         _______ _______ _______ _____ _____    ______ ____
ROOT
ATOM      1  C   UNL     1       2.095   4.759  18.604  0.00  0.00    +0.000 A 
ATOM      2  C   UNL     1       1.767   4.723  19.968  0.00  0.00    +0.000 A 
ATOM      3  C   UNL     1       1.701   5.907  20.707  0.00  0.00    +0.000 A 
ATOM      4  C   UNL     1       1.945   7.133  20.089  0.00  0.00    +0.000 A 
ATOM      5  C   UNL     1       2.311   7.192  18.743  0.00  0.00    +0.000 A 
ATOM      6  C   UNL     1       2.358   6.002  18.006  0.00  0.00    +0.000 A 
ATOM      7  C   UNL     1       2.588   8.540  18.134  0.00  0.00    +0.000 C 
ATOM      8  C   UNL     1       1.282   9.329  18.036  0.00  0.00    +0.000 C 
ATOM      9  C   UNL     1       0.632   9.728  19.340  0.00  0.00    +0.000 A 
ATOM     10  C   UNL     1      -0.380  10.706  19.254  0.00  0.00    +0.000 A 
ATOM     11  C   UNL     1      -1.020  11.189  20.393  0.00  0.00    +0.000 A 
ATOM     12  C   UNL     1      -0.659  10.705  21.644  0.00  0.00    +0.000 A 
ATOM     13  C   UNL     1       0.323   9.721  21.747  0.00  0.00    +0.000 A 
ATOM     14  C   UNL     1       0.953   9.210  20.602  0.00  0.00    +0.000 A 
ATOM     15  O   UNL     1       1.923   8.263  20.871  0.00  0.00    +0.000 OA
ENDROOT
BRANCH   1  17
ATOM     16  C   UNL     1       3.582   3.107  17.464  0.00  0.00    +0.000 C 
ATOM     17  C   UNL     1       2.131   3.478  17.783  0.00  0.00    +0.000 C 
BRANCH  17  18
ATOM     18  C   UNL     1       1.399   2.313  18.450  0.00  0.00    +0.000 C 
ATOM     19  O   UNL     1       0.184   2.204  18.534  0.00  0.00    +0.000 OA
BRANCH  18  20
ATOM     20  O   UNL     1       2.232   1.379  18.977  0.00  0.00    +0.000 OA
ATOM     21  H   UNL     1       3.139   1.414  18.614  0.00  0.00    +0.000 HD
ENDBRANCH  18  20
ENDBRANCH  17  18
ENDBRANCH   1  17
BRANCH   7  22
ATOM     22  O   UNL     1       3.175   8.418  16.836  0.00  0.00    +0.000 OA
ATOM     23  H   UNL     1       2.544   7.947  16.267  0.00  0.00    +0.000 HD
ENDBRANCH   7  22
TORSDOF 4
ENDMDL
MODEL 4
REMARK VINA RESULT:      -7.1      1.103      1.349
REMARK  Name = 
REMARK  5 active torsions:
REMARK  status: ('A' for Active; 'I' for Inactive)
REMARK    1  A    between atoms: C_1  and  C_2
REMARK    2  A    between atoms: C_2  and  C_3
REMARK    3  A    between atoms: C_2  and  C_6
REMARK    4  A    between atoms: C_3  and  O_5
REMARK    5  A    between atoms: C_12  and  O_13
REMARK                            x       y       z     vdW  Elec       q    Type
REMARK                         _______ _______ _______ _____ _____    ______ ____
ROOT
ATOM      1  C   UNL     1       2.093   4.320  19.414  0.00  0.00    +0.000 A 
ATOM      2  C   UNL     1       1.519   4.623  20.658  0.00  0.00    +0.000 A 
ATOM      3  C   UNL     1       1.421   5.951  21.082  0.00  0.00    +0.000 A 
ATOM      4  C   UNL     1       1.879   6.984  20.263  0.00  0.00    +0.000 A 
ATOM      5  C   UNL     1       2.489   6.705  19.039  0.00  0.00    +0.000 A 
ATOM      6  C   UNL     1       2.568   5.371  18.615  0.00  0.00    +0.000 A 
ATOM      7  C   UNL     1       2.988   7.855  18.208  0.00  0.00    +0.000 C 
ATOM      8  C   UNL     1       1.795   8.650  17.676  0.00  0.00    +0.000 C 
ATOM      9  C   UNL     1       0.954   9.376  18.700  0.00  0.00    +0.000 A 
ATOM     10  C   UNL     1       0.064  10.345  18.195  0.00  0.00    +0.000 A 
ATOM     11  C   UNL     1      -0.730  11.112  19.045  0.00  0.00    +0.000 A 
ATOM     12  C   UNL     1      -0.647  10.927  20.420  0.00  0.00    +0.000 A 
ATOM     13  C   UNL     1       0.211   9.957  20.935  0.00  0.00    +0.000 A 
ATOM     14  C   UNL     1       0.993   9.162  20.085  0.00  0.00    +0.000 A 
ATOM     15  O   UNL     1       1.811   8.268  20.748  0.00  0.00    +0.000 OA
ENDROOT
BRANCH   1  17
ATOM     16  C   UNL     1       0.765   2.271  18.888  0.00  0.00    +0.000 C 
ATOM     17  C   UNL     1       2.169   2.879  18.929  0.00  0.00    +0.000 C 
BRANCH  17  18
ATOM     18  C   UNL     1       2.873   2.732  17.579  0.00  0.00    +0.000 C 
ATOM     19  O   UNL     1       2.370   2.986  16.495  0.00  0.00    +0.000 OA
BRANCH  18  20
ATOM     20  O   UNL     1       4.144   2.267  17.679  0.00  0.00    +0.000 OA
ATOM     21  H   UNL     1       4.668   2.704  18.380  0.00  0.00    +0.000 HD
ENDBRANCH  18  20
ENDBRANCH  17  18
ENDBRANCH   1  17
BRANCH   7  22
ATOM     22  O   UNL     1       3.790   7.403  17.114  0.00  0.00    +0.000 OA
ATOM     23  H   UNL     1       4.610   7.925  17.109  0.00  0.00    +0.000 HD
ENDBRANCH   7  22
TORSDOF 4
ENDMDL
MODEL 5
REMARK VINA RESULT:      -7.0      2.592      3.666
REMARK  Name = 
REMARK  5 active torsions:
REMARK  status: ('A' for Active; 'I' for Inactive)
REMARK    1  A    between atoms: C_1  and  C_2
REMARK    2  A    between atoms: C_2  and  C_3
REMARK    3  A    between atoms: C_2  and  C_6
REMARK    4  A    between atoms: C_3  and  O_5
REMARK    5  A    between atoms: C_12  and  O_13
REMARK                            x       y       z     vdW  Elec       q    Type
REMARK                         _______ _______ _______ _____ _____    ______ ____
ROOT
ATOM      1  C   UNL     1       5.124   5.369  17.301  0.00  0.00    +0.000 A 
ATOM      2  C   UNL     1       5.049   6.651  16.736  0.00  0.00    +0.000 A 
ATOM      3  C   UNL     1       3.944   7.468  16.990  0.00  0.00    +0.000 A 
ATOM      4  C   UNL     1       2.917   7.019  17.820  0.00  0.00    +0.000 A 
ATOM      5  C   UNL     1       2.950   5.733  18.362  0.00  0.00    +0.000 A 
ATOM      6  C   UNL     1       4.070   4.928  18.115  0.00  0.00    +0.000 A 
ATOM      7  C   UNL     1       1.804   5.291  19.229  0.00  0.00    +0.000 C 
ATOM      8  C   UNL     1       1.828   6.077  20.540  0.00  0.00    +0.000 C 
ATOM      9  C   UNL     1       1.564   7.561  20.446  0.00  0.00    +0.000 A 
ATOM     10  C   UNL     1       1.279   8.218  21.660  0.00  0.00    +0.000 A 
ATOM     11  C   UNL     1       0.972   9.577  21.694  0.00  0.00    +0.000 A 
ATOM     12  C   UNL     1       0.943  10.307  20.512  0.00  0.00    +0.000 A 
ATOM     13  C   UNL     1       1.245   9.679  19.305  0.00  0.00    +0.000 A 
ATOM     14  C   UNL     1       1.581   8.318  19.265  0.00  0.00    +0.000 A 
ATOM     15  O   UNL     1       1.826   7.837  17.994  0.00  0.00    +0.000 OA
ENDROOT
BRANCH   1  17
ATOM     16  C   UNL     1       6.880   4.723  15.646  0.00  0.00    +0.000 C 
ATOM     17  C   UNL     1       6.342   4.489  17.060  0.00  0.00    +0.000 C 
BRANCH  17  18
ATOM     18  C   UNL     1       7.442   4.680  18.106  0.00  0.00    +0.000 C 
ATOM     19  O   UNL     1       7.344   5.375  19.107  0.00  0.00    +0.000 OA
BRANCH  18  20
ATOM     20  O   UNL     1       8.584   4.005  17.821  0.00  0.00    +0.000 OA
ATOM     21  H   UNL     1       8.631   3.120  18.237  0.00  0.00    +0.000 HD
ENDBRANCH  18  20
ENDBRANCH  17  18
ENDBRANCH   1  17
BRANCH   7  22
ATOM     22  O   UNL     1       1.866   3.889  19.507  0.00  0.00    +0.000 OA
ATOM     23  H   UNL     1       2.455   3.481  18.851  0.00  0.00    +0.000 HD
ENDBRANCH   7  22
TORSDOF 4
ENDMDL
MODEL 6
REMARK VINA RESULT:      -6.6      3.738      5.770
REMARK  Name = 
REMARK  5 active torsions:
REMARK  status: ('A' for Active; 'I' for Inactive)
REMARK    1  A    between atoms: C_1  and  C_2
REMARK    2  A    between atoms: C_2  and  C_3
REMARK    3  A    between atoms: C_2  and  C_6
REMARK    4  A    between atoms: C_3  and  O_5
REMARK    5  A    between atoms: C_12  and  O_13
REMARK                            x       y       z     vdW  Elec       q    Type
REMARK                         _______ _______ _______ _____ _____    ______ ____
ROOT
ATOM      1  C   UNL     1       5.816   4.759  14.938  0.00  0.00    +0.000 A 
ATOM      2  C   UNL     1       6.327   3.687  15.686  0.00  0.00    +0.000 A 
ATOM      3  C   UNL     1       6.012   3.561  17.042  0.00  0.00    +0.000 A 
ATOM      4  C   UNL     1       5.175   4.494  17.655  0.00  0.00    +0.000 A 
ATOM      5  C   UNL     1       4.686   5.590  16.943  0.00  0.00    +0.000 A 
ATOM      6  C   UNL     1       4.993   5.697  15.580  0.00  0.00    +0.000 A 
ATOM      7  C   UNL     1       3.808   6.578  17.660  0.00  0.00    +0.000 C 
ATOM      8  C   UNL     1       2.468   5.920  17.988  0.00  0.00    +0.000 C 
ATOM      9  C   UNL     1       2.496   4.782  18.981  0.00  0.00    +0.000 A 
ATOM     10  C   UNL     1       1.250   4.392  19.512  0.00  0.00    +0.000 A 
ATOM     11  C   UNL     1       1.153   3.387  20.472  0.00  0.00    +0.000 A 
ATOM     12  C   UNL     1       2.304   2.751  20.923  0.00  0.00    +0.000 A 
ATOM     13  C   UNL     1       3.542   3.108  20.392  0.00  0.00    +0.000 A 
ATOM     14  C   UNL     1       3.645   4.100  19.406  0.00  0.00    +0.000 A 
ATOM     15  O   UNL     1       4.941   4.359  19.003  0.00  0.00    +0.000 OA
ENDROOT
BRANCH   1  17
ATOM     16  C   UNL     1       7.616   5.149  13.252  0.00  0.00    +0.000 C 
ATOM     17  C   UNL     1       6.123   4.880  13.452  0.00  0.00    +0.000 C 
BRANCH  17  18
ATOM     18  C   UNL     1       5.668   3.665  12.641  0.00  0.00    +0.000 C 
ATOM     19  O   UNL     1       4.520   3.452  12.282  0.00  0.00    +0.000 OA
BRANCH  18  20
ATOM     20  O   UNL     1       6.673   2.800  12.350  0.00  0.00    +0.000 OA
ATOM     21  H   UNL     1       6.692   2.522  11.413  0.00  0.00    +0.000 HD
ENDBRANCH  18  20
ENDBRANCH  17  18
ENDBRANCH   1  17
BRANCH   7  22
ATOM     22  O   UNL     1       3.588   7.752  16.874  0.00  0.00    +0.000 OA
ATOM     23  H   UNL     1       3.136   8.405  17.435  0.00  0.00    +0.000 HD
ENDBRANCH   7  22
TORSDOF 4
ENDMDL
MODEL 7
REMARK VINA RESULT:      -6.6      1.369      1.622
REMARK  Name = 
REMARK  5 active torsions:
REMARK  status: ('A' for Active; 'I' for Inactive)
REMARK    1  A    between atoms: C_1  and  C_2
REMARK    2  A    between atoms: C_2  and  C_3
REMARK    3  A    between atoms: C_2  and  C_6
REMARK    4  A    between atoms: C_3  and  O_5
REMARK    5  A    between atoms: C_12  and  O_13
REMARK                            x       y       z     vdW  Elec       q    Type
REMARK                         _______ _______ _______ _____ _____    ______ ____
ROOT
ATOM      1  C   UNL     1       2.459   4.575  19.628  0.00  0.00    +0.000 A 
ATOM      2  C   UNL     1       1.826   4.921  20.832  0.00  0.00    +0.000 A 
ATOM      3  C   UNL     1       1.564   6.261  21.130  0.00  0.00    +0.000 A 
ATOM      4  C   UNL     1       1.918   7.262  20.224  0.00  0.00    +0.000 A 
ATOM      5  C   UNL     1       2.583   6.946  19.038  0.00  0.00    +0.000 A 
ATOM      6  C   UNL     1       2.825   5.599  18.741  0.00  0.00    +0.000 A 
ATOM      7  C   UNL     1       2.963   8.067  18.110  0.00  0.00    +0.000 C 
ATOM      8  C   UNL     1       1.699   8.665  17.494  0.00  0.00    +0.000 C 
ATOM      9  C   UNL     1       0.756   9.377  18.436  0.00  0.00    +0.000 A 
ATOM     10  C   UNL     1      -0.229  10.184  17.834  0.00  0.00    +0.000 A 
ATOM     11  C   UNL     1      -1.125  10.927  18.600  0.00  0.00    +0.000 A 
ATOM     12  C   UNL     1      -1.052  10.878  19.987  0.00  0.00    +0.000 A 
ATOM     13  C   UNL     1      -0.099  10.067  20.599  0.00  0.00    +0.000 A 
ATOM     14  C   UNL     1       0.789   9.295  19.835  0.00  0.00    +0.000 A 
ATOM     15  O   UNL     1       1.691   8.568  20.587  0.00  0.00    +0.000 OA
ENDROOT
BRANCH   1  17
ATOM     16  C   UNL     1       3.011   2.322  20.554  0.00  0.00    +0.000 C 
ATOM     17  C   UNL     1       2.711   3.115  19.280  0.00  0.00    +0.000 C 
BRANCH  17  18
ATOM     18  C   UNL     1       1.568   2.477  18.489  0.00  0.00    +0.000 C 
ATOM     19  O   UNL     1       0.392   2.492  18.822  0.00  0.00    +0.000 OA
BRANCH  18  20
ATOM     20  O   UNL     1       1.976   1.856  17.353  0.00  0.00    +0.000 OA
ATOM     21  H   UNL     1       2.941   1.907  17.203  0.00  0.00    +0.000 HD
ENDBRANCH  18  20
ENDBRANCH  17  18
ENDBRANCH   1  17
BRANCH   7  22
ATOM     22  O   UNL     1       3.837   7.615  17.071  0.00  0.00    +0.000 OA
ATOM     23  H   UNL     1       4.631   7.245  17.491  0.00  0.00    +0.000 HD
ENDBRANCH   7  22
TORSDOF 4
ENDMDL
MODEL 8
REMARK VINA RESULT:      -6.5      2.603      4.565
REMARK  Name = 
REMARK  5 active torsions:
REMARK  status: ('A' for Active; 'I' for Inactive)
REMARK    1  A    between atoms: C_1  and  C_2
REMARK    2  A    between atoms: C_2  and  C_3
REMARK    3  A    between atoms: C_2  and  C_6
REMARK    4  A    between atoms: C_3  and  O_5
REMARK    5  A    between atoms: C_12  and  O_13
REMARK                            x       y       z     vdW  Elec       q    Type
REMARK                         _______ _______ _______ _____ _____    ______ ____
ROOT
ATOM      1  C   UNL     1       1.719   8.157  19.517  0.00  0.00    +0.000 A 
ATOM      2  C   UNL     1       1.503   7.904  20.880  0.00  0.00    +0.000 A 
ATOM      3  C   UNL     1       1.018   8.914  21.715  0.00  0.00    +0.000 A 
ATOM      4  C   UNL     1       0.731  10.176  21.193  0.00  0.00    +0.000 A 
ATOM      5  C   UNL     1       0.975  10.464  19.849  0.00  0.00    +0.000 A 
ATOM      6  C   UNL     1       1.445   9.439  19.017  0.00  0.00    +0.000 A 
ATOM      7  C   UNL     1       0.671  11.848  19.346  0.00  0.00    +0.000 C 
ATOM      8  C   UNL     1      -0.842  12.064  19.340  0.00  0.00    +0.000 C 
ATOM      9  C   UNL     1      -1.528  12.089  20.686  0.00  0.00    +0.000 A 
ATOM     10  C   UNL     1      -2.844  12.593  20.701  0.00  0.00    +0.000 A 
ATOM     11  C   UNL     1      -3.563  12.709  21.890  0.00  0.00    +0.000 A 
ATOM     12  C   UNL     1      -2.976  12.324  23.090  0.00  0.00    +0.000 A 
ATOM     13  C   UNL     1      -1.684  11.802  23.090  0.00  0.00    +0.000 A 
ATOM     14  C   UNL     1      -0.965  11.656  21.895  0.00  0.00    +0.000 A 
ATOM     15  O   UNL     1       0.310  11.152  22.065  0.00  0.00    +0.000 OA
ENDROOT
BRANCH   1  17
ATOM     16  C   UNL     1       3.381   7.560  17.751  0.00  0.00    +0.000 C 
ATOM     17  C   UNL     1       2.210   7.050  18.595  0.00  0.00    +0.000 C 
BRANCH  17  18
ATOM     18  C   UNL     1       2.583   5.766  19.338  0.00  0.00    +0.000 C 
ATOM     19  O   UNL     1       1.842   4.808  19.497  0.00  0.00    +0.000 OA
BRANCH  18  20
ATOM     20  O   UNL     1       3.845   5.778  19.839  0.00  0.00    +0.000 OA
ATOM     21  H   UNL     1       4.257   6.665  19.844  0.00  0.00    +0.000 HD
ENDBRANCH  18  20
ENDBRANCH  17  18
ENDBRANCH   1  17
BRANCH   7  22
ATOM     22  O   UNL     1       1.191  12.053  18.029  0.00  0.00    +0.000 OA
ATOM     23  H   UNL     1       0.777  12.854  17.667  0.00  0.00    +0.000 HD
ENDBRANCH   7  22
TORSDOF 4
ENDMDL
MODEL 9
REMARK VINA RESULT:      -6.4      2.196      7.086
REMARK  Name = 
REMARK  5 active torsions:
REMARK  status: ('A' for Active; 'I' for Inactive)
REMARK    1  A    between atoms: C_1  and  C_2
REMARK    2  A    between atoms: C_2  and  C_3
REMARK    3  A    between atoms: C_2  and  C_6
REMARK    4  A    between atoms: C_3  and  O_5
REMARK    5  A    between atoms: C_12  and  O_13
REMARK                            x       y       z     vdW  Elec       q    Type
REMARK                         _______ _______ _______ _____ _____    ______ ____
ROOT
ATOM      1  C   UNL     1       0.882  10.218  18.842  0.00  0.00    +0.000 A 
ATOM      2  C   UNL     1       1.469   9.869  17.616  0.00  0.00    +0.000 A 
ATOM      3  C   UNL     1       2.213   8.692  17.501  0.00  0.00    +0.000 A 
ATOM      4  C   UNL     1       2.363   7.849  18.602  0.00  0.00    +0.000 A 
ATOM      5  C   UNL     1       1.822   8.193  19.843  0.00  0.00    +0.000 A 
ATOM      6  C   UNL     1       1.064   9.367  19.943  0.00  0.00    +0.000 A 
ATOM      7  C   UNL     1       2.037   7.260  21.002  0.00  0.00    +0.000 C 
ATOM      8  C   UNL     1       1.242   5.975  20.771  0.00  0.00    +0.000 C 
ATOM      9  C   UNL     1       1.679   5.106  19.616  0.00  0.00    +0.000 A 
ATOM     10  C   UNL     1       1.161   3.795  19.596  0.00  0.00    +0.000 A 
ATOM     11  C   UNL     1       1.529   2.885  18.606  0.00  0.00    +0.000 A 
ATOM     12  C   UNL     1       2.425   3.269  17.616  0.00  0.00    +0.000 A 
ATOM     13  C   UNL     1       2.929   4.568  17.607  0.00  0.00    +0.000 A 
ATOM     14  C   UNL     1       2.543   5.498  18.583  0.00  0.00    +0.000 A 
ATOM     15  O   UNL     1       3.150   6.732  18.455  0.00  0.00    +0.000 OA
ENDROOT
BRANCH   1  17
ATOM     16  C   UNL     1       0.881  12.704  18.603  0.00  0.00    +0.000 C 
ATOM     17  C   UNL     1       0.038  11.479  18.964  0.00  0.00    +0.000 C 
BRANCH  17  18
ATOM     18  C   UNL     1      -1.245  11.429  18.134  0.00  0.00    +0.000 C 
ATOM     19  O   UNL     1      -2.068  10.526  18.169  0.00  0.00    +0.000 OA
BRANCH  18  20
ATOM     20  O   UNL     1      -1.401  12.497  17.311  0.00  0.00    +0.000 OA
ATOM     21  H   UNL     1      -2.320  12.622  16.999  0.00  0.00    +0.000 HD
ENDBRANCH  18  20
ENDBRANCH  17  18
ENDBRANCH   1  17
BRANCH   7  22
ATOM     22  O   UNL     1       1.636   7.857  22.238  0.00  0.00    +0.000 OA
ATOM     23  H   UNL     1       2.440   8.118  22.717  0.00  0.00    +0.000 HD
ENDBRANCH   7  22
TORSDOF 4
ENDMDL
