MODEL 1
REMARK VINA RESULT:      -6.3      0.000      0.000
REMARK  Name = 
REMARK  7 active torsions:
REMARK  status: ('A' for Active; 'I' for Inactive)
REMARK    1  A    between atoms: C_1  and  C_2
REMARK    2  A    between atoms: C_2  and  N_3
REMARK    3  A    between atoms: N_3  and  C_4
REMARK    4  A    between atoms: N_3  and  C_6
REMARK    5  A    between atoms: C_4  and  C_5
REMARK    6  A    between atoms: C_6  and  N_8
REMARK    7  A    between atoms: C_9  and  C_11
REMARK                            x       y       z     vdW  Elec       q    Type
REMARK                         _______ _______ _______ _____ _____    ______ ____
ROOT
ATOM      1  N   UNL     1       3.563   5.333  18.309  0.00  0.00    +0.000 N 
ATOM      2  C   UNL     1       4.799   4.688  18.276  0.00  0.00    +0.000 C 
ATOM      3  O   UNL     1       5.316   4.087  19.213  0.00  0.00    +0.000 OA
ATOM      4  H   UNL     1       3.285   5.729  17.429  0.00  0.00    +0.000 HD
ENDROOT
BRANCH   2   5
ATOM      5  C   UNL     1       5.612   4.739  17.018  0.00  0.00    +0.000 A 
ATOM      6  C   UNL     1       5.006   4.150  15.887  0.00  0.00    +0.000 A 
ATOM      7  C   UNL     1       5.611   4.192  14.633  0.00  0.00    +0.000 A 
ATOM      8  C   UNL     1       6.838   4.830  14.488  0.00  0.00    +0.000 A 
ATOM      9 CL   UNL     1       7.577   4.919  12.939  0.00  0.00    +0.000 Cl
ATOM     10  C   UNL     1       7.462   5.409  15.592  0.00  0.00    +0.000 A 
ATOM     11  C   UNL     1       6.852   5.367  16.856  0.00  0.00    +0.000 A 
ATOM     12 CL   UNL     1       7.692   6.160  18.138  0.00  0.00    +0.000 Cl
ENDBRANCH   2   5
BRANCH   1  13
ATOM     13  C   UNL     1       2.628   5.427  19.360  0.00  0.00    +0.000 C 
ATOM     14  S   UNL     1       2.156   6.901  20.035  0.00  0.00    +0.000 S 
BRANCH  13  15
ATOM     15  N   UNL     1       2.114   4.165  19.804  0.00  0.00    +0.000 N 
BRANCH  15  17
ATOM     16  C   UNL     1       2.043   2.269  18.149  0.00  0.00    +0.000 C 
ATOM     17  C   UNL     1       1.271   3.351  18.894  0.00  0.00    +0.000 C 
ENDBRANCH  15  17
BRANCH  15  18
ATOM     18  C   UNL     1       2.328   3.666  21.179  0.00  0.00    +0.000 C 
ATOM     19  C   UNL     1       1.409   2.583  21.728  0.00  0.00    +0.000 C 
ENDBRANCH  15  18
ENDBRANCH  13  15
ENDBRANCH   1  13
TORSDOF 5
ENDMDL
MODEL 2
REMARK VINA RESULT:      -6.0      0.406      1.477
REMARK  Name = 
REMARK  7 active torsions:
REMARK  status: ('A' for Active; 'I' for Inactive)
REMARK    1  A    between atoms: C_1  and  C_2
REMARK    2  A    between atoms: C_2  and  N_3
REMARK    3  A    between atoms: N_3  and  C_4
REMARK    4  A    between atoms: N_3  and  C_6
REMARK    5  A    between atoms: C_4  and  C_5
REMARK    6  A    between atoms: C_6  and  N_8
REMARK    7  A    between atoms: C_9  and  C_11
REMARK                            x       y       z     vdW  Elec       q    Type
REMARK                         _______ _______ _______ _____ _____    ______ ____
ROOT
ATOM      1  N   UNL     1       3.426   5.633  18.349  0.00  0.00    +0.000 N 
ATOM      2  C   UNL     1       4.658   4.979  18.377  0.00  0.00    +0.000 C 
ATOM      3  O   UNL     1       5.164   4.450  19.362  0.00  0.00    +0.000 OA
ATOM      4  H   UNL     1       3.157   5.961  17.439  0.00  0.00    +0.000 HD
ENDROOT
BRANCH   2   5
ATOM      5  C   UNL     1       5.481   4.929  17.126  0.00  0.00    +0.000 A 
ATOM      6  C   UNL     1       4.870   4.279  16.031  0.00  0.00    +0.000 A 
ATOM      7  C   UNL     1       5.486   4.224  14.783  0.00  0.00    +0.000 A 
ATOM      8  C   UNL     1       6.729   4.823  14.607  0.00  0.00    +0.000 A 
ATOM      9 CL   UNL     1       7.481   4.792  13.062  0.00  0.00    +0.000 Cl
ATOM     10  C   UNL     1       7.357   5.460  15.675  0.00  0.00    +0.000 A 
ATOM     11  C   UNL     1       6.737   5.516  16.934  0.00  0.00    +0.000 A 
ATOM     12 CL   UNL     1       7.585   6.374  18.168  0.00  0.00    +0.000 Cl
ENDBRANCH   2   5
BRANCH   1  13
ATOM     13  C   UNL     1       2.483   5.813  19.382  0.00  0.00    +0.000 C 
ATOM     14  S   UNL     1       2.052   7.336  19.971  0.00  0.00    +0.000 S 
BRANCH  13  15
ATOM     15  N   UNL     1       1.923   4.594  19.886  0.00  0.00    +0.000 N 
BRANCH  15  17
ATOM     16  C   UNL     1       2.366   2.702  21.486  0.00  0.00    +0.000 C 
ATOM     17  C   UNL     1       2.162   4.200  21.296  0.00  0.00    +0.000 C 
ENDBRANCH  15  17
BRANCH  15  18
ATOM     18  C   UNL     1       1.169   3.658  19.025  0.00  0.00    +0.000 C 
ATOM     19  C   UNL     1       1.934   2.686  18.135  0.00  0.00    +0.000 C 
ENDBRANCH  15  18
ENDBRANCH  13  15
ENDBRANCH   1  13
TORSDOF 5
ENDMDL
MODEL 3
REMARK VINA RESULT:      -5.9      4.237      6.548
REMARK  Name = 
REMARK  7 active torsions:
REMARK  status: ('A' for Active; 'I' for Inactive)
REMARK    1  A    between atoms: C_1  and  C_2
REMARK    2  A    between atoms: C_2  and  N_3
REMARK    3  A    between atoms: N_3  and  C_4
REMARK    4  A    between atoms: N_3  and  C_6
REMARK    5  A    between atoms: C_4  and  C_5
REMARK    6  A    between atoms: C_6  and  N_8
REMARK    7  A    between atoms: C_9  and  C_11
REMARK                            x       y       z     vdW  Elec       q    Type
REMARK                         _______ _______ _______ _____ _____    ______ ____
ROOT
ATOM      1  N   UNL     1       3.203   6.080  20.054  0.00  0.00    +0.000 N 
ATOM      2  C   UNL     1       2.415   6.893  19.238  0.00  0.00    +0.000 C 
ATOM      3  O   UNL     1       2.301   6.786  18.020  0.00  0.00    +0.000 OA
ATOM      4  H   UNL     1       3.131   6.291  21.032  0.00  0.00    +0.000 HD
ENDROOT
BRANCH   2   5
ATOM      5  C   UNL     1       1.656   8.026  19.858  0.00  0.00    +0.000 A 
ATOM      6  C   UNL     1       1.218   7.801  21.182  0.00  0.00    +0.000 A 
ATOM      7  C   UNL     1       0.568   8.795  21.910  0.00  0.00    +0.000 A 
ATOM      8  C   UNL     1       0.346  10.037  21.325  0.00  0.00    +0.000 A 
ATOM      9 CL   UNL     1      -0.424  11.281  22.227  0.00  0.00    +0.000 Cl
ATOM     10  C   UNL     1       0.758  10.278  20.016  0.00  0.00    +0.000 A 
ATOM     11  C   UNL     1       1.414   9.277  19.281  0.00  0.00    +0.000 A 
ATOM     12 CL   UNL     1       1.924   9.706  17.689  0.00  0.00    +0.000 Cl
ENDBRANCH   2   5
BRANCH   1  13
ATOM     13  C   UNL     1       4.000   4.968  19.711  0.00  0.00    +0.000 C 
ATOM     14  S   UNL     1       5.518   5.120  18.986  0.00  0.00    +0.000 S 
BRANCH  13  15
ATOM     15  N   UNL     1       3.411   3.702  20.031  0.00  0.00    +0.000 N 
BRANCH  15  17
ATOM     16  C   UNL     1       0.916   3.543  20.331  0.00  0.00    +0.000 C 
ATOM     17  C   UNL     1       2.284   3.636  20.995  0.00  0.00    +0.000 C 
ENDBRANCH  15  17
BRANCH  15  18
ATOM     18  C   UNL     1       3.936   2.429  19.493  0.00  0.00    +0.000 C 
ATOM     19  C   UNL     1       3.428   1.925  18.149  0.00  0.00    +0.000 C 
ENDBRANCH  15  18
ENDBRANCH  13  15
ENDBRANCH   1  13
TORSDOF 5
ENDMDL
MODEL 4
REMARK VINA RESULT:      -5.8      3.884      6.225
REMARK  Name = 
REMARK  7 active torsions:
REMARK  status: ('A' for Active; 'I' for Inactive)
REMARK    1  A    between atoms: C_1  and  C_2
REMARK    2  A    between atoms: C_2  and  N_3
REMARK    3  A    between atoms: N_3  and  C_4
REMARK    4  A    between atoms: N_3  and  C_6
REMARK    5  A    between atoms: C_4  and  C_5
REMARK    6  A    between atoms: C_6  and  N_8
REMARK    7  A    between atoms: C_9  and  C_11
REMARK                            x       y       z     vdW  Elec       q    Type
REMARK                         _______ _______ _______ _____ _____    ______ ____
ROOT
ATOM      1  N   UNL     1       4.186   5.685  18.735  0.00  0.00    +0.000 N 
ATOM      2  C   UNL     1       2.880   6.010  18.370  0.00  0.00    +0.000 C 
ATOM      3  O   UNL     1       2.101   5.274  17.770  0.00  0.00    +0.000 OA
ATOM      4  H   UNL     1       4.653   6.400  19.263  0.00  0.00    +0.000 HD
ENDROOT
BRANCH   2   5
ATOM      5  C   UNL     1       2.357   7.378  18.686  0.00  0.00    +0.000 A 
ATOM      6  C   UNL     1       2.504   8.331  17.653  0.00  0.00    +0.000 A 
ATOM      7  C   UNL     1       1.996   9.622  17.777  0.00  0.00    +0.000 A 
ATOM      8  C   UNL     1       1.326   9.983  18.941  0.00  0.00    +0.000 A 
ATOM      9 CL   UNL     1       0.663  11.562  19.090  0.00  0.00    +0.000 Cl
ATOM     10  C   UNL     1       1.178   9.064  19.979  0.00  0.00    +0.000 A 
ATOM     11  C   UNL     1       1.690   7.763  19.854  0.00  0.00    +0.000 A 
ATOM     12 CL   UNL     1       1.404   6.697  21.181  0.00  0.00    +0.000 Cl
ENDBRANCH   2   5
BRANCH   1  13
ATOM     13  C   UNL     1       4.897   4.481  18.548  0.00  0.00    +0.000 C 
ATOM     14  S   UNL     1       4.553   3.073  19.415  0.00  0.00    +0.000 S 
BRANCH  13  15
ATOM     15  N   UNL     1       5.933   4.557  17.561  0.00  0.00    +0.000 N 
BRANCH  15  17
ATOM     16  C   UNL     1       6.704   4.788  15.176  0.00  0.00    +0.000 C 
ATOM     17  C   UNL     1       5.606   4.336  16.131  0.00  0.00    +0.000 C 
ENDBRANCH  15  17
BRANCH  15  18
ATOM     18  C   UNL     1       7.350   4.775  17.921  0.00  0.00    +0.000 C 
ATOM     19  C   UNL     1       7.726   5.986  18.764  0.00  0.00    +0.000 C 
ENDBRANCH  15  18
ENDBRANCH  13  15
ENDBRANCH   1  13
TORSDOF 5
ENDMDL
MODEL 5
REMARK VINA RESULT:      -5.8      3.965      6.466
REMARK  Name = 
REMARK  7 active torsions:
REMARK  status: ('A' for Active; 'I' for Inactive)
REMARK    1  A    between atoms: C_1  and  C_2
REMARK    2  A    between atoms: C_2  and  N_3
REMARK    3  A    between atoms: N_3  and  C_4
REMARK    4  A    between atoms: N_3  and  C_6
REMARK    5  A    between atoms: C_4  and  C_5
REMARK    6  A    between atoms: C_6  and  N_8
REMARK    7  A    between atoms: C_9  and  C_11
REMARK                            x       y       z     vdW  Elec       q    Type
REMARK                         _______ _______ _______ _____ _____    ______ ____
ROOT
ATOM      1  N   UNL     1       4.311   5.997  18.777  0.00  0.00    +0.000 N 
ATOM      2  C   UNL     1       2.974   6.224  18.450  0.00  0.00    +0.000 C 
ATOM      3  O   UNL     1       2.225   5.418  17.905  0.00  0.00    +0.000 OA
ATOM      4  H   UNL     1       4.749   6.758  19.263  0.00  0.00    +0.000 HD
ENDROOT
BRANCH   2   5
ATOM      5  C   UNL     1       2.374   7.565  18.741  0.00  0.00    +0.000 A 
ATOM      6  C   UNL     1       2.514   8.521  17.711  0.00  0.00    +0.000 A 
ATOM      7  C   UNL     1       1.939   9.786  17.811  0.00  0.00    +0.000 A 
ATOM      8  C   UNL     1       1.208  10.117  18.947  0.00  0.00    +0.000 A 
ATOM      9 CL   UNL     1       0.465  11.663  19.065  0.00  0.00    +0.000 Cl
ATOM     10  C   UNL     1       1.066   9.195  19.982  0.00  0.00    +0.000 A 
ATOM     11  C   UNL     1       1.645   7.919  19.882  0.00  0.00    +0.000 A 
ATOM     12 CL   UNL     1       1.360   6.844  21.201  0.00  0.00    +0.000 Cl
ENDBRANCH   2   5
BRANCH   1  13
ATOM     13  C   UNL     1       5.092   4.835  18.603  0.00  0.00    +0.000 C 
ATOM     14  S   UNL     1       4.637   3.327  19.212  0.00  0.00    +0.000 S 
BRANCH  13  15
ATOM     15  N   UNL     1       6.303   5.046  17.865  0.00  0.00    +0.000 N 
BRANCH  15  17
ATOM     16  C   UNL     1       7.506   7.240  17.588  0.00  0.00    +0.000 C 
ATOM     17  C   UNL     1       7.342   5.961  18.400  0.00  0.00    +0.000 C 
ENDBRANCH  15  17
BRANCH  15  18
ATOM     18  C   UNL     1       6.531   4.442  16.536  0.00  0.00    +0.000 C 
ATOM     19  C   UNL     1       5.471   4.604  15.454  0.00  0.00    +0.000 C 
ENDBRANCH  15  18
ENDBRANCH  13  15
ENDBRANCH   1  13
TORSDOF 5
ENDMDL
MODEL 6
REMARK VINA RESULT:      -5.7      1.182      1.681
REMARK  Name = 
REMARK  7 active torsions:
REMARK  status: ('A' for Active; 'I' for Inactive)
REMARK    1  A    between atoms: C_1  and  C_2
REMARK    2  A    between atoms: C_2  and  N_3
REMARK    3  A    between atoms: N_3  and  C_4
REMARK    4  A    between atoms: N_3  and  C_6
REMARK    5  A    between atoms: C_4  and  C_5
REMARK    6  A    between atoms: C_6  and  N_8
REMARK    7  A    between atoms: C_9  and  C_11
REMARK                            x       y       z     vdW  Elec       q    Type
REMARK                         _______ _______ _______ _____ _____    ______ ____
ROOT
ATOM      1  N   UNL     1       3.898   4.453  18.263  0.00  0.00    +0.000 N 
ATOM      2  C   UNL     1       5.291   4.514  18.210  0.00  0.00    +0.000 C 
ATOM      3  O   UNL     1       6.044   4.491  19.179  0.00  0.00    +0.000 OA
ATOM      4  H   UNL     1       3.455   4.436  17.362  0.00  0.00    +0.000 HD
ENDROOT
BRANCH   2   5
ATOM      5  C   UNL     1       5.961   4.657  16.878  0.00  0.00    +0.000 A 
ATOM      6  C   UNL     1       5.544   3.733  15.895  0.00  0.00    +0.000 A 
ATOM      7  C   UNL     1       6.025   3.795  14.588  0.00  0.00    +0.000 A 
ATOM      8  C   UNL     1       6.933   4.789  14.241  0.00  0.00    +0.000 A 
ATOM      9 CL   UNL     1       7.505   4.897  12.624  0.00  0.00    +0.000 Cl
ATOM     10  C   UNL     1       7.368   5.706  15.197  0.00  0.00    +0.000 A 
ATOM     11  C   UNL     1       6.884   5.644  16.514  0.00  0.00    +0.000 A 
ATOM     12 CL   UNL     1       7.454   6.860  17.598  0.00  0.00    +0.000 Cl
ENDBRANCH   2   5
BRANCH   1  13
ATOM     13  C   UNL     1       3.048   4.322  19.381  0.00  0.00    +0.000 C 
ATOM     14  S   UNL     1       2.337   5.648  20.149  0.00  0.00    +0.000 S 
BRANCH  13  15
ATOM     15  N   UNL     1       2.840   2.970  19.806  0.00  0.00    +0.000 N 
BRANCH  15  17
ATOM     16  C   UNL     1       4.816   1.648  20.634  0.00  0.00    +0.000 C 
ATOM     17  C   UNL     1       3.569   2.448  20.989  0.00  0.00    +0.000 C 
ENDBRANCH  15  17
BRANCH  15  18
ATOM     18  C   UNL     1       1.975   2.032  19.058  0.00  0.00    +0.000 C 
ATOM     19  C   UNL     1       0.536   2.427  18.758  0.00  0.00    +0.000 C 
ENDBRANCH  15  18
ENDBRANCH  13  15
ENDBRANCH   1  13
TORSDOF 5
ENDMDL
MODEL 7
REMARK VINA RESULT:      -5.7      4.395      5.903
REMARK  Name = 
REMARK  7 active torsions:
REMARK  status: ('A' for Active; 'I' for Inactive)
REMARK    1  A    between atoms: C_1  and  C_2
REMARK    2  A    between atoms: C_2  and  N_3
REMARK    3  A    between atoms: N_3  and  C_4
REMARK    4  A    between atoms: N_3  and  C_6
REMARK    5  A    between atoms: C_4  and  C_5
REMARK    6  A    between atoms: C_6  and  N_8
REMARK    7  A    between atoms: C_9  and  C_11
REMARK                            x       y       z     vdW  Elec       q    Type
REMARK                         _______ _______ _______ _____ _____    ______ ____
ROOT
ATOM      1  N   UNL     1       3.612   6.131  19.519  0.00  0.00    +0.000 N 
ATOM      2  C   UNL     1       2.609   6.625  18.685  0.00  0.00    +0.000 C 
ATOM      3  O   UNL     1       2.111   6.026  17.735  0.00  0.00    +0.000 OA
ATOM      4  H   UNL     1       3.858   6.747  20.272  0.00  0.00    +0.000 HD
ENDROOT
BRANCH   2   5
ATOM      5  C   UNL     1       2.094   8.013  18.912  0.00  0.00    +0.000 A 
ATOM      6  C   UNL     1       2.299   8.912  17.842  0.00  0.00    +0.000 A 
ATOM      7  C   UNL     1       1.805  10.214  17.882  0.00  0.00    +0.000 A 
ATOM      8  C   UNL     1       1.092  10.640  18.997  0.00  0.00    +0.000 A 
ATOM      9 CL   UNL     1       0.447  12.233  19.042  0.00  0.00    +0.000 Cl
ATOM     10  C   UNL     1       0.886   9.775  20.070  0.00  0.00    +0.000 A 
ATOM     11  C   UNL     1       1.383   8.462  20.031  0.00  0.00    +0.000 A 
ATOM     12 CL   UNL     1       1.025   7.466  21.394  0.00  0.00    +0.000 Cl
ENDBRANCH   2   5
BRANCH   1  13
ATOM     13  C   UNL     1       4.252   4.874  19.506  0.00  0.00    +0.000 C 
ATOM     14  S   UNL     1       5.829   4.657  18.941  0.00  0.00    +0.000 S 
BRANCH  13  15
ATOM     15  N   UNL     1       3.450   3.801  20.013  0.00  0.00    +0.000 N 
BRANCH  15  17
ATOM     16  C   UNL     1       0.968   3.803  20.437  0.00  0.00    +0.000 C 
ATOM     17  C   UNL     1       2.363   4.087  20.982  0.00  0.00    +0.000 C 
ENDBRANCH  15  17
BRANCH  15  18
ATOM     18  C   UNL     1       3.713   2.388  19.667  0.00  0.00    +0.000 C 
ATOM     19  C   UNL     1       3.276   1.863  18.306  0.00  0.00    +0.000 C 
ENDBRANCH  15  18
ENDBRANCH  13  15
ENDBRANCH   1  13
TORSDOF 5
ENDMDL
MODEL 8
REMARK VINA RESULT:      -5.7      1.620      2.091
REMARK  Name = 
REMARK  7 active torsions:
REMARK  status: ('A' for Active; 'I' for Inactive)
REMARK    1  A    between atoms: C_1  and  C_2
REMARK    2  A    between atoms: C_2  and  N_3
REMARK    3  A    between atoms: N_3  and  C_4
REMARK    4  A    between atoms: N_3  and  C_6
REMARK    5  A    between atoms: C_4  and  C_5
REMARK    6  A    between atoms: C_6  and  N_8
REMARK    7  A    between atoms: C_9  and  C_11
REMARK                            x       y       z     vdW  Elec       q    Type
REMARK                         _______ _______ _______ _____ _____    ______ ____
ROOT
ATOM      1  N   UNL     1       4.319   3.855  18.240  0.00  0.00    +0.000 N 
ATOM      2  C   UNL     1       5.640   4.289  18.122  0.00  0.00    +0.000 C 
ATOM      3  O   UNL     1       6.399   4.530  19.056  0.00  0.00    +0.000 OA
ATOM      4  H   UNL     1       3.871   3.665  17.363  0.00  0.00    +0.000 HD
ENDROOT
BRANCH   2   5
ATOM      5  C   UNL     1       6.205   4.529  16.755  0.00  0.00    +0.000 A 
ATOM      6  C   UNL     1       5.815   3.593  15.772  0.00  0.00    +0.000 A 
ATOM      7  C   UNL     1       6.201   3.733  14.441  0.00  0.00    +0.000 A 
ATOM      8  C   UNL     1       6.987   4.819  14.068  0.00  0.00    +0.000 A 
ATOM      9 CL   UNL     1       7.439   5.021  12.422  0.00  0.00    +0.000 Cl
ATOM     10  C   UNL     1       7.394   5.749  15.022  0.00  0.00    +0.000 A 
ATOM     11  C   UNL     1       7.004   5.609  16.365  0.00  0.00    +0.000 A 
ATOM     12 CL   UNL     1       7.526   6.848  17.447  0.00  0.00    +0.000 Cl
ENDBRANCH   2   5
BRANCH   1  13
ATOM     13  C   UNL     1       3.571   3.566  19.400  0.00  0.00    +0.000 C 
ATOM     14  S   UNL     1       4.002   2.347  20.487  0.00  0.00    +0.000 S 
BRANCH  13  15
ATOM     15  N   UNL     1       2.416   4.396  19.576  0.00  0.00    +0.000 N 
BRANCH  15  17
ATOM     16  C   UNL     1       2.448   6.619  18.395  0.00  0.00    +0.000 C 
ATOM     17  C   UNL     1       2.577   5.865  19.713  0.00  0.00    +0.000 C 
ENDBRANCH  15  17
BRANCH  15  18
ATOM     18  C   UNL     1       1.054   3.835  19.706  0.00  0.00    +0.000 C 
ATOM     19  C   UNL     1       0.663   2.629  18.862  0.00  0.00    +0.000 C 
ENDBRANCH  15  18
ENDBRANCH  13  15
ENDBRANCH   1  13
TORSDOF 5
ENDMDL
MODEL 9
REMARK VINA RESULT:      -5.7      4.081      6.678
REMARK  Name = 
REMARK  7 active torsions:
REMARK  status: ('A' for Active; 'I' for Inactive)
REMARK    1  A    between atoms: C_1  and  C_2
REMARK    2  A    between atoms: C_2  and  N_3
REMARK    3  A    between atoms: N_3  and  C_4
REMARK    4  A    between atoms: N_3  and  C_6
REMARK    5  A    between atoms: C_4  and  C_5
REMARK    6  A    between atoms: C_6  and  N_8
REMARK    7  A    between atoms: C_9  and  C_11
REMARK                            x       y       z     vdW  Elec       q    Type
REMARK                         _______ _______ _______ _____ _____    ______ ____
ROOT
ATOM      1  N   UNL     1       5.863   3.850  14.411  0.00  0.00    +0.000 N 
ATOM      2  C   UNL     1       5.510   4.838  15.332  0.00  0.00    +0.000 C 
ATOM      3  O   UNL     1       5.572   6.048  15.139  0.00  0.00    +0.000 OA
ATOM      4  H   UNL     1       5.698   2.914  14.733  0.00  0.00    +0.000 HD
ENDROOT
BRANCH   2   5
ATOM      5  C   UNL     1       5.046   4.426  16.695  0.00  0.00    +0.000 A 
ATOM      6  C   UNL     1       3.751   3.864  16.744  0.00  0.00    +0.000 A 
ATOM      7  C   UNL     1       3.219   3.366  17.931  0.00  0.00    +0.000 A 
ATOM      8  C   UNL     1       3.978   3.420  19.096  0.00  0.00    +0.000 A 
ATOM      9 CL   UNL     1       3.345   2.776  20.558  0.00  0.00    +0.000 Cl
ATOM     10  C   UNL     1       5.254   3.981  19.075  0.00  0.00    +0.000 A 
ATOM     11  C   UNL     1       5.791   4.482  17.878  0.00  0.00    +0.000 A 
ATOM     12 CL   UNL     1       7.397   5.107  17.962  0.00  0.00    +0.000 Cl
ENDBRANCH   2   5
BRANCH   1  13
ATOM     13  C   UNL     1       6.324   3.984  13.085  0.00  0.00    +0.000 C 
ATOM     14  S   UNL     1       7.683   4.899  12.677  0.00  0.00    +0.000 S 
BRANCH  13  15
ATOM     15  N   UNL     1       5.540   3.275  12.117  0.00  0.00    +0.000 N 
BRANCH  15  17
ATOM     16  C   UNL     1       7.209   1.775  10.975  0.00  0.00    +0.000 C 
ATOM     17  C   UNL     1       5.902   1.883  11.751  0.00  0.00    +0.000 C 
ENDBRANCH  15  17
BRANCH  15  18
ATOM     18  C   UNL     1       4.414   3.907  11.398  0.00  0.00    +0.000 C 
ATOM     19  C   UNL     1       3.407   3.027  10.671  0.00  0.00    +0.000 C 
ENDBRANCH  15  18
ENDBRANCH  13  15
ENDBRANCH   1  13
TORSDOF 5
ENDMDL
