MODEL 1
REMARK VINA RESULT:      -8.4      0.000      0.000
REMARK  Name = 
REMARK  3 active torsions:
REMARK  status: ('A' for Active; 'I' for Inactive)
REMARK    1  A    between atoms: C_7  and  C_8
REMARK    2  A    between atoms: N_12  and  C_13
REMARK    3  A    between atoms: C_13  and  C_14
REMARK                            x       y       z     vdW  Elec       q    Type
REMARK                         _______ _______ _______ _____ _____    ______ ____
ROOT
ATOM      1  C   UNL     1       7.861   8.290  17.953  0.00  0.00    +0.000 C 
ATOM      2  N   UNL     1       7.026   8.238  16.969  0.00  0.00    +0.000 NA
ATOM      3  N   UNL     1       6.422   7.106  16.463  0.00  0.00    +0.000 NA
ATOM      4  C   UNL     1       6.480   5.920  16.965  0.00  0.00    +0.000 C 
ATOM      5  N   UNL     1       5.718   4.888  16.340  0.00  0.00    +0.000 N 
ATOM      6  S   UNL     1       7.341   5.559  18.497  0.00  0.00    +0.000 S 
ATOM      7  C   UNL     1       8.287   7.076  18.734  0.00  0.00    +0.000 C 
ATOM      8  H   UNL     1       5.222   5.105  15.463  0.00  0.00    +0.000 HD
ENDROOT
BRANCH   1  15
ATOM      9  O   UNL     1       9.508  15.187  17.832  0.00  0.00    +0.000 OA
ATOM     10  C   UNL     1       9.390  13.995  18.055  0.00  0.00    +0.000 A 
ATOM     11  N   UNL     1       9.981  13.359  19.105  0.00  0.00    +0.000 N 
ATOM     12  C   UNL     1       9.586  12.080  18.977  0.00  0.00    +0.000 A 
ATOM     13  C   UNL     1       9.889  10.990  19.785  0.00  0.00    +0.000 A 
ATOM     14  C   UNL     1       9.323   9.744  19.443  0.00  0.00    +0.000 A 
ATOM     15  C   UNL     1       8.483   9.607  18.298  0.00  0.00    +0.000 A 
ATOM     16  C   UNL     1       8.228  10.753  17.498  0.00  0.00    +0.000 A 
ATOM     17  C   UNL     1       8.788  11.959  17.875  0.00  0.00    +0.000 A 
ATOM     18  N   UNL     1       8.649  13.157  17.278  0.00  0.00    +0.000 N 
ATOM     19  H   UNL     1      10.595  13.771  19.843  0.00  0.00    +0.000 HD
ATOM     20  H   UNL     1       8.099  13.382  16.418  0.00  0.00    +0.000 HD
ENDBRANCH   1  15
BRANCH   5  21
ATOM     21  C   UNL     1       5.394   3.645  17.019  0.00  0.00    +0.000 C 
BRANCH  21  22
ATOM     22  C   UNL     1       3.951   3.574  17.449  0.00  0.00    +0.000 A 
ATOM     23  C   UNL     1       3.373   2.351  17.835  0.00  0.00    +0.000 A 
ATOM     24  C   UNL     1       2.041   2.304  18.262  0.00  0.00    +0.000 A 
ATOM     25  C   UNL     1       1.284   3.477  18.319  0.00  0.00    +0.000 A 
ATOM     26  C   UNL     1       1.853   4.697  17.946  0.00  0.00    +0.000 A 
ATOM     27  C   UNL     1       3.180   4.746  17.507  0.00  0.00    +0.000 A 
ENDBRANCH  21  22
ENDBRANCH   5  21
TORSDOF 3
ENDMDL
MODEL 2
REMARK VINA RESULT:      -8.3      0.291      1.028
REMARK  Name = 
REMARK  3 active torsions:
REMARK  status: ('A' for Active; 'I' for Inactive)
REMARK    1  A    between atoms: C_7  and  C_8
REMARK    2  A    between atoms: N_12  and  C_13
REMARK    3  A    between atoms: C_13  and  C_14
REMARK                            x       y       z     vdW  Elec       q    Type
REMARK                         _______ _______ _______ _____ _____    ______ ____
ROOT
ATOM      1  C   UNL     1       8.000   8.537  18.080  0.00  0.00    +0.000 C 
ATOM      2  N   UNL     1       7.155   8.471  17.106  0.00  0.00    +0.000 NA
ATOM      3  N   UNL     1       6.549   7.330  16.620  0.00  0.00    +0.000 NA
ATOM      4  C   UNL     1       6.616   6.151  17.136  0.00  0.00    +0.000 C 
ATOM      5  N   UNL     1       5.852   5.109  16.532  0.00  0.00    +0.000 N 
ATOM      6  S   UNL     1       7.494   5.811  18.663  0.00  0.00    +0.000 S 
ATOM      7  C   UNL     1       8.438   7.334  18.871  0.00  0.00    +0.000 C 
ATOM      8  H   UNL     1       5.345   5.314  15.657  0.00  0.00    +0.000 HD
ENDROOT
BRANCH   1  15
ATOM      9  O   UNL     1       9.717  15.412  17.782  0.00  0.00    +0.000 OA
ATOM     10  C   UNL     1       9.579  14.229  18.042  0.00  0.00    +0.000 A 
ATOM     11  N   UNL     1      10.124  13.625  19.135  0.00  0.00    +0.000 N 
ATOM     12  C   UNL     1       9.722  12.346  19.037  0.00  0.00    +0.000 A 
ATOM     13  C   UNL     1       9.983  11.283  19.893  0.00  0.00    +0.000 A 
ATOM     14  C   UNL     1       9.419  10.030  19.573  0.00  0.00    +0.000 A 
ATOM     15  C   UNL     1       8.621   9.860  18.403  0.00  0.00    +0.000 A 
ATOM     16  C   UNL     1       8.408  10.979  17.554  0.00  0.00    +0.000 A 
ATOM     17  C   UNL     1       8.965  12.194  17.910  0.00  0.00    +0.000 A 
ATOM     18  N   UNL     1       8.861  13.370  17.266  0.00  0.00    +0.000 N 
ATOM     19  H   UNL     1      10.713  14.058  19.882  0.00  0.00    +0.000 HD
ATOM     20  H   UNL     1       8.346  13.570  16.379  0.00  0.00    +0.000 HD
ENDBRANCH   1  15
BRANCH   5  21
ATOM     21  C   UNL     1       5.539   3.874  17.229  0.00  0.00    +0.000 C 
BRANCH  21  22
ATOM     22  C   UNL     1       4.077   3.753  17.575  0.00  0.00    +0.000 A 
ATOM     23  C   UNL     1       3.263   4.897  17.678  0.00  0.00    +0.000 A 
ATOM     24  C   UNL     1       1.901   4.769  17.970  0.00  0.00    +0.000 A 
ATOM     25  C   UNL     1       1.339   3.502  18.147  0.00  0.00    +0.000 A 
ATOM     26  C   UNL     1       2.139   2.361  18.037  0.00  0.00    +0.000 A 
ATOM     27  C   UNL     1       3.503   2.485  17.757  0.00  0.00    +0.000 A 
ENDBRANCH  21  22
ENDBRANCH   5  21
TORSDOF 3
ENDMDL
MODEL 3
REMARK VINA RESULT:      -8.1      6.485      8.784
REMARK  Name = 
REMARK  3 active torsions:
REMARK  status: ('A' for Active; 'I' for Inactive)
REMARK    1  A    between atoms: C_7  and  C_8
REMARK    2  A    between atoms: N_12  and  C_13
REMARK    3  A    between atoms: C_13  and  C_14
REMARK                            x       y       z     vdW  Elec       q    Type
REMARK                         _______ _______ _______ _____ _____    ______ ____
ROOT
ATOM      1  C   UNL     1       2.388   7.928  18.660  0.00  0.00    +0.000 C 
ATOM      2  N   UNL     1       2.152   8.637  17.607  0.00  0.00    +0.000 NA
ATOM      3  N   UNL     1       1.200   9.627  17.478  0.00  0.00    +0.000 NA
ATOM      4  C   UNL     1       0.469  10.110  18.423  0.00  0.00    +0.000 C 
ATOM      5  N   UNL     1      -0.406  11.192  18.109  0.00  0.00    +0.000 N 
ATOM      6  S   UNL     1       0.630   9.590  20.133  0.00  0.00    +0.000 S 
ATOM      7  C   UNL     1       1.644   8.110  19.956  0.00  0.00    +0.000 C 
ATOM      8  H   UNL     1      -0.488  11.489  17.125  0.00  0.00    +0.000 HD
ENDROOT
BRANCH   1  15
ATOM      9  O   UNL     1       8.108   4.193  16.753  0.00  0.00    +0.000 OA
ATOM     10  C   UNL     1       7.079   4.631  17.237  0.00  0.00    +0.000 A 
ATOM     11  N   UNL     1       6.384   4.009  18.230  0.00  0.00    +0.000 N 
ATOM     12  C   UNL     1       5.341   4.825  18.461  0.00  0.00    +0.000 A 
ATOM     13  C   UNL     1       4.311   4.682  19.383  0.00  0.00    +0.000 A 
ATOM     14  C   UNL     1       3.339   5.702  19.443  0.00  0.00    +0.000 A 
ATOM     15  C   UNL     1       3.405   6.832  18.576  0.00  0.00    +0.000 A 
ATOM     16  C   UNL     1       4.469   6.911  17.637  0.00  0.00    +0.000 A 
ATOM     17  C   UNL     1       5.411   5.899  17.620  0.00  0.00    +0.000 A 
ATOM     18  N   UNL     1       6.501   5.798  16.839  0.00  0.00    +0.000 N 
ATOM     19  H   UNL     1       6.613   3.108  18.707  0.00  0.00    +0.000 HD
ATOM     20  H   UNL     1       6.822   6.466  16.101  0.00  0.00    +0.000 HD
ENDBRANCH   1  15
BRANCH   5  21
ATOM     21  C   UNL     1      -0.967  12.057  19.132  0.00  0.00    +0.000 C 
BRANCH  21  22
ATOM     22  C   UNL     1      -2.474  12.048  19.141  0.00  0.00    +0.000 A 
ATOM     23  C   UNL     1      -3.194  12.661  20.184  0.00  0.00    +0.000 A 
ATOM     24  C   UNL     1      -4.592  12.672  20.164  0.00  0.00    +0.000 A 
ATOM     25  C   UNL     1      -5.281  12.086  19.100  0.00  0.00    +0.000 A 
ATOM     26  C   UNL     1      -4.575  11.482  18.057  0.00  0.00    +0.000 A 
ATOM     27  C   UNL     1      -3.176  11.458  18.079  0.00  0.00    +0.000 A 
ENDBRANCH  21  22
ENDBRANCH   5  21
TORSDOF 3
ENDMDL
MODEL 4
REMARK VINA RESULT:      -8.1      6.593      9.042
REMARK  Name = 
REMARK  3 active torsions:
REMARK  status: ('A' for Active; 'I' for Inactive)
REMARK    1  A    between atoms: C_7  and  C_8
REMARK    2  A    between atoms: N_12  and  C_13
REMARK    3  A    between atoms: C_13  and  C_14
REMARK                            x       y       z     vdW  Elec       q    Type
REMARK                         _______ _______ _______ _____ _____    ______ ____
ROOT
ATOM      1  C   UNL     1       2.385   7.575  18.779  0.00  0.00    +0.000 C 
ATOM      2  N   UNL     1       2.034   8.671  18.194  0.00  0.00    +0.000 NA
ATOM      3  N   UNL     1       1.216   9.654  18.713  0.00  0.00    +0.000 NA
ATOM      4  C   UNL     1       0.769   9.716  19.920  0.00  0.00    +0.000 C 
ATOM      5  N   UNL     1       0.000  10.858  20.293  0.00  0.00    +0.000 N 
ATOM      6  S   UNL     1       1.209   8.515  21.178  0.00  0.00    +0.000 S 
ATOM      7  C   UNL     1       1.957   7.216  20.177  0.00  0.00    +0.000 C 
ATOM      8  H   UNL     1      -0.244  11.547  19.565  0.00  0.00    +0.000 HD
ENDROOT
BRANCH   1  15
ATOM      9  O   UNL     1       7.575   4.737  14.865  0.00  0.00    +0.000 OA
ATOM     10  C   UNL     1       6.586   4.982  15.534  0.00  0.00    +0.000 A 
ATOM     11  N   UNL     1       5.691   4.038  15.936  0.00  0.00    +0.000 N 
ATOM     12  C   UNL     1       4.779   4.730  16.643  0.00  0.00    +0.000 A 
ATOM     13  C   UNL     1       3.644   4.263  17.294  0.00  0.00    +0.000 A 
ATOM     14  C   UNL     1       2.856   5.202  17.992  0.00  0.00    +0.000 A 
ATOM     15  C   UNL     1       3.207   6.584  18.014  0.00  0.00    +0.000 A 
ATOM     16  C   UNL     1       4.367   7.005  17.310  0.00  0.00    +0.000 A 
ATOM     17  C   UNL     1       5.122   6.052  16.652  0.00  0.00    +0.000 A 
ATOM     18  N   UNL     1       6.260   6.235  15.958  0.00  0.00    +0.000 N 
ATOM     19  H   UNL     1       5.710   3.010  15.746  0.00  0.00    +0.000 HD
ATOM     20  H   UNL     1       6.768   7.132  15.790  0.00  0.00    +0.000 HD
ENDBRANCH   1  15
BRANCH   5  21
ATOM     21  C   UNL     1      -0.216  11.227  21.681  0.00  0.00    +0.000 C 
BRANCH  21  22
ATOM     22  C   UNL     1      -1.563  11.862  21.913  0.00  0.00    +0.000 A 
ATOM     23  C   UNL     1      -2.283  12.437  20.849  0.00  0.00    +0.000 A 
ATOM     24  C   UNL     1      -3.546  12.995  21.073  0.00  0.00    +0.000 A 
ATOM     25  C   UNL     1      -4.105  12.972  22.353  0.00  0.00    +0.000 A 
ATOM     26  C   UNL     1      -3.400  12.395  23.413  0.00  0.00    +0.000 A 
ATOM     27  C   UNL     1      -2.132  11.846  23.197  0.00  0.00    +0.000 A 
ENDBRANCH  21  22
ENDBRANCH   5  21
TORSDOF 3
ENDMDL
MODEL 5
REMARK VINA RESULT:      -8.0      6.592      8.098
REMARK  Name = 
REMARK  3 active torsions:
REMARK  status: ('A' for Active; 'I' for Inactive)
REMARK    1  A    between atoms: C_7  and  C_8
REMARK    2  A    between atoms: N_12  and  C_13
REMARK    3  A    between atoms: C_13  and  C_14
REMARK                            x       y       z     vdW  Elec       q    Type
REMARK                         _______ _______ _______ _____ _____    ______ ____
ROOT
ATOM      1  C   UNL     1       1.145   8.872  20.396  0.00  0.00    +0.000 C 
ATOM      2  N   UNL     1       1.441   7.728  20.915  0.00  0.00    +0.000 NA
ATOM      3  N   UNL     1       2.028   6.659  20.269  0.00  0.00    +0.000 NA
ATOM      4  C   UNL     1       2.506   6.660  19.072  0.00  0.00    +0.000 C 
ATOM      5  N   UNL     1       3.151   5.476  18.606  0.00  0.00    +0.000 N 
ATOM      6  S   UNL     1       2.537   8.130  18.043  0.00  0.00    +0.000 S 
ATOM      7  C   UNL     1       1.437   9.224  18.962  0.00  0.00    +0.000 C 
ATOM      8  H   UNL     1       3.134   4.638  19.206  0.00  0.00    +0.000 HD
ENDROOT
BRANCH   1  15
ATOM      9  O   UNL     1      -1.554  15.009  22.711  0.00  0.00    +0.000 OA
ATOM     10  C   UNL     1      -1.201  13.857  22.528  0.00  0.00    +0.000 A 
ATOM     11  N   UNL     1      -1.573  12.816  23.324  0.00  0.00    +0.000 N 
ATOM     12  C   UNL     1      -0.977  11.748  22.766  0.00  0.00    +0.000 A 
ATOM     13  C   UNL     1      -1.023  10.418  23.166  0.00  0.00    +0.000 A 
ATOM     14  C   UNL     1      -0.320   9.475  22.387  0.00  0.00    +0.000 A 
ATOM     15  C   UNL     1       0.423   9.878  21.238  0.00  0.00    +0.000 A 
ATOM     16  C   UNL     1       0.451  11.256  20.892  0.00  0.00    +0.000 A 
ATOM     17  C   UNL     1      -0.264  12.146  21.672  0.00  0.00    +0.000 A 
ATOM     18  N   UNL     1      -0.391  13.475  21.502  0.00  0.00    +0.000 N 
ATOM     19  H   UNL     1      -2.186  12.840  24.171  0.00  0.00    +0.000 HD
ATOM     20  H   UNL     1       0.034  14.067  20.753  0.00  0.00    +0.000 HD
ENDBRANCH   1  15
BRANCH   5  21
ATOM     21  C   UNL     1       4.050   5.481  17.465  0.00  0.00    +0.000 C 
BRANCH  21  22
ATOM     22  C   UNL     1       5.454   5.891  17.831  0.00  0.00    +0.000 A 
ATOM     23  C   UNL     1       6.118   6.907  17.119  0.00  0.00    +0.000 A 
ATOM     24  C   UNL     1       7.410   7.299  17.488  0.00  0.00    +0.000 A 
ATOM     25  C   UNL     1       8.041   6.690  18.575  0.00  0.00    +0.000 A 
ATOM     26  C   UNL     1       7.386   5.685  19.292  0.00  0.00    +0.000 A 
ATOM     27  C   UNL     1       6.099   5.283  18.919  0.00  0.00    +0.000 A 
ENDBRANCH  21  22
ENDBRANCH   5  21
TORSDOF 3
ENDMDL
MODEL 6
REMARK VINA RESULT:      -7.9      6.562      8.244
REMARK  Name = 
REMARK  3 active torsions:
REMARK  status: ('A' for Active; 'I' for Inactive)
REMARK    1  A    between atoms: C_7  and  C_8
REMARK    2  A    between atoms: N_12  and  C_13
REMARK    3  A    between atoms: C_13  and  C_14
REMARK                            x       y       z     vdW  Elec       q    Type
REMARK                         _______ _______ _______ _____ _____    ______ ____
ROOT
ATOM      1  C   UNL     1       1.129   8.644  20.312  0.00  0.00    +0.000 C 
ATOM      2  N   UNL     1       1.424   7.488  20.808  0.00  0.00    +0.000 NA
ATOM      3  N   UNL     1       2.066   6.455  20.158  0.00  0.00    +0.000 NA
ATOM      4  C   UNL     1       2.603   6.506  18.987  0.00  0.00    +0.000 C 
ATOM      5  N   UNL     1       3.297   5.352  18.516  0.00  0.00    +0.000 N 
ATOM      6  S   UNL     1       2.654   8.010  18.010  0.00  0.00    +0.000 S 
ATOM      7  C   UNL     1       1.485   9.050  18.907  0.00  0.00    +0.000 C 
ATOM      8  H   UNL     1       3.268   4.493  19.086  0.00  0.00    +0.000 HD
ENDROOT
BRANCH   1  15
ATOM      9  O   UNL     1      -2.684  14.292  22.277  0.00  0.00    +0.000 OA
ATOM     10  C   UNL     1      -2.058  13.250  22.189  0.00  0.00    +0.000 A 
ATOM     11  N   UNL     1      -1.925  12.358  23.209  0.00  0.00    +0.000 N 
ATOM     12  C   UNL     1      -1.178  11.370  22.686  0.00  0.00    +0.000 A 
ATOM     13  C   UNL     1      -0.743  10.195  23.287  0.00  0.00    +0.000 A 
ATOM     14  C   UNL     1       0.019   9.302  22.505  0.00  0.00    +0.000 A 
ATOM     15  C   UNL     1       0.344   9.605  21.149  0.00  0.00    +0.000 A 
ATOM     16  C   UNL     1      -0.110  10.833  20.597  0.00  0.00    +0.000 A 
ATOM     17  C   UNL     1      -0.868  11.674  21.390  0.00  0.00    +0.000 A 
ATOM     18  N   UNL     1      -1.414  12.857  21.055  0.00  0.00    +0.000 N 
ATOM     19  H   UNL     1      -2.320  12.422  24.175  0.00  0.00    +0.000 HD
ATOM     20  H   UNL     1      -1.353  13.350  20.135  0.00  0.00    +0.000 HD
ENDBRANCH   1  15
BRANCH   5  21
ATOM     21  C   UNL     1       4.251   5.414  17.423  0.00  0.00    +0.000 C 
BRANCH  21  22
ATOM     22  C   UNL     1       5.605   5.916  17.858  0.00  0.00    +0.000 A 
ATOM     23  C   UNL     1       6.287   5.314  18.931  0.00  0.00    +0.000 A 
ATOM     24  C   UNL     1       7.556   5.769  19.305  0.00  0.00    +0.000 A 
ATOM     25  C   UNL     1       8.157   6.816  18.603  0.00  0.00    +0.000 A 
ATOM     26  C   UNL     1       7.491   7.414  17.531  0.00  0.00    +0.000 A 
ATOM     27  C   UNL     1       6.217   6.970  17.161  0.00  0.00    +0.000 A 
ENDBRANCH  21  22
ENDBRANCH   5  21
TORSDOF 3
ENDMDL
MODEL 7
REMARK VINA RESULT:      -7.8      6.916      9.260
REMARK  Name = 
REMARK  3 active torsions:
REMARK  status: ('A' for Active; 'I' for Inactive)
REMARK    1  A    between atoms: C_7  and  C_8
REMARK    2  A    between atoms: N_12  and  C_13
REMARK    3  A    between atoms: C_13  and  C_14
REMARK                            x       y       z     vdW  Elec       q    Type
REMARK                         _______ _______ _______ _____ _____    ______ ____
ROOT
ATOM      1  C   UNL     1       2.325   7.740  18.693  0.00  0.00    +0.000 C 
ATOM      2  N   UNL     1       1.983   7.612  19.932  0.00  0.00    +0.000 NA
ATOM      3  N   UNL     1       1.271   8.521  20.687  0.00  0.00    +0.000 NA
ATOM      4  C   UNL     1       0.708   9.597  20.255  0.00  0.00    +0.000 C 
ATOM      5  N   UNL     1      -0.057  10.371  21.177  0.00  0.00    +0.000 N 
ATOM      6  S   UNL     1       0.712  10.063  18.522  0.00  0.00    +0.000 S 
ATOM      7  C   UNL     1       1.955   8.938  17.859  0.00  0.00    +0.000 C 
ATOM      8  H   UNL     1      -0.058  10.094  22.170  0.00  0.00    +0.000 HD
ENDROOT
BRANCH   1  15
ATOM      9  O   UNL     1       7.563   4.567  15.116  0.00  0.00    +0.000 OA
ATOM     10  C   UNL     1       6.579   4.868  15.769  0.00  0.00    +0.000 A 
ATOM     11  N   UNL     1       5.746   3.958  16.347  0.00  0.00    +0.000 N 
ATOM     12  C   UNL     1       4.816   4.709  16.963  0.00  0.00    +0.000 A 
ATOM     13  C   UNL     1       3.724   4.298  17.717  0.00  0.00    +0.000 A 
ATOM     14  C   UNL     1       2.904   5.297  18.282  0.00  0.00    +0.000 A 
ATOM     15  C   UNL     1       3.180   6.681  18.071  0.00  0.00    +0.000 A 
ATOM     16  C   UNL     1       4.298   7.039  17.271  0.00  0.00    +0.000 A 
ATOM     17  C   UNL     1       5.087   6.031  16.749  0.00  0.00    +0.000 A 
ATOM     18  N   UNL     1       6.196   6.155  15.998  0.00  0.00    +0.000 N 
ATOM     19  H   UNL     1       5.816   2.916  16.323  0.00  0.00    +0.000 HD
ATOM     20  H   UNL     1       6.651   7.037  15.671  0.00  0.00    +0.000 HD
ENDBRANCH   1  15
BRANCH   5  21
ATOM     21  C   UNL     1      -1.034  11.353  20.741  0.00  0.00    +0.000 C 
BRANCH  21  22
ATOM     22  C   UNL     1      -1.392  12.340  21.822  0.00  0.00    +0.000 A 
ATOM     23  C   UNL     1      -2.566  12.184  22.583  0.00  0.00    +0.000 A 
ATOM     24  C   UNL     1      -2.871  13.090  23.604  0.00  0.00    +0.000 A 
ATOM     25  C   UNL     1      -2.002  14.148  23.883  0.00  0.00    +0.000 A 
ATOM     26  C   UNL     1      -0.831  14.306  23.138  0.00  0.00    +0.000 A 
ATOM     27  C   UNL     1      -0.528  13.409  22.108  0.00  0.00    +0.000 A 
ENDBRANCH  21  22
ENDBRANCH   5  21
TORSDOF 3
ENDMDL
MODEL 8
REMARK VINA RESULT:      -7.8      6.889      9.216
REMARK  Name = 
REMARK  3 active torsions:
REMARK  status: ('A' for Active; 'I' for Inactive)
REMARK    1  A    between atoms: C_7  and  C_8
REMARK    2  A    between atoms: N_12  and  C_13
REMARK    3  A    between atoms: C_13  and  C_14
REMARK                            x       y       z     vdW  Elec       q    Type
REMARK                         _______ _______ _______ _____ _____    ______ ____
ROOT
ATOM      1  C   UNL     1       2.269   7.965  18.699  0.00  0.00    +0.000 C 
ATOM      2  N   UNL     1       1.812   7.845  19.900  0.00  0.00    +0.000 NA
ATOM      3  N   UNL     1       1.104   8.794  20.609  0.00  0.00    +0.000 NA
ATOM      4  C   UNL     1       0.659   9.914  20.151  0.00  0.00    +0.000 C 
ATOM      5  N   UNL     1      -0.125  10.730  21.019  0.00  0.00    +0.000 N 
ATOM      6  S   UNL     1       0.848  10.401  18.435  0.00  0.00    +0.000 S 
ATOM      7  C   UNL     1       2.060   9.197  17.860  0.00  0.00    +0.000 C 
ATOM      8  H   UNL     1      -0.233  10.440  22.003  0.00  0.00    +0.000 HD
ENDROOT
BRANCH   1  15
ATOM      9  O   UNL     1       7.486   4.476  15.395  0.00  0.00    +0.000 OA
ATOM     10  C   UNL     1       6.493   4.837  16.003  0.00  0.00    +0.000 A 
ATOM     11  N   UNL     1       5.596   3.979  16.564  0.00  0.00    +0.000 N 
ATOM     12  C   UNL     1       4.680   4.785  17.128  0.00  0.00    +0.000 A 
ATOM     13  C   UNL     1       3.541   4.441  17.846  0.00  0.00    +0.000 A 
ATOM     14  C   UNL     1       2.748   5.489  18.358  0.00  0.00    +0.000 A 
ATOM     15  C   UNL     1       3.096   6.854  18.131  0.00  0.00    +0.000 A 
ATOM     16  C   UNL     1       4.260   7.143  17.369  0.00  0.00    +0.000 A 
ATOM     17  C   UNL     1       5.020   6.088  16.899  0.00  0.00    +0.000 A 
ATOM     18  N   UNL     1       6.162   6.145  16.190  0.00  0.00    +0.000 N 
ATOM     19  H   UNL     1       5.618   2.934  16.564  0.00  0.00    +0.000 HD
ATOM     20  H   UNL     1       6.671   6.998  15.866  0.00  0.00    +0.000 HD
ENDBRANCH   1  15
BRANCH   5  21
ATOM     21  C   UNL     1      -0.987  11.787  20.520  0.00  0.00    +0.000 C 
BRANCH  21  22
ATOM     22  C   UNL     1      -2.108  12.123  21.470  0.00  0.00    +0.000 A 
ATOM     23  C   UNL     1      -2.004  11.828  22.842  0.00  0.00    +0.000 A 
ATOM     24  C   UNL     1      -3.039  12.173  23.719  0.00  0.00    +0.000 A 
ATOM     25  C   UNL     1      -4.175  12.827  23.236  0.00  0.00    +0.000 A 
ATOM     26  C   UNL     1      -4.282  13.131  21.877  0.00  0.00    +0.000 A 
ATOM     27  C   UNL     1      -3.256  12.777  20.995  0.00  0.00    +0.000 A 
ENDBRANCH  21  22
ENDBRANCH   5  21
TORSDOF 3
ENDMDL
MODEL 9
REMARK VINA RESULT:      -7.7      6.742      9.255
REMARK  Name = 
REMARK  3 active torsions:
REMARK  status: ('A' for Active; 'I' for Inactive)
REMARK    1  A    between atoms: C_7  and  C_8
REMARK    2  A    between atoms: N_12  and  C_13
REMARK    3  A    between atoms: C_13  and  C_14
REMARK                            x       y       z     vdW  Elec       q    Type
REMARK                         _______ _______ _______ _____ _____    ______ ____
ROOT
ATOM      1  C   UNL     1       2.307   7.733  18.758  0.00  0.00    +0.000 C 
ATOM      2  N   UNL     1       2.052   7.534  20.008  0.00  0.00    +0.000 NA
ATOM      3  N   UNL     1       1.382   8.391  20.857  0.00  0.00    +0.000 NA
ATOM      4  C   UNL     1       0.776   9.478  20.521  0.00  0.00    +0.000 C 
ATOM      5  N   UNL     1       0.067  10.191  21.533  0.00  0.00    +0.000 N 
ATOM      6  S   UNL     1       0.656  10.034  18.819  0.00  0.00    +0.000 S 
ATOM      7  C   UNL     1       1.866   8.966  18.016  0.00  0.00    +0.000 C 
ATOM      8  H   UNL     1       0.136   9.862  22.508  0.00  0.00    +0.000 HD
ENDROOT
BRANCH   1  15
ATOM      9  O   UNL     1       7.527   4.782  14.969  0.00  0.00    +0.000 OA
ATOM     10  C   UNL     1       6.531   5.048  15.620  0.00  0.00    +0.000 A 
ATOM     11  N   UNL     1       5.623   4.118  16.028  0.00  0.00    +0.000 N 
ATOM     12  C   UNL     1       4.708   4.830  16.709  0.00  0.00    +0.000 A 
ATOM     13  C   UNL     1       3.561   4.384  17.353  0.00  0.00    +0.000 A 
ATOM     14  C   UNL     1       2.771   5.341  18.023  0.00  0.00    +0.000 A 
ATOM     15  C   UNL     1       3.132   6.722  18.023  0.00  0.00    +0.000 A 
ATOM     16  C   UNL     1       4.304   7.120  17.327  0.00  0.00    +0.000 A 
ATOM     17  C   UNL     1       5.060   6.150  16.697  0.00  0.00    +0.000 A 
ATOM     18  N   UNL     1       6.209   6.311  16.015  0.00  0.00    +0.000 N 
ATOM     19  H   UNL     1       5.638   3.087  15.858  0.00  0.00    +0.000 HD
ATOM     20  H   UNL     1       6.726   7.201  15.837  0.00  0.00    +0.000 HD
ENDBRANCH   1  15
BRANCH   5  21
ATOM     21  C   UNL     1      -0.951  11.178  21.217  0.00  0.00    +0.000 C 
BRANCH  21  22
ATOM     22  C   UNL     1      -0.699  12.508  21.878  0.00  0.00    +0.000 A 
ATOM     23  C   UNL     1       0.261  13.400  21.364  0.00  0.00    +0.000 A 
ATOM     24  C   UNL     1       0.464  14.645  21.969  0.00  0.00    +0.000 A 
ATOM     25  C   UNL     1      -0.298  15.014  23.080  0.00  0.00    +0.000 A 
ATOM     26  C   UNL     1      -1.259  14.139  23.592  0.00  0.00    +0.000 A 
ATOM     27  C   UNL     1      -1.457  12.888  22.997  0.00  0.00    +0.000 A 
ENDBRANCH  21  22
ENDBRANCH   5  21
TORSDOF 3
ENDMDL
