MODEL 1
REMARK VINA RESULT:      -8.5      0.000      0.000
REMARK  Name = 
REMARK  5 active torsions:
REMARK  status: ('A' for Active; 'I' for Inactive)
REMARK    1  A    between atoms: C_1  and  O_2
REMARK    2  A    between atoms: O_2  and  C_3
REMARK    3  A    between atoms: C_6  and  N_7
REMARK    4  A    between atoms: C_15  and  O_16
REMARK    5  A    between atoms: O_16  and  C_17
REMARK                            x       y       z     vdW  Elec       q    Type
REMARK                         _______ _______ _______ _____ _____    ______ ____
ROOT
ATOM      1  N   UNL     1       4.152   4.209  19.319  0.00  0.00    +0.000 N 
ATOM      2  C   UNL     1       4.094   2.942  19.887  0.00  0.00    +0.000 A 
ATOM      3  O   UNL     1       4.755   1.950  19.594  0.00  0.00    +0.000 OA
ATOM      4  C   UNL     1       3.067   2.752  20.970  0.00  0.00    +0.000 A 
ATOM      5  N   UNL     1       2.241   3.680  21.365  0.00  0.00    +0.000 NA
ATOM      6  C   UNL     1       2.321   4.916  20.711  0.00  0.00    +0.000 A 
ATOM      7  C   UNL     1       1.418   5.918  21.005  0.00  0.00    +0.000 A 
ATOM      8  N   UNL     1       1.391   7.120  20.398  0.00  0.00    +0.000 NA
ATOM      9  C   UNL     1       2.344   7.338  19.478  0.00  0.00    +0.000 A 
ATOM     10  N   UNL     1       3.271   6.443  19.111  0.00  0.00    +0.000 NA
ATOM     11  C   UNL     1       3.236   5.229  19.712  0.00  0.00    +0.000 A 
ENDROOT
BRANCH   1  15
ATOM     12  C   UNL     1       6.816   4.993  16.124  0.00  0.00    +0.000 A 
ATOM     13  C   UNL     1       5.533   4.511  15.869  0.00  0.00    +0.000 A 
ATOM     14  C   UNL     1       4.646   4.265  16.920  0.00  0.00    +0.000 A 
ATOM     15  C   UNL     1       5.041   4.478  18.245  0.00  0.00    +0.000 A 
ATOM     16  C   UNL     1       6.337   4.946  18.497  0.00  0.00    +0.000 A 
ATOM     17  C   UNL     1       7.220   5.206  17.442  0.00  0.00    +0.000 A 
BRANCH  12  19
ATOM     18  C   UNL     1       7.049   4.754  13.782  0.00  0.00    +0.000 C 
ATOM     19  O   UNL     1       7.583   5.223  15.015  0.00  0.00    +0.000 OA
ENDBRANCH  12  19
ENDBRANCH   1  15
BRANCH   9  20
ATOM     20  O   UNL     1       2.364   8.535  18.773  0.00  0.00    +0.000 OA
BRANCH  20  21
ATOM     21  C   UNL     1       1.247   9.338  18.803  0.00  0.00    +0.000 A 
ATOM     22  C   UNL     1       1.074  10.141  19.936  0.00  0.00    +0.000 A 
ATOM     23  C   UNL     1      -0.066  10.939  20.068  0.00  0.00    +0.000 A 
ATOM     24  C   UNL     1      -1.037  10.934  19.066  0.00  0.00    +0.000 A 
ATOM     25  C   UNL     1      -0.872  10.118  17.948  0.00  0.00    +0.000 A 
ATOM     26 CL   UNL     1      -2.075  10.099  16.718  0.00  0.00    +0.000 Cl
ATOM     27  C   UNL     1       0.254   9.308  17.820  0.00  0.00    +0.000 A 
ENDBRANCH  20  21
ENDBRANCH   9  20
TORSDOF 4
ENDMDL
MODEL 2
REMARK VINA RESULT:      -8.3      1.057      1.407
REMARK  Name = 
REMARK  5 active torsions:
REMARK  status: ('A' for Active; 'I' for Inactive)
REMARK    1  A    between atoms: C_1  and  O_2
REMARK    2  A    between atoms: O_2  and  C_3
REMARK    3  A    between atoms: C_6  and  N_7
REMARK    4  A    between atoms: C_15  and  O_16
REMARK    5  A    between atoms: O_16  and  C_17
REMARK                            x       y       z     vdW  Elec       q    Type
REMARK                         _______ _______ _______ _____ _____    ______ ____
ROOT
ATOM      1  N   UNL     1       4.195   4.027  19.400  0.00  0.00    +0.000 N 
ATOM      2  C   UNL     1       4.142   2.768  19.985  0.00  0.00    +0.000 A 
ATOM      3  O   UNL     1       4.808   1.776  19.707  0.00  0.00    +0.000 OA
ATOM      4  C   UNL     1       3.112   2.587  21.068  0.00  0.00    +0.000 A 
ATOM      5  N   UNL     1       2.280   3.516  21.447  0.00  0.00    +0.000 NA
ATOM      6  C   UNL     1       2.355   4.743  20.776  0.00  0.00    +0.000 A 
ATOM      7  C   UNL     1       1.446   5.744  21.054  0.00  0.00    +0.000 A 
ATOM      8  N   UNL     1       1.415   6.938  20.431  0.00  0.00    +0.000 NA
ATOM      9  C   UNL     1       2.368   7.148  19.510  0.00  0.00    +0.000 A 
ATOM     10  N   UNL     1       3.301   6.253  19.159  0.00  0.00    +0.000 NA
ATOM     11  C   UNL     1       3.271   5.048  19.775  0.00  0.00    +0.000 A 
ENDROOT
BRANCH   1  15
ATOM     12  C   UNL     1       6.864   4.783  16.201  0.00  0.00    +0.000 A 
ATOM     13  C   UNL     1       5.591   4.269  15.952  0.00  0.00    +0.000 A 
ATOM     14  C   UNL     1       4.702   4.033  17.003  0.00  0.00    +0.000 A 
ATOM     15  C   UNL     1       5.085   4.286  18.324  0.00  0.00    +0.000 A 
ATOM     16  C   UNL     1       6.369   4.786  18.573  0.00  0.00    +0.000 A 
ATOM     17  C   UNL     1       7.254   5.037  17.516  0.00  0.00    +0.000 A 
BRANCH  12  19
ATOM     18  C   UNL     1       7.021   4.697  13.843  0.00  0.00    +0.000 C 
ATOM     19  O   UNL     1       7.632   4.999  15.091  0.00  0.00    +0.000 OA
ENDBRANCH  12  19
ENDBRANCH   1  15
BRANCH   9  20
ATOM     20  O   UNL     1       2.384   8.335  18.789  0.00  0.00    +0.000 OA
BRANCH  20  21
ATOM     21  C   UNL     1       1.320   9.199  18.916  0.00  0.00    +0.000 A 
ATOM     22  C   UNL     1       0.428   9.266  17.839  0.00  0.00    +0.000 A 
ATOM     23  C   UNL     1      -0.645  10.163  17.867  0.00  0.00    +0.000 A 
ATOM     24  C   UNL     1      -0.825  10.996  18.971  0.00  0.00    +0.000 A 
ATOM     25  C   UNL     1       0.077  10.941  20.033  0.00  0.00    +0.000 A 
ATOM     26 CL   UNL     1      -0.135  11.978  21.389  0.00  0.00    +0.000 Cl
ATOM     27  C   UNL     1       1.156  10.061  20.003  0.00  0.00    +0.000 A 
ENDBRANCH  20  21
ENDBRANCH   9  20
TORSDOF 4
ENDMDL
MODEL 3
REMARK VINA RESULT:      -8.2      1.694      1.925
REMARK  Name = 
REMARK  5 active torsions:
REMARK  status: ('A' for Active; 'I' for Inactive)
REMARK    1  A    between atoms: C_1  and  O_2
REMARK    2  A    between atoms: O_2  and  C_3
REMARK    3  A    between atoms: C_6  and  N_7
REMARK    4  A    between atoms: C_15  and  O_16
REMARK    5  A    between atoms: O_16  and  C_17
REMARK                            x       y       z     vdW  Elec       q    Type
REMARK                         _______ _______ _______ _____ _____    ______ ____
ROOT
ATOM      1  N   UNL     1       3.758   3.421  18.484  0.00  0.00    +0.000 N 
ATOM      2  C   UNL     1       3.513   2.054  18.513  0.00  0.00    +0.000 A 
ATOM      3  O   UNL     1       4.076   1.170  17.875  0.00  0.00    +0.000 OA
ATOM      4  C   UNL     1       2.390   1.604  19.409  0.00  0.00    +0.000 A 
ATOM      5  N   UNL     1       1.648   2.413  20.112  0.00  0.00    +0.000 NA
ATOM      6  C   UNL     1       1.918   3.782  19.992  0.00  0.00    +0.000 A 
ATOM      7  C   UNL     1       1.116   4.708  20.629  0.00  0.00    +0.000 A 
ATOM      8  N   UNL     1       1.273   6.043  20.537  0.00  0.00    +0.000 NA
ATOM      9  C   UNL     1       2.312   6.465  19.799  0.00  0.00    +0.000 A 
ATOM     10  N   UNL     1       3.156   5.661  19.138  0.00  0.00    +0.000 NA
ATOM     11  C   UNL     1       2.937   4.328  19.218  0.00  0.00    +0.000 A 
ENDROOT
BRANCH   1  15
ATOM     12  C   UNL     1       6.733   5.002  15.920  0.00  0.00    +0.000 A 
ATOM     13  C   UNL     1       5.479   4.658  15.417  0.00  0.00    +0.000 A 
ATOM     14  C   UNL     1       4.490   4.150  16.262  0.00  0.00    +0.000 A 
ATOM     15  C   UNL     1       4.752   3.957  17.623  0.00  0.00    +0.000 A 
ATOM     16  C   UNL     1       6.018   4.288  18.121  0.00  0.00    +0.000 A 
ATOM     17  C   UNL     1       7.004   4.811  17.275  0.00  0.00    +0.000 A 
BRANCH  12  19
ATOM     18  C   UNL     1       7.465   5.035  13.671  0.00  0.00    +0.000 C 
ATOM     19  O   UNL     1       7.608   5.515  15.003  0.00  0.00    +0.000 OA
ENDBRANCH  12  19
ENDBRANCH   1  15
BRANCH   9  20
ATOM     20  O   UNL     1       2.523   7.826  19.616  0.00  0.00    +0.000 OA
BRANCH  20  21
ATOM     21  C   UNL     1       1.489   8.695  19.880  0.00  0.00    +0.000 A 
ATOM     22  C   UNL     1       0.956   9.394  18.791  0.00  0.00    +0.000 A 
ATOM     23  C   UNL     1      -0.055  10.340  18.986  0.00  0.00    +0.000 A 
ATOM     24  C   UNL     1      -0.534  10.589  20.272  0.00  0.00    +0.000 A 
ATOM     25  C   UNL     1       0.012   9.905  21.357  0.00  0.00    +0.000 A 
ATOM     26 CL   UNL     1      -0.567  10.222  22.946  0.00  0.00    +0.000 Cl
ATOM     27  C   UNL     1       1.031   8.975  21.170  0.00  0.00    +0.000 A 
ENDBRANCH  20  21
ENDBRANCH   9  20
TORSDOF 4
ENDMDL
MODEL 4
REMARK VINA RESULT:      -8.1      2.053      2.558
REMARK  Name = 
REMARK  5 active torsions:
REMARK  status: ('A' for Active; 'I' for Inactive)
REMARK    1  A    between atoms: C_1  and  O_2
REMARK    2  A    between atoms: O_2  and  C_3
REMARK    3  A    between atoms: C_6  and  N_7
REMARK    4  A    between atoms: C_15  and  O_16
REMARK    5  A    between atoms: O_16  and  C_17
REMARK                            x       y       z     vdW  Elec       q    Type
REMARK                         _______ _______ _______ _____ _____    ______ ____
ROOT
ATOM      1  N   UNL     1       4.065   4.096  18.244  0.00  0.00    +0.000 N 
ATOM      2  C   UNL     1       4.086   2.872  17.588  0.00  0.00    +0.000 A 
ATOM      3  O   UNL     1       4.892   2.475  16.752  0.00  0.00    +0.000 OA
ATOM      4  C   UNL     1       2.958   1.930  17.914  0.00  0.00    +0.000 A 
ATOM      5  N   UNL     1       1.985   2.212  18.733  0.00  0.00    +0.000 NA
ATOM      6  C   UNL     1       2.000   3.485  19.317  0.00  0.00    +0.000 A 
ATOM      7  C   UNL     1       0.954   3.894  20.120  0.00  0.00    +0.000 A 
ATOM      8  N   UNL     1       0.862   5.113  20.688  0.00  0.00    +0.000 NA
ATOM      9  C   UNL     1       1.892   5.945  20.468  0.00  0.00    +0.000 A 
ATOM     10  N   UNL     1       2.958   5.658  19.709  0.00  0.00    +0.000 NA
ATOM     11  C   UNL     1       2.991   4.440  19.118  0.00  0.00    +0.000 A 
ENDROOT
BRANCH   1  15
ATOM     12  C   UNL     1       7.003   7.023  17.392  0.00  0.00    +0.000 A 
ATOM     13  C   UNL     1       5.822   6.974  16.652  0.00  0.00    +0.000 A 
ATOM     14  C   UNL     1       4.844   6.019  16.940  0.00  0.00    +0.000 A 
ATOM     15  C   UNL     1       5.046   5.084  17.960  0.00  0.00    +0.000 A 
ATOM     16  C   UNL     1       6.240   5.126  18.690  0.00  0.00    +0.000 A 
ATOM     17  C   UNL     1       7.214   6.093  18.410  0.00  0.00    +0.000 A 
BRANCH  12  19
ATOM     18  C   UNL     1       8.224   8.933  18.068  0.00  0.00    +0.000 C 
ATOM     19  O   UNL     1       7.871   8.018  17.037  0.00  0.00    +0.000 OA
ENDBRANCH  12  19
ENDBRANCH   1  15
BRANCH   9  20
ATOM     20  O   UNL     1       1.859   7.235  20.981  0.00  0.00    +0.000 OA
BRANCH  20  21
ATOM     21  C   UNL     1       1.421   8.258  20.170  0.00  0.00    +0.000 A 
ATOM     22  C   UNL     1       1.958   8.316  18.879  0.00  0.00    +0.000 A 
ATOM     23  C   UNL     1       1.608   9.359  18.016  0.00  0.00    +0.000 A 
ATOM     24  C   UNL     1       0.721  10.346  18.444  0.00  0.00    +0.000 A 
ATOM     25  C   UNL     1       0.202  10.296  19.737  0.00  0.00    +0.000 A 
ATOM     26 CL   UNL     1      -0.882  11.520  20.272  0.00  0.00    +0.000 Cl
ATOM     27  C   UNL     1       0.560   9.268  20.606  0.00  0.00    +0.000 A 
ENDBRANCH  20  21
ENDBRANCH   9  20
TORSDOF 4
ENDMDL
MODEL 5
REMARK VINA RESULT:      -8.1      1.057      1.671
REMARK  Name = 
REMARK  5 active torsions:
REMARK  status: ('A' for Active; 'I' for Inactive)
REMARK    1  A    between atoms: C_1  and  O_2
REMARK    2  A    between atoms: O_2  and  C_3
REMARK    3  A    between atoms: C_6  and  N_7
REMARK    4  A    between atoms: C_15  and  O_16
REMARK    5  A    between atoms: O_16  and  C_17
REMARK                            x       y       z     vdW  Elec       q    Type
REMARK                         _______ _______ _______ _____ _____    ______ ____
ROOT
ATOM      1  N   UNL     1       3.916   4.126  19.376  0.00  0.00    +0.000 N 
ATOM      2  C   UNL     1       3.772   2.887  19.988  0.00  0.00    +0.000 A 
ATOM      3  O   UNL     1       4.350   1.838  19.719  0.00  0.00    +0.000 OA
ATOM      4  C   UNL     1       2.752   2.810  21.092  0.00  0.00    +0.000 A 
ATOM      5  N   UNL     1       2.006   3.811  21.468  0.00  0.00    +0.000 NA
ATOM      6  C   UNL     1       2.168   5.015  20.771  0.00  0.00    +0.000 A 
ATOM      7  C   UNL     1       1.349   6.092  21.044  0.00  0.00    +0.000 A 
ATOM      8  N   UNL     1       1.402   7.273  20.398  0.00  0.00    +0.000 NA
ATOM      9  C   UNL     1       2.352   7.387  19.456  0.00  0.00    +0.000 A 
ATOM     10  N   UNL     1       3.202   6.412  19.106  0.00  0.00    +0.000 NA
ATOM     11  C   UNL     1       3.086   5.226  19.748  0.00  0.00    +0.000 A 
ENDROOT
BRANCH   1  15
ATOM     12  C   UNL     1       6.548   4.637  16.100  0.00  0.00    +0.000 A 
ATOM     13  C   UNL     1       6.987   4.877  17.402  0.00  0.00    +0.000 A 
ATOM     14  C   UNL     1       6.126   4.695  18.486  0.00  0.00    +0.000 A 
ATOM     15  C   UNL     1       4.803   4.291  18.280  0.00  0.00    +0.000 A 
ATOM     16  C   UNL     1       4.360   4.067  16.970  0.00  0.00    +0.000 A 
ATOM     17  C   UNL     1       5.229   4.236  15.885  0.00  0.00    +0.000 A 
BRANCH  12  19
ATOM     18  C   UNL     1       7.011   4.778  13.784  0.00  0.00    +0.000 C 
ATOM     19  O   UNL     1       7.488   4.821  15.124  0.00  0.00    +0.000 OA
ENDBRANCH  12  19
ENDBRANCH   1  15
BRANCH   9  20
ATOM     20  O   UNL     1       2.450   8.555  18.711  0.00  0.00    +0.000 OA
BRANCH  20  21
ATOM     21  C   UNL     1       1.391   9.435  18.719  0.00  0.00    +0.000 A 
ATOM     22  C   UNL     1       0.337   9.164  17.839  0.00  0.00    +0.000 A 
ATOM     23  C   UNL     1      -0.747  10.043  17.746  0.00  0.00    +0.000 A 
ATOM     24  C   UNL     1      -0.776  11.195  18.531  0.00  0.00    +0.000 A 
ATOM     25  C   UNL     1       0.284  11.472  19.393  0.00  0.00    +0.000 A 
ATOM     26 CL   UNL     1       0.257  12.899  20.352  0.00  0.00    +0.000 Cl
ATOM     27  C   UNL     1       1.374  10.608  19.478  0.00  0.00    +0.000 A 
ENDBRANCH  20  21
ENDBRANCH   9  20
TORSDOF 4
ENDMDL
MODEL 6
REMARK VINA RESULT:      -8.0      1.471      1.950
REMARK  Name = 
REMARK  5 active torsions:
REMARK  status: ('A' for Active; 'I' for Inactive)
REMARK    1  A    between atoms: C_1  and  O_2
REMARK    2  A    between atoms: O_2  and  C_3
REMARK    3  A    between atoms: C_6  and  N_7
REMARK    4  A    between atoms: C_15  and  O_16
REMARK    5  A    between atoms: O_16  and  C_17
REMARK                            x       y       z     vdW  Elec       q    Type
REMARK                         _______ _______ _______ _____ _____    ______ ____
ROOT
ATOM      1  N   UNL     1       3.797   3.459  18.421  0.00  0.00    +0.000 N 
ATOM      2  C   UNL     1       3.542   2.096  18.504  0.00  0.00    +0.000 A 
ATOM      3  O   UNL     1       4.079   1.186  17.880  0.00  0.00    +0.000 OA
ATOM      4  C   UNL     1       2.444   1.686  19.449  0.00  0.00    +0.000 A 
ATOM      5  N   UNL     1       1.729   2.525  20.146  0.00  0.00    +0.000 NA
ATOM      6  C   UNL     1       2.006   3.887  19.971  0.00  0.00    +0.000 A 
ATOM      7  C   UNL     1       1.231   4.840  20.600  0.00  0.00    +0.000 A 
ATOM      8  N   UNL     1       1.395   6.170  20.458  0.00  0.00    +0.000 NA
ATOM      9  C   UNL     1       2.414   6.558  19.676  0.00  0.00    +0.000 A 
ATOM     10  N   UNL     1       3.231   5.725  19.017  0.00  0.00    +0.000 NA
ATOM     11  C   UNL     1       3.005   4.397  19.149  0.00  0.00    +0.000 A 
ENDROOT
BRANCH   1  15
ATOM     12  C   UNL     1       6.677   4.965  15.708  0.00  0.00    +0.000 A 
ATOM     13  C   UNL     1       6.989   4.819  17.060  0.00  0.00    +0.000 A 
ATOM     14  C   UNL     1       6.047   4.308  17.955  0.00  0.00    +0.000 A 
ATOM     15  C   UNL     1       4.767   3.958  17.513  0.00  0.00    +0.000 A 
ATOM     16  C   UNL     1       4.451   4.122  16.158  0.00  0.00    +0.000 A 
ATOM     17  C   UNL     1       5.402   4.620  15.259  0.00  0.00    +0.000 A 
BRANCH  12  19
ATOM     18  C   UNL     1       7.612   5.125  13.541  0.00  0.00    +0.000 C 
ATOM     19  O   UNL     1       7.689   5.447  14.925  0.00  0.00    +0.000 OA
ENDBRANCH  12  19
ENDBRANCH   1  15
BRANCH   9  20
ATOM     20  O   UNL     1       2.629   7.910  19.440  0.00  0.00    +0.000 OA
BRANCH  20  21
ATOM     21  C   UNL     1       1.544   8.756  19.412  0.00  0.00    +0.000 A 
ATOM     22  C   UNL     1       1.073   9.140  18.151  0.00  0.00    +0.000 A 
ATOM     23  C   UNL     1       0.012  10.044  18.039  0.00  0.00    +0.000 A 
ATOM     24  C   UNL     1      -0.577  10.568  19.189  0.00  0.00    +0.000 A 
ATOM     25  C   UNL     1      -0.093  10.199  20.444  0.00  0.00    +0.000 A 
ATOM     26 CL   UNL     1      -0.810  10.855  21.864  0.00  0.00    +0.000 Cl
ATOM     27  C   UNL     1       0.974   9.311  20.560  0.00  0.00    +0.000 A 
ENDBRANCH  20  21
ENDBRANCH   9  20
TORSDOF 4
ENDMDL
MODEL 7
REMARK VINA RESULT:      -7.9      0.697      1.158
REMARK  Name = 
REMARK  5 active torsions:
REMARK  status: ('A' for Active; 'I' for Inactive)
REMARK    1  A    between atoms: C_1  and  O_2
REMARK    2  A    between atoms: O_2  and  C_3
REMARK    3  A    between atoms: C_6  and  N_7
REMARK    4  A    between atoms: C_15  and  O_16
REMARK    5  A    between atoms: O_16  and  C_17
REMARK                            x       y       z     vdW  Elec       q    Type
REMARK                         _______ _______ _______ _____ _____    ______ ____
ROOT
ATOM      1  N   UNL     1       4.151   4.631  19.014  0.00  0.00    +0.000 N 
ATOM      2  C   UNL     1       4.099   3.419  19.691  0.00  0.00    +0.000 A 
ATOM      3  O   UNL     1       4.741   2.398  19.465  0.00  0.00    +0.000 OA
ATOM      4  C   UNL     1       3.104   3.336  20.817  0.00  0.00    +0.000 A 
ATOM      5  N   UNL     1       2.300   4.304  21.155  0.00  0.00    +0.000 NA
ATOM      6  C   UNL     1       2.370   5.478  20.394  0.00  0.00    +0.000 A 
ATOM      7  C   UNL     1       1.487   6.512  20.627  0.00  0.00    +0.000 A 
ATOM      8  N   UNL     1       1.452   7.658  19.919  0.00  0.00    +0.000 NA
ATOM      9  C   UNL     1       2.377   7.784  18.955  0.00  0.00    +0.000 A 
ATOM     10  N   UNL     1       3.284   6.849  18.639  0.00  0.00    +0.000 NA
ATOM     11  C   UNL     1       3.257   5.693  19.344  0.00  0.00    +0.000 A 
ENDROOT
BRANCH   1  15
ATOM     12  C   UNL     1       6.691   5.137  15.664  0.00  0.00    +0.000 A 
ATOM     13  C   UNL     1       7.113   5.528  16.935  0.00  0.00    +0.000 A 
ATOM     14  C   UNL     1       6.284   5.348  18.045  0.00  0.00    +0.000 A 
ATOM     15  C   UNL     1       5.008   4.796  17.893  0.00  0.00    +0.000 A 
ATOM     16  C   UNL     1       4.581   4.421  16.613  0.00  0.00    +0.000 A 
ATOM     17  C   UNL     1       5.419   4.587  15.504  0.00  0.00    +0.000 A 
BRANCH  12  19
ATOM     18  C   UNL     1       7.207   4.890  13.369  0.00  0.00    +0.000 C 
ATOM     19  O   UNL     1       7.600   5.336  14.662  0.00  0.00    +0.000 OA
ENDBRANCH  12  19
ENDBRANCH   1  15
BRANCH   9  20
ATOM     20  O   UNL     1       2.386   8.915  18.149  0.00  0.00    +0.000 OA
BRANCH  20  21
ATOM     21  C   UNL     1       1.304   9.764  18.190  0.00  0.00    +0.000 A 
ATOM     22  C   UNL     1       1.489  10.996  18.827  0.00  0.00    +0.000 A 
ATOM     23  C   UNL     1       0.421  11.888  18.963  0.00  0.00    +0.000 A 
ATOM     24  C   UNL     1      -0.835  11.548  18.461  0.00  0.00    +0.000 A 
ATOM     25  C   UNL     1      -1.022  10.312  17.844  0.00  0.00    +0.000 A 
ATOM     26 CL   UNL     1      -2.574   9.884  17.239  0.00  0.00    +0.000 Cl
ATOM     27  C   UNL     1       0.035   9.413  17.722  0.00  0.00    +0.000 A 
ENDBRANCH  20  21
ENDBRANCH   9  20
TORSDOF 4
ENDMDL
MODEL 8
REMARK VINA RESULT:      -7.8      1.337      1.445
REMARK  Name = 
REMARK  5 active torsions:
REMARK  status: ('A' for Active; 'I' for Inactive)
REMARK    1  A    between atoms: C_1  and  O_2
REMARK    2  A    between atoms: O_2  and  C_3
REMARK    3  A    between atoms: C_6  and  N_7
REMARK    4  A    between atoms: C_15  and  O_16
REMARK    5  A    between atoms: O_16  and  C_17
REMARK                            x       y       z     vdW  Elec       q    Type
REMARK                         _______ _______ _______ _____ _____    ______ ____
ROOT
ATOM      1  N   UNL     1       3.705   3.405  18.479  0.00  0.00    +0.000 N 
ATOM      2  C   UNL     1       3.440   2.041  18.475  0.00  0.00    +0.000 A 
ATOM      3  O   UNL     1       3.995   1.164  17.821  0.00  0.00    +0.000 OA
ATOM      4  C   UNL     1       2.304   1.588  19.352  0.00  0.00    +0.000 A 
ATOM      5  N   UNL     1       1.568   2.391  20.068  0.00  0.00    +0.000 NA
ATOM      6  C   UNL     1       1.858   3.758  19.981  0.00  0.00    +0.000 A 
ATOM      7  C   UNL     1       1.064   4.681  20.632  0.00  0.00    +0.000 A 
ATOM      8  N   UNL     1       1.241   6.015  20.572  0.00  0.00    +0.000 NA
ATOM      9  C   UNL     1       2.291   6.439  19.852  0.00  0.00    +0.000 A 
ATOM     10  N   UNL     1       3.129   5.639  19.179  0.00  0.00    +0.000 NA
ATOM     11  C   UNL     1       2.891   4.306  19.227  0.00  0.00    +0.000 A 
ENDROOT
BRANCH   1  15
ATOM     12  C   UNL     1       6.723   5.001  15.975  0.00  0.00    +0.000 A 
ATOM     13  C   UNL     1       5.491   4.624  15.442  0.00  0.00    +0.000 A 
ATOM     14  C   UNL     1       4.487   4.111  16.267  0.00  0.00    +0.000 A 
ATOM     15  C   UNL     1       4.713   3.947  17.638  0.00  0.00    +0.000 A 
ATOM     16  C   UNL     1       5.957   4.310  18.167  0.00  0.00    +0.000 A 
ATOM     17  C   UNL     1       6.957   4.839  17.341  0.00  0.00    +0.000 A 
BRANCH  12  19
ATOM     18  C   UNL     1       7.458   5.084  13.728  0.00  0.00    +0.000 C 
ATOM     19  O   UNL     1       7.614   5.516  15.075  0.00  0.00    +0.000 OA
ENDBRANCH  12  19
ENDBRANCH   1  15
BRANCH   9  20
ATOM     20  O   UNL     1       2.523   7.800  19.702  0.00  0.00    +0.000 OA
BRANCH  20  21
ATOM     21  C   UNL     1       1.545   8.684  20.097  0.00  0.00    +0.000 A 
ATOM     22  C   UNL     1       1.329   8.815  21.474  0.00  0.00    +0.000 A 
ATOM     23  C   UNL     1       0.313   9.647  21.953  0.00  0.00    +0.000 A 
ATOM     24  C   UNL     1      -0.490  10.349  21.055  0.00  0.00    +0.000 A 
ATOM     25  C   UNL     1      -0.286  10.202  19.683  0.00  0.00    +0.000 A 
ATOM     26 CL   UNL     1      -1.285  11.056  18.574  0.00  0.00    +0.000 Cl
ATOM     27  C   UNL     1       0.714   9.361  19.201  0.00  0.00    +0.000 A 
ENDBRANCH  20  21
ENDBRANCH   9  20
TORSDOF 4
ENDMDL
MODEL 9
REMARK VINA RESULT:      -7.8      2.685      4.117
REMARK  Name = 
REMARK  5 active torsions:
REMARK  status: ('A' for Active; 'I' for Inactive)
REMARK    1  A    between atoms: C_1  and  O_2
REMARK    2  A    between atoms: O_2  and  C_3
REMARK    3  A    between atoms: C_6  and  N_7
REMARK    4  A    between atoms: C_15  and  O_16
REMARK    5  A    between atoms: O_16  and  C_17
REMARK                            x       y       z     vdW  Elec       q    Type
REMARK                         _______ _______ _______ _____ _____    ______ ____
ROOT
ATOM      1  N   UNL     1       6.231   5.383  17.109  0.00  0.00    +0.000 N 
ATOM      2  C   UNL     1       6.709   4.646  16.033  0.00  0.00    +0.000 A 
ATOM      3  O   UNL     1       7.777   4.775  15.443  0.00  0.00    +0.000 OA
ATOM      4  C   UNL     1       5.787   3.582  15.500  0.00  0.00    +0.000 A 
ATOM      5  N   UNL     1       4.593   3.349  15.968  0.00  0.00    +0.000 NA
ATOM      6  C   UNL     1       4.156   4.166  17.018  0.00  0.00    +0.000 A 
ATOM      7  C   UNL     1       2.870   4.046  17.503  0.00  0.00    +0.000 A 
ATOM      8  N   UNL     1       2.349   4.815  18.479  0.00  0.00    +0.000 NA
ATOM      9  C   UNL     1       3.176   5.724  19.018  0.00  0.00    +0.000 A 
ATOM     10  N   UNL     1       4.442   5.930  18.630  0.00  0.00    +0.000 NA
ATOM     11  C   UNL     1       4.914   5.168  17.615  0.00  0.00    +0.000 A 
ENDROOT
BRANCH   1  15
ATOM     12  C   UNL     1       8.524   8.563  18.707  0.00  0.00    +0.000 A 
ATOM     13  C   UNL     1       7.706   8.771  17.597  0.00  0.00    +0.000 A 
ATOM     14  C   UNL     1       6.936   7.729  17.076  0.00  0.00    +0.000 A 
ATOM     15  C   UNL     1       6.993   6.453  17.647  0.00  0.00    +0.000 A 
ATOM     16  C   UNL     1       7.828   6.243  18.752  0.00  0.00    +0.000 A 
ATOM     17  C   UNL     1       8.588   7.293  19.282  0.00  0.00    +0.000 A 
BRANCH  12  19
ATOM     18  C   UNL     1       9.194  10.789  18.272  0.00  0.00    +0.000 C 
ATOM     19  O   UNL     1       9.206   9.665  19.144  0.00  0.00    +0.000 OA
ENDBRANCH  12  19
ENDBRANCH   1  15
BRANCH   9  20
ATOM     20  O   UNL     1       2.710   6.587  20.001  0.00  0.00    +0.000 OA
BRANCH  20  21
ATOM     21  C   UNL     1       2.035   7.724  19.615  0.00  0.00    +0.000 A 
ATOM     22  C   UNL     1       2.256   8.178  18.310  0.00  0.00    +0.000 A 
ATOM     23  C   UNL     1       1.654   9.358  17.863  0.00  0.00    +0.000 A 
ATOM     24  C   UNL     1       0.832  10.087  18.722  0.00  0.00    +0.000 A 
ATOM     25  C   UNL     1       0.629   9.642  20.028  0.00  0.00    +0.000 A 
ATOM     26 CL   UNL     1      -0.373  10.547  21.094  0.00  0.00    +0.000 Cl
ATOM     27  C   UNL     1       1.240   8.476  20.483  0.00  0.00    +0.000 A 
ENDBRANCH  20  21
ENDBRANCH   9  20
TORSDOF 4
ENDMDL
