MODEL 1
REMARK VINA RESULT:      -7.5      0.000      0.000
REMARK  Name = 
REMARK  9 active torsions:
REMARK  status: ('A' for Active; 'I' for Inactive)
REMARK    1  A    between atoms: C_1  and  O_2
REMARK    2  A    between atoms: O_2  and  C_3
REMARK    3  A    between atoms: C_5  and  C_6
REMARK    4  A    between atoms: C_13  and  C_14
REMARK    5  A    between atoms: N_16  and  CA_17
REMARK    6  A    between atoms: CA_17  and  C_18
REMARK    7  A    between atoms: CA_17  and  CB_20
REMARK    8  A    between atoms: C_18  and  O_19
REMARK    9  A    between atoms: CB_20  and  CG_21
REMARK                            x       y       z     vdW  Elec       q    Type
REMARK                         _______ _______ _______ _____ _____    ______ ____
ROOT
ATOM      1  C   UNK A   0       4.046   5.984  17.795  0.00  0.00    +0.000 C 
ATOM      2  O   UNK A   0       3.605   4.933  17.317  0.00  0.00    +0.000 OA
ATOM      3  N   PHE A   1       5.393   6.239  17.737  0.00  0.00    +0.000 N 
ATOM      4  H   PHE A   1       5.728   7.154  18.026  0.00  0.00    +0.000 HD
ENDROOT
BRANCH   1  10
ATOM      5  C   UNK A   0       2.409   6.846  19.671  0.00  0.00    +0.000 A 
ATOM      6  C   UNK A   0       1.559   7.911  20.070  0.00  0.00    +0.000 A 
ATOM      7  C   UNK A   0       1.283   8.998  19.227  0.00  0.00    +0.000 A 
ATOM      8  C   UNK A   0       1.941   9.071  18.007  0.00  0.00    +0.000 A 
ATOM      9  C   UNK A   0       2.831   8.067  17.628  0.00  0.00    +0.000 A 
ATOM     10  C   UNK A   0       3.079   6.938  18.436  0.00  0.00    +0.000 A 
BRANCH   7  11
ATOM     11  C   UNK A   0       0.269   9.987  19.539  0.00  0.00    +0.000 A 
ATOM     12  C   UNK A   0      -0.698  10.576  18.686  0.00  0.00    +0.000 A 
ATOM     13  N   UNK A   0      -1.500  11.429  19.324  0.00  0.00    +0.000 NA
ATOM     14  N   UNK A   0      -1.053  11.393  20.588  0.00  0.00    +0.000 N 
ATOM     15  C   UNK A   0       0.002  10.542  20.771  0.00  0.00    +0.000 A 
ATOM     16  H   UNK A   0      -1.524  11.970  21.276  0.00  0.00    +0.000 HD
ENDBRANCH   7  11
BRANCH   5  18
ATOM     17  C   UNK A   0       1.469   4.812  20.472  0.00  0.00    +0.000 C 
ATOM     18  O   UNK A   0       2.579   5.727  20.457  0.00  0.00    +0.000 OA
ENDBRANCH   5  18
ENDBRANCH   1  10
BRANCH   3  19
ATOM     19  CA  PHE A   1       6.343   5.269  17.113  0.00  0.00    +0.000 C 
BRANCH  19  20
ATOM     20  C   PHE A   1       7.408   4.797  18.141  0.00  0.00    +0.000 C 
BRANCH  20  21
ATOM     21  O   PHE A   1       8.388   3.914  17.597  0.00  0.00    +0.000 OA
ATOM     22  H   PHE A   1       8.313   3.972  16.618  0.00  0.00    +0.000 HD
ENDBRANCH  20  21
ENDBRANCH  19  20
BRANCH  19  23
ATOM     23  CB  PHE A   1       6.974   5.823  15.800  0.00  0.00    +0.000 C 
BRANCH  23  24
ATOM     24  CG  PHE A   1       6.673   5.017  14.551  0.00  0.00    +0.000 A 
ATOM     25  CD1 PHE A   1       5.490   4.270  14.462  0.00  0.00    +0.000 A 
ATOM     26  CE1 PHE A   1       5.214   3.502  13.328  0.00  0.00    +0.000 A 
ATOM     27  CZ  PHE A   1       6.119   3.472  12.270  0.00  0.00    +0.000 A 
ATOM     28  CE2 PHE A   1       7.276   4.240  12.323  0.00  0.00    +0.000 A 
ATOM     29  CD2 PHE A   1       7.545   5.019  13.451  0.00  0.00    +0.000 A 
ENDBRANCH  23  24
ENDBRANCH  19  23
ENDBRANCH   3  19
TORSDOF 8
ENDMDL
MODEL 2
REMARK VINA RESULT:      -7.3      0.625      1.128
REMARK  Name = 
REMARK  9 active torsions:
REMARK  status: ('A' for Active; 'I' for Inactive)
REMARK    1  A    between atoms: C_1  and  O_2
REMARK    2  A    between atoms: O_2  and  C_3
REMARK    3  A    between atoms: C_5  and  C_6
REMARK    4  A    between atoms: C_13  and  C_14
REMARK    5  A    between atoms: N_16  and  CA_17
REMARK    6  A    between atoms: CA_17  and  C_18
REMARK    7  A    between atoms: CA_17  and  CB_20
REMARK    8  A    between atoms: C_18  and  O_19
REMARK    9  A    between atoms: CB_20  and  CG_21
REMARK                            x       y       z     vdW  Elec       q    Type
REMARK                         _______ _______ _______ _____ _____    ______ ____
ROOT
ATOM      1  C   UNK A   0       3.755   5.937  17.840  0.00  0.00    +0.000 C 
ATOM      2  O   UNK A   0       3.284   4.817  17.617  0.00  0.00    +0.000 OA
ATOM      3  N   PHE A   1       5.056   6.204  17.498  0.00  0.00    +0.000 N 
ATOM      4  H   PHE A   1       5.395   7.158  17.577  0.00  0.00    +0.000 HD
ENDROOT
BRANCH   1  10
ATOM      5  C   UNK A   0       2.262   6.947  19.763  0.00  0.00    +0.000 A 
ATOM      6  C   UNK A   0       1.494   8.070  20.167  0.00  0.00    +0.000 A 
ATOM      7  C   UNK A   0       1.238   9.146  19.303  0.00  0.00    +0.000 A 
ATOM      8  C   UNK A   0       1.838   9.145  18.052  0.00  0.00    +0.000 A 
ATOM      9  C   UNK A   0       2.650   8.080  17.663  0.00  0.00    +0.000 A 
ATOM     10  C   UNK A   0       2.875   6.964  18.495  0.00  0.00    +0.000 A 
BRANCH   7  11
ATOM     11  C   UNK A   0       0.297  10.200  19.631  0.00  0.00    +0.000 A 
ATOM     12  C   UNK A   0      -0.464  11.022  18.761  0.00  0.00    +0.000 A 
ATOM     13  N   UNK A   0      -1.259  11.870  19.414  0.00  0.00    +0.000 NA
ATOM     14  N   UNK A   0      -1.015  11.597  20.705  0.00  0.00    +0.000 N 
ATOM     15  C   UNK A   0      -0.094  10.602  20.889  0.00  0.00    +0.000 A 
ATOM     16  H   UNK A   0      -1.522  12.125  21.407  0.00  0.00    +0.000 HD
ENDBRANCH   7  11
BRANCH   5  18
ATOM     17  C   UNK A   0       1.323   4.902  20.534  0.00  0.00    +0.000 C 
ATOM     18  O   UNK A   0       2.409   5.844  20.576  0.00  0.00    +0.000 OA
ENDBRANCH   5  18
ENDBRANCH   1  10
BRANCH   3  19
ATOM     19  CA  PHE A   1       5.923   5.164  16.864  0.00  0.00    +0.000 C 
BRANCH  19  20
ATOM     20  C   PHE A   1       6.798   4.449  17.930  0.00  0.00    +0.000 C 
BRANCH  20  21
ATOM     21  O   PHE A   1       6.053   3.663  18.859  0.00  0.00    +0.000 OA
ATOM     22  H   PHE A   1       5.180   4.102  18.969  0.00  0.00    +0.000 HD
ENDBRANCH  20  21
ENDBRANCH  19  20
BRANCH  19  23
ATOM     23  CB  PHE A   1       6.759   5.735  15.680  0.00  0.00    +0.000 C 
BRANCH  23  24
ATOM     24  CG  PHE A   1       6.641   4.965  14.378  0.00  0.00    +0.000 A 
ATOM     25  CD1 PHE A   1       7.605   5.126  13.374  0.00  0.00    +0.000 A 
ATOM     26  CE1 PHE A   1       7.492   4.443  12.159  0.00  0.00    +0.000 A 
ATOM     27  CZ  PHE A   1       6.412   3.594  11.936  0.00  0.00    +0.000 A 
ATOM     28  CE2 PHE A   1       5.469   3.390  12.936  0.00  0.00    +0.000 A 
ATOM     29  CD2 PHE A   1       5.590   4.062  14.156  0.00  0.00    +0.000 A 
ENDBRANCH  23  24
ENDBRANCH  19  23
ENDBRANCH   3  19
TORSDOF 8
ENDMDL
MODEL 3
REMARK VINA RESULT:      -7.2      2.374      3.417
REMARK  Name = 
REMARK  9 active torsions:
REMARK  status: ('A' for Active; 'I' for Inactive)
REMARK    1  A    between atoms: C_1  and  O_2
REMARK    2  A    between atoms: O_2  and  C_3
REMARK    3  A    between atoms: C_5  and  C_6
REMARK    4  A    between atoms: C_13  and  C_14
REMARK    5  A    between atoms: N_16  and  CA_17
REMARK    6  A    between atoms: CA_17  and  C_18
REMARK    7  A    between atoms: CA_17  and  CB_20
REMARK    8  A    between atoms: C_18  and  O_19
REMARK    9  A    between atoms: CB_20  and  CG_21
REMARK                            x       y       z     vdW  Elec       q    Type
REMARK                         _______ _______ _______ _____ _____    ______ ____
ROOT
ATOM      1  C   UNK A   0       2.529   4.977  18.112  0.00  0.00    +0.000 C 
ATOM      2  O   UNK A   0       1.687   4.376  17.436  0.00  0.00    +0.000 OA
ATOM      3  N   PHE A   1       3.860   4.682  17.953  0.00  0.00    +0.000 N 
ATOM      4  H   PHE A   1       4.547   5.262  18.425  0.00  0.00    +0.000 HD
ENDROOT
BRANCH   1  10
ATOM      5  C   UNK A   0       1.464   5.834  20.365  0.00  0.00    +0.000 A 
ATOM      6  C   UNK A   0       1.126   6.985  21.124  0.00  0.00    +0.000 A 
ATOM      7  C   UNK A   0       1.259   8.282  20.608  0.00  0.00    +0.000 A 
ATOM      8  C   UNK A   0       1.829   8.438  19.353  0.00  0.00    +0.000 A 
ATOM      9  C   UNK A   0       2.229   7.322  18.620  0.00  0.00    +0.000 A 
ATOM     10  C   UNK A   0       2.052   6.006  19.097  0.00  0.00    +0.000 A 
BRANCH   7  11
ATOM     11  C   UNK A   0       0.736   9.450  21.293  0.00  0.00    +0.000 A 
ATOM     12  C   UNK A   0       0.268   9.568  22.626  0.00  0.00    +0.000 A 
ATOM     13  N   UNK A   0      -0.111  10.810  22.933  0.00  0.00    +0.000 NA
ATOM     14  N   UNK A   0       0.113  11.494  21.801  0.00  0.00    +0.000 N 
ATOM     15  C   UNK A   0       0.624  10.726  20.790  0.00  0.00    +0.000 A 
ATOM     16  H   UNK A   0      -0.099  12.485  21.795  0.00  0.00    +0.000 HD
ENDBRANCH   7  11
BRANCH   5  18
ATOM     17  C   UNK A   0       2.325   3.927  21.498  0.00  0.00    +0.000 C 
ATOM     18  O   UNK A   0       1.218   4.562  20.835  0.00  0.00    +0.000 OA
ENDBRANCH   5  18
ENDBRANCH   1  10
BRANCH   3  19
ATOM     19  CA  PHE A   1       4.315   3.641  16.982  0.00  0.00    +0.000 C 
BRANCH  19  20
ATOM     20  C   PHE A   1       4.307   2.232  17.636  0.00  0.00    +0.000 C 
BRANCH  20  21
ATOM     21  O   PHE A   1       3.010   1.644  17.732  0.00  0.00    +0.000 OA
ATOM     22  H   PHE A   1       3.108   0.822  18.264  0.00  0.00    +0.000 HD
ENDBRANCH  20  21
ENDBRANCH  19  20
BRANCH  19  23
ATOM     23  CB  PHE A   1       5.686   3.998  16.334  0.00  0.00    +0.000 C 
BRANCH  23  24
ATOM     24  CG  PHE A   1       6.502   5.034  17.082  0.00  0.00    +0.000 A 
ATOM     25  CD1 PHE A   1       7.228   4.669  18.224  0.00  0.00    +0.000 A 
ATOM     26  CE1 PHE A   1       7.962   5.621  18.938  0.00  0.00    +0.000 A 
ATOM     27  CZ  PHE A   1       7.976   6.948  18.518  0.00  0.00    +0.000 A 
ATOM     28  CE2 PHE A   1       7.297   7.319  17.364  0.00  0.00    +0.000 A 
ATOM     29  CD2 PHE A   1       6.575   6.365  16.642  0.00  0.00    +0.000 A 
ENDBRANCH  23  24
ENDBRANCH  19  23
ENDBRANCH   3  19
TORSDOF 8
ENDMDL
MODEL 4
REMARK VINA RESULT:      -7.1      1.091      1.297
REMARK  Name = 
REMARK  9 active torsions:
REMARK  status: ('A' for Active; 'I' for Inactive)
REMARK    1  A    between atoms: C_1  and  O_2
REMARK    2  A    between atoms: O_2  and  C_3
REMARK    3  A    between atoms: C_5  and  C_6
REMARK    4  A    between atoms: C_13  and  C_14
REMARK    5  A    between atoms: N_16  and  CA_17
REMARK    6  A    between atoms: CA_17  and  C_18
REMARK    7  A    between atoms: CA_17  and  CB_20
REMARK    8  A    between atoms: C_18  and  O_19
REMARK    9  A    between atoms: CB_20  and  CG_21
REMARK                            x       y       z     vdW  Elec       q    Type
REMARK                         _______ _______ _______ _____ _____    ______ ____
ROOT
ATOM      1  C   UNK A   0       3.440   5.620  17.927  0.00  0.00    +0.000 C 
ATOM      2  O   UNK A   0       2.870   4.642  17.430  0.00  0.00    +0.000 OA
ATOM      3  N   PHE A   1       4.735   5.900  17.571  0.00  0.00    +0.000 N 
ATOM      4  H   PHE A   1       5.151   6.769  17.893  0.00  0.00    +0.000 HD
ENDROOT
BRANCH   1  10
ATOM      5  C   UNK A   0       2.172   6.115  20.183  0.00  0.00    +0.000 A 
ATOM      6  C   UNK A   0       1.514   7.113  20.949  0.00  0.00    +0.000 A 
ATOM      7  C   UNK A   0       1.265   8.397  20.442  0.00  0.00    +0.000 A 
ATOM      8  C   UNK A   0       1.765   8.720  19.189  0.00  0.00    +0.000 A 
ATOM      9  C   UNK A   0       2.472   7.773  18.449  0.00  0.00    +0.000 A 
ATOM     10  C   UNK A   0       2.684   6.459  18.918  0.00  0.00    +0.000 A 
BRANCH   7  11
ATOM     11  C   UNK A   0       0.426   9.357  21.134  0.00  0.00    +0.000 A 
ATOM     12  C   UNK A   0      -0.245  10.493  20.616  0.00  0.00    +0.000 A 
ATOM     13  N   UNK A   0      -0.963  11.136  21.538  0.00  0.00    +0.000 NA
ATOM     14  N   UNK A   0      -0.758  10.416  22.651  0.00  0.00    +0.000 N 
ATOM     15  C   UNK A   0       0.063   9.338  22.462  0.00  0.00    +0.000 A 
ATOM     16  H   UNK A   0      -1.219  10.716  23.503  0.00  0.00    +0.000 HD
ENDBRANCH   7  11
BRANCH   5  18
ATOM     17  C   UNK A   0       1.130   4.003  20.524  0.00  0.00    +0.000 C 
ATOM     18  O   UNK A   0       2.306   4.823  20.644  0.00  0.00    +0.000 OA
ENDBRANCH   5  18
ENDBRANCH   1  10
BRANCH   3  19
ATOM     19  CA  PHE A   1       5.478   5.042  16.599  0.00  0.00    +0.000 C 
BRANCH  19  20
ATOM     20  C   PHE A   1       6.702   4.369  17.277  0.00  0.00    +0.000 C 
BRANCH  20  21
ATOM     21  O   PHE A   1       6.472   3.973  18.628  0.00  0.00    +0.000 OA
ATOM     22  H   PHE A   1       6.399   2.992  18.630  0.00  0.00    +0.000 HD
ENDBRANCH  20  21
ENDBRANCH  19  20
BRANCH  19  23
ATOM     23  CB  PHE A   1       5.857   5.815  15.300  0.00  0.00    +0.000 C 
BRANCH  23  24
ATOM     24  CG  PHE A   1       6.111   4.945  14.084  0.00  0.00    +0.000 A 
ATOM     25  CD1 PHE A   1       5.145   4.020  13.664  0.00  0.00    +0.000 A 
ATOM     26  CE1 PHE A   1       5.380   3.194  12.561  0.00  0.00    +0.000 A 
ATOM     27  CZ  PHE A   1       6.583   3.282  11.867  0.00  0.00    +0.000 A 
ATOM     28  CE2 PHE A   1       7.534   4.223  12.243  0.00  0.00    +0.000 A 
ATOM     29  CD2 PHE A   1       7.294   5.060  13.337  0.00  0.00    +0.000 A 
ENDBRANCH  23  24
ENDBRANCH  19  23
ENDBRANCH   3  19
TORSDOF 8
ENDMDL
MODEL 5
REMARK VINA RESULT:      -7.1      2.175      3.341
REMARK  Name = 
REMARK  9 active torsions:
REMARK  status: ('A' for Active; 'I' for Inactive)
REMARK    1  A    between atoms: C_1  and  O_2
REMARK    2  A    between atoms: O_2  and  C_3
REMARK    3  A    between atoms: C_5  and  C_6
REMARK    4  A    between atoms: C_13  and  C_14
REMARK    5  A    between atoms: N_16  and  CA_17
REMARK    6  A    between atoms: CA_17  and  C_18
REMARK    7  A    between atoms: CA_17  and  CB_20
REMARK    8  A    between atoms: C_18  and  O_19
REMARK    9  A    between atoms: CB_20  and  CG_21
REMARK                            x       y       z     vdW  Elec       q    Type
REMARK                         _______ _______ _______ _____ _____    ______ ____
ROOT
ATOM      1  C   UNK A   0       2.671   5.317  18.057  0.00  0.00    +0.000 C 
ATOM      2  O   UNK A   0       1.829   4.689  17.405  0.00  0.00    +0.000 OA
ATOM      3  N   PHE A   1       4.005   5.055  17.869  0.00  0.00    +0.000 N 
ATOM      4  H   PHE A   1       4.687   5.656  18.321  0.00  0.00    +0.000 HD
ENDROOT
BRANCH   1  10
ATOM      5  C   UNK A   0       1.870   6.196  20.408  0.00  0.00    +0.000 A 
ATOM      6  C   UNK A   0       1.463   7.342  21.141  0.00  0.00    +0.000 A 
ATOM      7  C   UNK A   0       1.265   8.587  20.527  0.00  0.00    +0.000 A 
ATOM      8  C   UNK A   0       1.573   8.714  19.180  0.00  0.00    +0.000 A 
ATOM      9  C   UNK A   0       2.038   7.616  18.459  0.00  0.00    +0.000 A 
ATOM     10  C   UNK A   0       2.190   6.341  19.045  0.00  0.00    +0.000 A 
BRANCH   7  11
ATOM     11  C   UNK A   0       0.663   9.710  21.220  0.00  0.00    +0.000 A 
ATOM     12  C   UNK A   0       0.164   9.779  22.545  0.00  0.00    +0.000 A 
ATOM     13  N   UNK A   0      -0.292  10.991  22.864  0.00  0.00    +0.000 NA
ATOM     14  N   UNK A   0      -0.088  11.706  21.748  0.00  0.00    +0.000 N 
ATOM     15  C   UNK A   0       0.485  10.987  20.735  0.00  0.00    +0.000 A 
ATOM     16  H   UNK A   0      -0.357  12.684  21.754  0.00  0.00    +0.000 HD
ENDBRANCH   7  11
BRANCH   5  18
ATOM     17  C   UNK A   0       0.930   4.018  20.592  0.00  0.00    +0.000 C 
ATOM     18  O   UNK A   0       1.946   4.953  20.997  0.00  0.00    +0.000 OA
ENDBRANCH   5  18
ENDBRANCH   1  10
BRANCH   3  19
ATOM     19  CA  PHE A   1       4.465   4.018  16.896  0.00  0.00    +0.000 C 
BRANCH  19  20
ATOM     20  C   PHE A   1       4.289   2.591  17.483  0.00  0.00    +0.000 C 
BRANCH  20  21
ATOM     21  O   PHE A   1       4.595   2.493  18.873  0.00  0.00    +0.000 OA
ATOM     22  H   PHE A   1       5.516   2.152  18.939  0.00  0.00    +0.000 HD
ENDBRANCH  20  21
ENDBRANCH  19  20
BRANCH  19  23
ATOM     23  CB  PHE A   1       5.912   4.288  16.386  0.00  0.00    +0.000 C 
BRANCH  23  24
ATOM     24  CG  PHE A   1       6.699   5.306  17.190  0.00  0.00    +0.000 A 
ATOM     25  CD1 PHE A   1       6.818   6.625  16.731  0.00  0.00    +0.000 A 
ATOM     26  CE1 PHE A   1       7.564   7.565  17.448  0.00  0.00    +0.000 A 
ATOM     27  CZ  PHE A   1       8.198   7.196  18.631  0.00  0.00    +0.000 A 
ATOM     28  CE2 PHE A   1       8.054   5.904  19.123  0.00  0.00    +0.000 A 
ATOM     29  CD2 PHE A   1       7.297   4.968  18.413  0.00  0.00    +0.000 A 
ENDBRANCH  23  24
ENDBRANCH  19  23
ENDBRANCH   3  19
TORSDOF 8
ENDMDL
MODEL 6
REMARK VINA RESULT:      -7.0      3.991      8.725
REMARK  Name = 
REMARK  9 active torsions:
REMARK  status: ('A' for Active; 'I' for Inactive)
REMARK    1  A    between atoms: C_1  and  O_2
REMARK    2  A    between atoms: O_2  and  C_3
REMARK    3  A    between atoms: C_5  and  C_6
REMARK    4  A    between atoms: C_13  and  C_14
REMARK    5  A    between atoms: N_16  and  CA_17
REMARK    6  A    between atoms: CA_17  and  C_18
REMARK    7  A    between atoms: CA_17  and  CB_20
REMARK    8  A    between atoms: C_18  and  O_19
REMARK    9  A    between atoms: CB_20  and  CG_21
REMARK                            x       y       z     vdW  Elec       q    Type
REMARK                         _______ _______ _______ _____ _____    ______ ____
ROOT
ATOM      1  C   UNK A   0       1.436   9.798  18.665  0.00  0.00    +0.000 C 
ATOM      2  O   UNK A   0       1.850  10.286  17.608  0.00  0.00    +0.000 OA
ATOM      3  N   PHE A   1       0.587  10.526  19.460  0.00  0.00    +0.000 N 
ATOM      4  H   PHE A   1       0.162  10.071  20.263  0.00  0.00    +0.000 HD
ENDROOT
BRANCH   1  10
ATOM      5  C   UNK A   0       1.766   7.727  20.262  0.00  0.00    +0.000 A 
ATOM      6  C   UNK A   0       2.266   6.402  20.355  0.00  0.00    +0.000 A 
ATOM      7  C   UNK A   0       2.981   5.801  19.308  0.00  0.00    +0.000 A 
ATOM      8  C   UNK A   0       3.114   6.497  18.115  0.00  0.00    +0.000 A 
ATOM      9  C   UNK A   0       2.571   7.775  17.983  0.00  0.00    +0.000 A 
ATOM     10  C   UNK A   0       1.898   8.418  19.043  0.00  0.00    +0.000 A 
BRANCH   7  11
ATOM     11  C   UNK A   0       3.665   4.531  19.461  0.00  0.00    +0.000 A 
ATOM     12  C   UNK A   0       3.177   3.313  20.000  0.00  0.00    +0.000 A 
ATOM     13  N   UNK A   0       4.076   2.329  19.951  0.00  0.00    +0.000 NA
ATOM     14  N   UNK A   0       5.144   2.909  19.382  0.00  0.00    +0.000 N 
ATOM     15  C   UNK A   0       4.948   4.225  19.065  0.00  0.00    +0.000 A 
ATOM     16  H   UNK A   0       5.970   2.340  19.232  0.00  0.00    +0.000 HD
ENDBRANCH   7  11
BRANCH   5  18
ATOM     17  C   UNK A   0      -0.223   8.050  21.527  0.00  0.00    +0.000 C 
ATOM     18  O   UNK A   0       1.170   8.350  21.337  0.00  0.00    +0.000 OA
ENDBRANCH   5  18
ENDBRANCH   1  10
BRANCH   3  19
ATOM     19  CA  PHE A   1       0.155  11.904  19.078  0.00  0.00    +0.000 C 
BRANCH  19  20
ATOM     20  C   PHE A   1       1.093  12.972  19.702  0.00  0.00    +0.000 C 
BRANCH  20  21
ATOM     21  O   PHE A   1       1.420  12.730  21.070  0.00  0.00    +0.000 OA
ATOM     22  H   PHE A   1       1.204  13.553  21.565  0.00  0.00    +0.000 HD
ENDBRANCH  20  21
ENDBRANCH  19  20
BRANCH  19  23
ATOM     23  CB  PHE A   1      -1.349  12.161  19.397  0.00  0.00    +0.000 C 
BRANCH  23  24
ATOM     24  CG  PHE A   1      -2.321  11.716  18.321  0.00  0.00    +0.000 A 
ATOM     25  CD1 PHE A   1      -1.843  11.246  17.091  0.00  0.00    +0.000 A 
ATOM     26  CE1 PHE A   1      -2.729  10.859  16.081  0.00  0.00    +0.000 A 
ATOM     27  CZ  PHE A   1      -4.103  10.939  16.292  0.00  0.00    +0.000 A 
ATOM     28  CE2 PHE A   1      -4.594  11.362  17.522  0.00  0.00    +0.000 A 
ATOM     29  CD2 PHE A   1      -3.708  11.735  18.535  0.00  0.00    +0.000 A 
ENDBRANCH  23  24
ENDBRANCH  19  23
ENDBRANCH   3  19
TORSDOF 8
ENDMDL
MODEL 7
REMARK VINA RESULT:      -7.0      2.394      3.593
REMARK  Name = 
REMARK  9 active torsions:
REMARK  status: ('A' for Active; 'I' for Inactive)
REMARK    1  A    between atoms: C_1  and  O_2
REMARK    2  A    between atoms: O_2  and  C_3
REMARK    3  A    between atoms: C_5  and  C_6
REMARK    4  A    between atoms: C_13  and  C_14
REMARK    5  A    between atoms: N_16  and  CA_17
REMARK    6  A    between atoms: CA_17  and  C_18
REMARK    7  A    between atoms: CA_17  and  CB_20
REMARK    8  A    between atoms: C_18  and  O_19
REMARK    9  A    between atoms: CB_20  and  CG_21
REMARK                            x       y       z     vdW  Elec       q    Type
REMARK                         _______ _______ _______ _____ _____    ______ ____
ROOT
ATOM      1  C   UNK A   0       2.299   6.854  18.900  0.00  0.00    +0.000 C 
ATOM      2  O   UNK A   0       2.068   6.304  17.817  0.00  0.00    +0.000 OA
ATOM      3  N   PHE A   1       2.946   6.156  19.888  0.00  0.00    +0.000 N 
ATOM      4  H   PHE A   1       3.235   6.653  20.726  0.00  0.00    +0.000 HD
ENDROOT
BRANCH   1  10
ATOM      5  C   UNK A   0       1.158   8.861  20.170  0.00  0.00    +0.000 A 
ATOM      6  C   UNK A   0       0.868  10.250  20.122  0.00  0.00    +0.000 A 
ATOM      7  C   UNK A   0       1.149  11.030  18.990  0.00  0.00    +0.000 A 
ATOM      8  C   UNK A   0       1.816  10.436  17.928  0.00  0.00    +0.000 A 
ATOM      9  C   UNK A   0       2.168   9.088  17.985  0.00  0.00    +0.000 A 
ATOM     10  C   UNK A   0       1.845   8.274  19.091  0.00  0.00    +0.000 A 
BRANCH   7  11
ATOM     11  C   UNK A   0       0.682  12.397  18.851  0.00  0.00    +0.000 A 
ATOM     12  C   UNK A   0       1.410  13.607  18.978  0.00  0.00    +0.000 A 
ATOM     13  N   UNK A   0       0.662  14.687  18.749  0.00  0.00    +0.000 NA
ATOM     14  N   UNK A   0      -0.547  14.177  18.472  0.00  0.00    +0.000 N 
ATOM     15  C   UNK A   0      -0.588  12.810  18.516  0.00  0.00    +0.000 A 
ATOM     16  H   UNK A   0      -1.297  14.824  18.254  0.00  0.00    +0.000 HD
ENDBRANCH   7  11
BRANCH   5  18
ATOM     17  C   UNK A   0      -0.422   8.514  21.915  0.00  0.00    +0.000 C 
ATOM     18  O   UNK A   0       0.771   8.081  21.237  0.00  0.00    +0.000 OA
ENDBRANCH   5  18
ENDBRANCH   1  10
BRANCH   3  19
ATOM     19  CA  PHE A   1       3.373   4.738  19.687  0.00  0.00    +0.000 C 
BRANCH  19  20
ATOM     20  C   PHE A   1       2.748   3.813  20.766  0.00  0.00    +0.000 C 
BRANCH  20  21
ATOM     21  O   PHE A   1       1.336   3.645  20.639  0.00  0.00    +0.000 OA
ATOM     22  H   PHE A   1       1.038   4.261  19.933  0.00  0.00    +0.000 HD
ENDBRANCH  20  21
ENDBRANCH  19  20
BRANCH  19  23
ATOM     23  CB  PHE A   1       4.922   4.596  19.594  0.00  0.00    +0.000 C 
BRANCH  23  24
ATOM     24  CG  PHE A   1       5.476   4.497  18.185  0.00  0.00    +0.000 A 
ATOM     25  CD1 PHE A   1       4.616   4.264  17.104  0.00  0.00    +0.000 A 
ATOM     26  CE1 PHE A   1       5.118   4.143  15.805  0.00  0.00    +0.000 A 
ATOM     27  CZ  PHE A   1       6.486   4.254  15.574  0.00  0.00    +0.000 A 
ATOM     28  CE2 PHE A   1       7.349   4.528  16.628  0.00  0.00    +0.000 A 
ATOM     29  CD2 PHE A   1       6.846   4.662  17.925  0.00  0.00    +0.000 A 
ENDBRANCH  23  24
ENDBRANCH  19  23
ENDBRANCH   3  19
TORSDOF 8
ENDMDL
MODEL 8
REMARK VINA RESULT:      -6.9      3.766      5.928
REMARK  Name = 
REMARK  9 active torsions:
REMARK  status: ('A' for Active; 'I' for Inactive)
REMARK    1  A    between atoms: C_1  and  O_2
REMARK    2  A    between atoms: O_2  and  C_3
REMARK    3  A    between atoms: C_5  and  C_6
REMARK    4  A    between atoms: C_13  and  C_14
REMARK    5  A    between atoms: N_16  and  CA_17
REMARK    6  A    between atoms: CA_17  and  C_18
REMARK    7  A    between atoms: CA_17  and  CB_20
REMARK    8  A    between atoms: C_18  and  O_19
REMARK    9  A    between atoms: CB_20  and  CG_21
REMARK                            x       y       z     vdW  Elec       q    Type
REMARK                         _______ _______ _______ _____ _____    ______ ____
ROOT
ATOM      1  C   UNK A   0       1.496   8.197  20.439  0.00  0.00    +0.000 C 
ATOM      2  O   UNK A   0       1.850   7.357  21.273  0.00  0.00    +0.000 OA
ATOM      3  N   PHE A   1       1.916   8.076  19.138  0.00  0.00    +0.000 N 
ATOM      4  H   PHE A   1       1.525   8.702  18.440  0.00  0.00    +0.000 HD
ENDROOT
BRANCH   1  10
ATOM      5  C   UNK A   0       0.224  10.493  20.205  0.00  0.00    +0.000 A 
ATOM      6  C   UNK A   0      -0.641  11.411  20.856  0.00  0.00    +0.000 A 
ATOM      7  C   UNK A   0      -1.021  11.253  22.197  0.00  0.00    +0.000 A 
ATOM      8  C   UNK A   0      -0.610  10.111  22.869  0.00  0.00    +0.000 A 
ATOM      9  C   UNK A   0       0.186   9.165  22.225  0.00  0.00    +0.000 A 
ATOM     10  C   UNK A   0       0.625   9.333  20.895  0.00  0.00    +0.000 A 
BRANCH   7  11
ATOM     11  C   UNK A   0      -1.738  12.280  22.929  0.00  0.00    +0.000 A 
ATOM     12  C   UNK A   0      -3.044  12.237  23.481  0.00  0.00    +0.000 A 
ATOM     13  N   UNK A   0      -3.371  13.359  24.123  0.00  0.00    +0.000 NA
ATOM     14  N   UNK A   0      -2.279  14.127  23.988  0.00  0.00    +0.000 N 
ATOM     15  C   UNK A   0      -1.271  13.526  23.285  0.00  0.00    +0.000 A 
ATOM     16  H   UNK A   0      -2.291  15.049  24.411  0.00  0.00    +0.000 HD
ENDBRANCH   7  11
BRANCH   5  18
ATOM     17  C   UNK A   0       1.541  11.867  18.777  0.00  0.00    +0.000 C 
ATOM     18  O   UNK A   0       0.687  10.720  18.927  0.00  0.00    +0.000 OA
ENDBRANCH   5  18
ENDBRANCH   1  10
BRANCH   3  19
ATOM     19  CA  PHE A   1       2.799   6.950  18.707  0.00  0.00    +0.000 C 
BRANCH  19  20
ATOM     20  C   PHE A   1       3.728   7.390  17.543  0.00  0.00    +0.000 C 
BRANCH  20  21
ATOM     21  O   PHE A   1       4.829   6.511  17.315  0.00  0.00    +0.000 OA
ATOM     22  H   PHE A   1       5.602   7.075  17.086  0.00  0.00    +0.000 HD
ENDBRANCH  20  21
ENDBRANCH  19  20
BRANCH  19  23
ATOM     23  CB  PHE A   1       1.991   5.658  18.380  0.00  0.00    +0.000 C 
BRANCH  23  24
ATOM     24  CG  PHE A   1       2.138   4.534  19.389  0.00  0.00    +0.000 A 
ATOM     25  CD1 PHE A   1       3.361   3.863  19.522  0.00  0.00    +0.000 A 
ATOM     26  CE1 PHE A   1       3.501   2.807  20.427  0.00  0.00    +0.000 A 
ATOM     27  CZ  PHE A   1       2.419   2.412  21.209  0.00  0.00    +0.000 A 
ATOM     28  CE2 PHE A   1       1.212   3.095  21.121  0.00  0.00    +0.000 A 
ATOM     29  CD2 PHE A   1       1.076   4.159  20.225  0.00  0.00    +0.000 A 
ENDBRANCH  23  24
ENDBRANCH  19  23
ENDBRANCH   3  19
TORSDOF 8
ENDMDL
MODEL 9
REMARK VINA RESULT:      -6.9      2.701      8.575
REMARK  Name = 
REMARK  9 active torsions:
REMARK  status: ('A' for Active; 'I' for Inactive)
REMARK    1  A    between atoms: C_1  and  O_2
REMARK    2  A    between atoms: O_2  and  C_3
REMARK    3  A    between atoms: C_5  and  C_6
REMARK    4  A    between atoms: C_13  and  C_14
REMARK    5  A    between atoms: N_16  and  CA_17
REMARK    6  A    between atoms: CA_17  and  C_18
REMARK    7  A    between atoms: CA_17  and  CB_20
REMARK    8  A    between atoms: C_18  and  O_19
REMARK    9  A    between atoms: CB_20  and  CG_21
REMARK                            x       y       z     vdW  Elec       q    Type
REMARK                         _______ _______ _______ _____ _____    ______ ____
ROOT
ATOM      1  C   UNK A   0       1.497   9.083  18.339  0.00  0.00    +0.000 C 
ATOM      2  O   UNK A   0       1.230   9.686  17.294  0.00  0.00    +0.000 OA
ATOM      3  N   PHE A   1       0.851   9.423  19.500  0.00  0.00    +0.000 N 
ATOM      4  H   PHE A   1       0.992   8.844  20.323  0.00  0.00    +0.000 HD
ENDROOT
BRANCH   1  10
ATOM      5  C   UNK A   0       2.710   6.879  19.123  0.00  0.00    +0.000 A 
ATOM      6  C   UNK A   0       3.769   5.975  18.845  0.00  0.00    +0.000 A 
ATOM      7  C   UNK A   0       4.712   6.222  17.837  0.00  0.00    +0.000 A 
ATOM      8  C   UNK A   0       4.539   7.338  17.030  0.00  0.00    +0.000 A 
ATOM      9  C   UNK A   0       3.466   8.201  17.247  0.00  0.00    +0.000 A 
ATOM     10  C   UNK A   0       2.539   8.001  18.291  0.00  0.00    +0.000 A 
BRANCH   7  11
ATOM     11  C   UNK A   0       5.905   5.414  17.672  0.00  0.00    +0.000 A 
ATOM     12  C   UNK A   0       6.726   5.254  16.527  0.00  0.00    +0.000 A 
ATOM     13  N   UNK A   0       7.771   4.455  16.746  0.00  0.00    +0.000 NA
ATOM     14  N   UNK A   0       7.627   4.098  18.032  0.00  0.00    +0.000 N 
ATOM     15  C   UNK A   0       6.529   4.649  18.633  0.00  0.00    +0.000 A 
ATOM     16  H   UNK A   0       8.325   3.482  18.435  0.00  0.00    +0.000 HD
ENDBRANCH   7  11
BRANCH   5  18
ATOM     17  C   UNK A   0       1.857   5.359  20.743  0.00  0.00    +0.000 C 
ATOM     18  O   UNK A   0       1.860   6.687  20.192  0.00  0.00    +0.000 OA
ENDBRANCH   5  18
ENDBRANCH   1  10
BRANCH   3  19
ATOM     19  CA  PHE A   1      -0.168  10.515  19.533  0.00  0.00    +0.000 C 
BRANCH  19  20
ATOM     20  C   PHE A   1       0.047  11.437  20.764  0.00  0.00    +0.000 C 
BRANCH  20  21
ATOM     21  O   PHE A   1       1.329  11.299  21.375  0.00  0.00    +0.000 OA
ATOM     22  H   PHE A   1       1.380  10.382  21.728  0.00  0.00    +0.000 HD
ENDBRANCH  20  21
ENDBRANCH  19  20
BRANCH  19  23
ATOM     23  CB  PHE A   1      -1.624   9.968  19.435  0.00  0.00    +0.000 C 
BRANCH  23  24
ATOM     24  CG  PHE A   1      -2.366  10.334  18.164  0.00  0.00    +0.000 A 
ATOM     25  CD1 PHE A   1      -1.956   9.807  16.932  0.00  0.00    +0.000 A 
ATOM     26  CE1 PHE A   1      -2.614  10.158  15.750  0.00  0.00    +0.000 A 
ATOM     27  CZ  PHE A   1      -3.689  11.042  15.788  0.00  0.00    +0.000 A 
ATOM     28  CE2 PHE A   1      -4.136  11.540  17.006  0.00  0.00    +0.000 A 
ATOM     29  CD2 PHE A   1      -3.487  11.178  18.189  0.00  0.00    +0.000 A 
ENDBRANCH  23  24
ENDBRANCH  19  23
ENDBRANCH   3  19
TORSDOF 8
ENDMDL
