MODEL 1
REMARK VINA RESULT:      -7.8      0.000      0.000
REMARK  Name = 
REMARK  8 active torsions:
REMARK  status: ('A' for Active; 'I' for Inactive)
REMARK    1  A    between atoms: C_1  and  O_2
REMARK    2  A    between atoms: O_2  and  C_3
REMARK    3  A    between atoms: C_5  and  N_6
REMARK    4  A    between atoms: N_6  and  C_7
REMARK    5  A    between atoms: N_11  and  C_12
REMARK    6  A    between atoms: C_15  and  C_16
REMARK    7  A    between atoms: C_22  and  O_23
REMARK    8  A    between atoms: O_23  and  C_24
REMARK                            x       y       z     vdW  Elec       q    Type
REMARK                         _______ _______ _______ _____ _____    ______ ____
ROOT
ATOM      1  C   UNL     1       3.482   4.129  18.446  0.00  0.00    +0.000 C 
ATOM      2  C   UNL     1       2.703   3.125  19.311  0.00  0.00    +0.000 C 
ATOM      3  C   UNL     1       1.479   3.790  19.943  0.00  0.00    +0.000 C 
ATOM      4  C   UNL     1       1.891   5.004  20.766  0.00  0.00    +0.000 C 
ATOM      5  N   UNL     1       2.646   5.942  19.930  0.00  0.00    +0.000 N 
ATOM      6  C   UNL     1       3.842   5.395  19.265  0.00  0.00    +0.000 C 
ENDROOT
BRANCH   5   7
ATOM      7  C   UNL     1       2.174   7.205  19.634  0.00  0.00    +0.000 A 
ATOM      8  C   UNL     1       2.346   7.775  18.368  0.00  0.00    +0.000 A 
ATOM      9  C   UNL     1       1.882   9.063  18.080  0.00  0.00    +0.000 A 
ATOM     10  C   UNL     1       1.243   9.774  19.082  0.00  0.00    +0.000 A 
ATOM     11  N   UNL     1       1.049   9.279  20.326  0.00  0.00    +0.000 NA
ATOM     12  C   UNL     1       1.517   8.026  20.558  0.00  0.00    +0.000 A 
BRANCH  10  13
ATOM     13  C   UNL     1       0.752  11.100  18.842  0.00  0.00    +0.000 C 
ATOM     14  N   UNL     1       0.324  12.169  18.679  0.00  0.00    +0.000 NA
ENDBRANCH  10  13
ENDBRANCH   5   7
BRANCH   1  15
ATOM     15  N   UNL     1       4.677   3.461  17.918  0.00  0.00    +0.000 N 
ATOM     16  H   UNL     1       5.206   2.914  18.592  0.00  0.00    +0.000 HD
BRANCH  15  19
ATOM     17  C   UNL     1       6.973   5.705  16.007  0.00  0.00    +0.000 A 
ATOM     18  C   UNL     1       6.287   5.120  17.075  0.00  0.00    +0.000 A 
ATOM     19  C   UNL     1       5.458   4.009  16.903  0.00  0.00    +0.000 A 
ATOM     20  C   UNL     1       5.313   3.514  15.598  0.00  0.00    +0.000 A 
ATOM     21  C   UNL     1       5.989   4.089  14.512  0.00  0.00    +0.000 A 
ATOM     22  C   UNL     1       6.812   5.194  14.722  0.00  0.00    +0.000 A 
BRANCH  17  24
ATOM     23  C   UNL     1       7.556   7.326  17.648  0.00  0.00    +0.000 C 
ATOM     24  O   UNL     1       7.765   6.765  16.359  0.00  0.00    +0.000 OA
ENDBRANCH  17  24
BRANCH  21  25
ATOM     25  O   UNL     1       5.762   3.486  13.301  0.00  0.00    +0.000 OA
ATOM     26  C   UNL     1       6.759   3.666  12.300  0.00  0.00    +0.000 C 
ENDBRANCH  21  25
ENDBRANCH  15  19
ENDBRANCH   1  15
TORSDOF 6
ENDMDL
MODEL 2
REMARK VINA RESULT:      -7.7      0.147      2.501
REMARK  Name = 
REMARK  8 active torsions:
REMARK  status: ('A' for Active; 'I' for Inactive)
REMARK    1  A    between atoms: C_1  and  O_2
REMARK    2  A    between atoms: O_2  and  C_3
REMARK    3  A    between atoms: C_5  and  N_6
REMARK    4  A    between atoms: N_6  and  C_7
REMARK    5  A    between atoms: N_11  and  C_12
REMARK    6  A    between atoms: C_15  and  C_16
REMARK    7  A    between atoms: C_22  and  O_23
REMARK    8  A    between atoms: O_23  and  C_24
REMARK                            x       y       z     vdW  Elec       q    Type
REMARK                         _______ _______ _______ _____ _____    ______ ____
ROOT
ATOM      1  C   UNL     1       3.413   4.125  18.418  0.00  0.00    +0.000 C 
ATOM      2  C   UNL     1       2.694   3.105  19.317  0.00  0.00    +0.000 C 
ATOM      3  C   UNL     1       1.497   3.749  20.017  0.00  0.00    +0.000 C 
ATOM      4  C   UNL     1       1.936   4.964  20.825  0.00  0.00    +0.000 C 
ATOM      5  N   UNL     1       2.632   5.917  19.957  0.00  0.00    +0.000 N 
ATOM      6  C   UNL     1       3.799   5.390  19.225  0.00  0.00    +0.000 C 
ENDROOT
BRANCH   5   7
ATOM      7  C   UNL     1       2.128   7.175  19.695  0.00  0.00    +0.000 A 
ATOM      8  C   UNL     1       2.246   7.765  18.431  0.00  0.00    +0.000 A 
ATOM      9  C   UNL     1       1.750   9.048  18.178  0.00  0.00    +0.000 A 
ATOM     10  C   UNL     1       1.134   9.734  19.211  0.00  0.00    +0.000 A 
ATOM     11  N   UNL     1       0.992   9.219  20.453  0.00  0.00    +0.000 NA
ATOM     12  C   UNL     1       1.490   7.972  20.652  0.00  0.00    +0.000 A 
BRANCH  10  13
ATOM     13  C   UNL     1       0.612  11.054  19.006  0.00  0.00    +0.000 C 
ATOM     14  N   UNL     1       0.156  12.115  18.870  0.00  0.00    +0.000 NA
ENDBRANCH  10  13
ENDBRANCH   5   7
BRANCH   1  15
ATOM     15  N   UNL     1       4.587   3.477  17.823  0.00  0.00    +0.000 N 
ATOM     16  H   UNL     1       5.171   2.952  18.469  0.00  0.00    +0.000 HD
BRANCH  15  19
ATOM     17  C   UNL     1       6.033   4.042  14.425  0.00  0.00    +0.000 A 
ATOM     18  C   UNL     1       5.233   3.528  15.449  0.00  0.00    +0.000 A 
ATOM     19  C   UNL     1       5.288   4.028  16.752  0.00  0.00    +0.000 A 
ATOM     20  C   UNL     1       6.208   5.057  17.005  0.00  0.00    +0.000 A 
ATOM     21  C   UNL     1       7.022   5.584  15.993  0.00  0.00    +0.000 A 
ATOM     22  C   UNL     1       6.937   5.064  14.703  0.00  0.00    +0.000 A 
BRANCH  17  24
ATOM     23  C   UNL     1       6.819   3.675  12.209  0.00  0.00    +0.000 C 
ATOM     24  O   UNL     1       5.828   3.457  13.203  0.00  0.00    +0.000 OA
ENDBRANCH  17  24
BRANCH  21  25
ATOM     25  O   UNL     1       7.858   6.596  16.387  0.00  0.00    +0.000 OA
ATOM     26  C   UNL     1       7.429   7.389  17.490  0.00  0.00    +0.000 C 
ENDBRANCH  21  25
ENDBRANCH  15  19
ENDBRANCH   1  15
TORSDOF 6
ENDMDL
MODEL 3
REMARK VINA RESULT:      -7.6      1.150      2.624
REMARK  Name = 
REMARK  8 active torsions:
REMARK  status: ('A' for Active; 'I' for Inactive)
REMARK    1  A    between atoms: C_1  and  O_2
REMARK    2  A    between atoms: O_2  and  C_3
REMARK    3  A    between atoms: C_5  and  N_6
REMARK    4  A    between atoms: N_6  and  C_7
REMARK    5  A    between atoms: N_11  and  C_12
REMARK    6  A    between atoms: C_15  and  C_16
REMARK    7  A    between atoms: C_22  and  O_23
REMARK    8  A    between atoms: O_23  and  C_24
REMARK                            x       y       z     vdW  Elec       q    Type
REMARK                         _______ _______ _______ _____ _____    ______ ____
ROOT
ATOM      1  C   UNL     1       2.526   4.526  18.043  0.00  0.00    +0.000 C 
ATOM      2  C   UNL     1       2.050   3.650  19.213  0.00  0.00    +0.000 C 
ATOM      3  C   UNL     1       1.196   4.462  20.187  0.00  0.00    +0.000 C 
ATOM      4  C   UNL     1       1.969   5.671  20.700  0.00  0.00    +0.000 C 
ATOM      5  N   UNL     1       2.428   6.487  19.572  0.00  0.00    +0.000 N 
ATOM      6  C   UNL     1       3.252   5.791  18.567  0.00  0.00    +0.000 C 
ENDROOT
BRANCH   5   7
ATOM      7  C   UNL     1       1.972   7.773  19.362  0.00  0.00    +0.000 A 
ATOM      8  C   UNL     1       2.134   8.417  18.130  0.00  0.00    +0.000 A 
ATOM      9  C   UNL     1       1.686   9.727  17.930  0.00  0.00    +0.000 A 
ATOM     10  C   UNL     1       1.076  10.385  18.985  0.00  0.00    +0.000 A 
ATOM     11  N   UNL     1       0.893   9.817  20.199  0.00  0.00    +0.000 NA
ATOM     12  C   UNL     1       1.344   8.545  20.346  0.00  0.00    +0.000 A 
BRANCH  10  13
ATOM     13  C   UNL     1       0.603  11.730  18.835  0.00  0.00    +0.000 C 
ATOM     14  N   UNL     1       0.200  12.810  18.675  0.00  0.00    +0.000 NA
ENDBRANCH  10  13
ENDBRANCH   5   7
BRANCH   1  15
ATOM     15  N   UNL     1       3.391   3.718  17.176  0.00  0.00    +0.000 N 
ATOM     16  H   UNL     1       3.287   2.711  17.271  0.00  0.00    +0.000 HD
BRANCH  15  19
ATOM     17  C   UNL     1       6.410   4.598  15.158  0.00  0.00    +0.000 A 
ATOM     18  C   UNL     1       5.084   4.300  15.489  0.00  0.00    +0.000 A 
ATOM     19  C   UNL     1       4.675   4.118  16.811  0.00  0.00    +0.000 A 
ATOM     20  C   UNL     1       5.659   4.218  17.806  0.00  0.00    +0.000 A 
ATOM     21  C   UNL     1       6.994   4.513  17.496  0.00  0.00    +0.000 A 
ATOM     22  C   UNL     1       7.367   4.692  16.165  0.00  0.00    +0.000 A 
BRANCH  17  24
ATOM     23  C   UNL     1       6.301   3.689  12.962  0.00  0.00    +0.000 C 
ATOM     24  O   UNL     1       6.630   4.774  13.818  0.00  0.00    +0.000 OA
ENDBRANCH  17  24
BRANCH  21  25
ATOM     25  O   UNL     1       7.838   4.595  18.574  0.00  0.00    +0.000 OA
ATOM     26  C   UNL     1       7.887   5.845  19.254  0.00  0.00    +0.000 C 
ENDBRANCH  21  25
ENDBRANCH  15  19
ENDBRANCH   1  15
TORSDOF 6
ENDMDL
MODEL 4
REMARK VINA RESULT:      -7.6      2.889      5.104
REMARK  Name = 
REMARK  8 active torsions:
REMARK  status: ('A' for Active; 'I' for Inactive)
REMARK    1  A    between atoms: C_1  and  O_2
REMARK    2  A    between atoms: O_2  and  C_3
REMARK    3  A    between atoms: C_5  and  N_6
REMARK    4  A    between atoms: N_6  and  C_7
REMARK    5  A    between atoms: N_11  and  C_12
REMARK    6  A    between atoms: C_15  and  C_16
REMARK    7  A    between atoms: C_22  and  O_23
REMARK    8  A    between atoms: O_23  and  C_24
REMARK                            x       y       z     vdW  Elec       q    Type
REMARK                         _______ _______ _______ _____ _____    ______ ____
ROOT
ATOM      1  C   UNL     1       1.739   8.060  18.840  0.00  0.00    +0.000 C 
ATOM      2  C   UNL     1       2.011   7.923  20.347  0.00  0.00    +0.000 C 
ATOM      3  C   UNL     1       0.844   8.483  21.161  0.00  0.00    +0.000 C 
ATOM      4  C   UNL     1       0.580   9.937  20.792  0.00  0.00    +0.000 C 
ATOM      5  N   UNL     1       0.338  10.051  19.351  0.00  0.00    +0.000 N 
ATOM      6  C   UNL     1       1.402   9.528  18.475  0.00  0.00    +0.000 C 
ENDROOT
BRANCH   5   7
ATOM      7  C   UNL     1      -0.881  10.453  18.841  0.00  0.00    +0.000 A 
ATOM      8  C   UNL     1      -1.396   9.911  17.658  0.00  0.00    +0.000 A 
ATOM      9  C   UNL     1      -2.621  10.335  17.136  0.00  0.00    +0.000 A 
ATOM     10  C   UNL     1      -3.325  11.316  17.816  0.00  0.00    +0.000 A 
ATOM     11  N   UNL     1      -2.879  11.880  18.962  0.00  0.00    +0.000 NA
ATOM     12  C   UNL     1      -1.684  11.436  19.429  0.00  0.00    +0.000 A 
BRANCH  10  13
ATOM     13  C   UNL     1      -4.585  11.791  17.323  0.00  0.00    +0.000 C 
ATOM     14  N   UNL     1      -5.585  12.212  16.905  0.00  0.00    +0.000 NA
ENDBRANCH  10  13
ENDBRANCH   5   7
BRANCH   1  15
ATOM     15  N   UNL     1       2.911   7.570  18.107  0.00  0.00    +0.000 N 
ATOM     16  H   UNL     1       3.145   8.084  17.262  0.00  0.00    +0.000 HD
BRANCH  15  19
ATOM     17  C   UNL     1       2.706   3.844  17.918  0.00  0.00    +0.000 A 
ATOM     18  C   UNL     1       2.337   5.191  17.854  0.00  0.00    +0.000 A 
ATOM     19  C   UNL     1       3.257   6.221  18.058  0.00  0.00    +0.000 A 
ATOM     20  C   UNL     1       4.576   5.850  18.361  0.00  0.00    +0.000 A 
ATOM     21  C   UNL     1       4.967   4.506  18.434  0.00  0.00    +0.000 A 
ATOM     22  C   UNL     1       4.023   3.503  18.220  0.00  0.00    +0.000 A 
BRANCH  17  24
ATOM     23  C   UNL     1       0.938   2.504  18.777  0.00  0.00    +0.000 C 
ATOM     24  O   UNL     1       1.686   2.967  17.662  0.00  0.00    +0.000 OA
ENDBRANCH  17  24
BRANCH  21  25
ATOM     25  O   UNL     1       6.292   4.299  18.722  0.00  0.00    +0.000 OA
ATOM     26  C   UNL     1       7.233   4.695  17.730  0.00  0.00    +0.000 C 
ENDBRANCH  21  25
ENDBRANCH  15  19
ENDBRANCH   1  15
TORSDOF 6
ENDMDL
MODEL 5
REMARK VINA RESULT:      -7.6      1.143      1.246
REMARK  Name = 
REMARK  8 active torsions:
REMARK  status: ('A' for Active; 'I' for Inactive)
REMARK    1  A    between atoms: C_1  and  O_2
REMARK    2  A    between atoms: O_2  and  C_3
REMARK    3  A    between atoms: C_5  and  N_6
REMARK    4  A    between atoms: N_6  and  C_7
REMARK    5  A    between atoms: N_11  and  C_12
REMARK    6  A    between atoms: C_15  and  C_16
REMARK    7  A    between atoms: C_22  and  O_23
REMARK    8  A    between atoms: O_23  and  C_24
REMARK                            x       y       z     vdW  Elec       q    Type
REMARK                         _______ _______ _______ _____ _____    ______ ____
ROOT
ATOM      1  C   UNL     1       2.475   4.429  17.986  0.00  0.00    +0.000 C 
ATOM      2  C   UNL     1       1.990   3.542  19.143  0.00  0.00    +0.000 C 
ATOM      3  C   UNL     1       1.148   4.350  20.130  0.00  0.00    +0.000 C 
ATOM      4  C   UNL     1       1.936   5.542  20.659  0.00  0.00    +0.000 C 
ATOM      5  N   UNL     1       2.404   6.368  19.543  0.00  0.00    +0.000 N 
ATOM      6  C   UNL     1       3.218   5.677  18.526  0.00  0.00    +0.000 C 
ENDROOT
BRANCH   5   7
ATOM      7  C   UNL     1       1.963   7.663  19.352  0.00  0.00    +0.000 A 
ATOM      8  C   UNL     1       2.079   8.303  18.113  0.00  0.00    +0.000 A 
ATOM      9  C   UNL     1       1.648   9.621  17.932  0.00  0.00    +0.000 A 
ATOM     10  C   UNL     1       1.101  10.292  19.013  0.00  0.00    +0.000 A 
ATOM     11  N   UNL     1       0.965   9.729  20.235  0.00  0.00    +0.000 NA
ATOM     12  C   UNL     1       1.398   8.448  20.363  0.00  0.00    +0.000 A 
BRANCH  10  13
ATOM     13  C   UNL     1       0.648  11.646  18.883  0.00  0.00    +0.000 C 
ATOM     14  N   UNL     1       0.302  12.754  18.816  0.00  0.00    +0.000 NA
ENDBRANCH  10  13
ENDBRANCH   5   7
BRANCH   1  15
ATOM     15  N   UNL     1       3.329   3.623  17.106  0.00  0.00    +0.000 N 
ATOM     16  H   UNL     1       3.118   2.629  17.083  0.00  0.00    +0.000 HD
BRANCH  15  19
ATOM     17  C   UNL     1       6.912   4.534  17.651  0.00  0.00    +0.000 A 
ATOM     18  C   UNL     1       5.597   4.136  17.911  0.00  0.00    +0.000 A 
ATOM     19  C   UNL     1       4.673   3.917  16.887  0.00  0.00    +0.000 A 
ATOM     20  C   UNL     1       5.110   4.143  15.572  0.00  0.00    +0.000 A 
ATOM     21  C   UNL     1       6.423   4.545  15.290  0.00  0.00    +0.000 A 
ATOM     22  C   UNL     1       7.319   4.749  16.337  0.00  0.00    +0.000 A 
BRANCH  17  24
ATOM     23  C   UNL     1       8.002   5.995  19.179  0.00  0.00    +0.000 C 
ATOM     24  O   UNL     1       7.690   4.672  18.769  0.00  0.00    +0.000 OA
ENDBRANCH  17  24
BRANCH  21  25
ATOM     25  O   UNL     1       6.708   4.709  13.959  0.00  0.00    +0.000 OA
ATOM     26  C   UNL     1       6.220   3.707  13.071  0.00  0.00    +0.000 C 
ENDBRANCH  21  25
ENDBRANCH  15  19
ENDBRANCH   1  15
TORSDOF 6
ENDMDL
MODEL 6
REMARK VINA RESULT:      -7.6      2.853      4.738
REMARK  Name = 
REMARK  8 active torsions:
REMARK  status: ('A' for Active; 'I' for Inactive)
REMARK    1  A    between atoms: C_1  and  O_2
REMARK    2  A    between atoms: O_2  and  C_3
REMARK    3  A    between atoms: C_5  and  N_6
REMARK    4  A    between atoms: N_6  and  C_7
REMARK    5  A    between atoms: N_11  and  C_12
REMARK    6  A    between atoms: C_15  and  C_16
REMARK    7  A    between atoms: C_22  and  O_23
REMARK    8  A    between atoms: O_23  and  C_24
REMARK                            x       y       z     vdW  Elec       q    Type
REMARK                         _______ _______ _______ _____ _____    ______ ____
ROOT
ATOM      1  C   UNL     1       1.734   7.910  18.688  0.00  0.00    +0.000 C 
ATOM      2  C   UNL     1       2.027   7.764  20.190  0.00  0.00    +0.000 C 
ATOM      3  C   UNL     1       0.886   8.345  21.025  0.00  0.00    +0.000 C 
ATOM      4  C   UNL     1       0.645   9.806  20.663  0.00  0.00    +0.000 C 
ATOM      5  N   UNL     1       0.382   9.929  19.227  0.00  0.00    +0.000 N 
ATOM      6  C   UNL     1       1.421   9.386  18.332  0.00  0.00    +0.000 C 
ENDROOT
BRANCH   5   7
ATOM      7  C   UNL     1      -0.836  10.357  18.737  0.00  0.00    +0.000 A 
ATOM      8  C   UNL     1      -1.371   9.843  17.550  0.00  0.00    +0.000 A 
ATOM      9  C   UNL     1      -2.596  10.295  17.050  0.00  0.00    +0.000 A 
ATOM     10  C   UNL     1      -3.278  11.272  17.756  0.00  0.00    +0.000 A 
ATOM     11  N   UNL     1      -2.812  11.808  18.906  0.00  0.00    +0.000 NA
ATOM     12  C   UNL     1      -1.619  11.340  19.352  0.00  0.00    +0.000 A 
BRANCH  10  13
ATOM     13  C   UNL     1      -4.537  11.774  17.285  0.00  0.00    +0.000 C 
ATOM     14  N   UNL     1      -5.562  12.143  16.879  0.00  0.00    +0.000 NA
ENDBRANCH  10  13
ENDBRANCH   5   7
BRANCH   1  15
ATOM     15  N   UNL     1       2.884   7.398  17.935  0.00  0.00    +0.000 N 
ATOM     16  H   UNL     1       2.997   7.777  16.999  0.00  0.00    +0.000 HD
BRANCH  15  19
ATOM     17  C   UNL     1       5.140   4.447  18.333  0.00  0.00    +0.000 A 
ATOM     18  C   UNL     1       4.691   5.770  18.307  0.00  0.00    +0.000 A 
ATOM     19  C   UNL     1       3.353   6.093  18.074  0.00  0.00    +0.000 A 
ATOM     20  C   UNL     1       2.470   5.029  17.835  0.00  0.00    +0.000 A 
ATOM     21  C   UNL     1       2.899   3.695  17.854  0.00  0.00    +0.000 A 
ATOM     22  C   UNL     1       4.242   3.409  18.095  0.00  0.00    +0.000 A 
BRANCH  17  24
ATOM     23  C   UNL     1       7.385   4.685  17.582  0.00  0.00    +0.000 C 
ATOM     24  O   UNL     1       6.475   4.310  18.607  0.00  0.00    +0.000 OA
ENDBRANCH  17  24
BRANCH  21  25
ATOM     25  O   UNL     1       1.920   2.765  17.621  0.00  0.00    +0.000 OA
ATOM     26  C   UNL     1       0.955   2.578  18.651  0.00  0.00    +0.000 C 
ENDBRANCH  21  25
ENDBRANCH  15  19
ENDBRANCH   1  15
TORSDOF 6
ENDMDL
MODEL 7
REMARK VINA RESULT:      -7.1      2.893      4.905
REMARK  Name = 
REMARK  8 active torsions:
REMARK  status: ('A' for Active; 'I' for Inactive)
REMARK    1  A    between atoms: C_1  and  O_2
REMARK    2  A    between atoms: O_2  and  C_3
REMARK    3  A    between atoms: C_5  and  N_6
REMARK    4  A    between atoms: N_6  and  C_7
REMARK    5  A    between atoms: N_11  and  C_12
REMARK    6  A    between atoms: C_15  and  C_16
REMARK    7  A    between atoms: C_22  and  O_23
REMARK    8  A    between atoms: O_23  and  C_24
REMARK                            x       y       z     vdW  Elec       q    Type
REMARK                         _______ _______ _______ _____ _____    ______ ____
ROOT
ATOM      1  C   UNL     1       1.783   8.071  18.796  0.00  0.00    +0.000 C 
ATOM      2  C   UNL     1       2.051   7.829  20.290  0.00  0.00    +0.000 C 
ATOM      3  C   UNL     1       0.890   8.347  21.140  0.00  0.00    +0.000 C 
ATOM      4  C   UNL     1       0.644   9.827  20.870  0.00  0.00    +0.000 C 
ATOM      5  N   UNL     1       0.406  10.041  19.440  0.00  0.00    +0.000 N 
ATOM      6  C   UNL     1       1.466   9.565  18.531  0.00  0.00    +0.000 C 
ENDROOT
BRANCH   5   7
ATOM      7  C   UNL     1      -0.806  10.492  18.957  0.00  0.00    +0.000 A 
ATOM      8  C   UNL     1      -1.506  11.529  19.584  0.00  0.00    +0.000 A 
ATOM      9  C   UNL     1      -2.743  11.968  19.101  0.00  0.00    +0.000 A 
ATOM     10  C   UNL     1      -3.271  11.350  17.978  0.00  0.00    +0.000 A 
ATOM     11  N   UNL     1      -2.643  10.342  17.331  0.00  0.00    +0.000 NA
ATOM     12  C   UNL     1      -1.447   9.950  17.837  0.00  0.00    +0.000 A 
BRANCH  10  13
ATOM     13  C   UNL     1      -4.537  11.759  17.444  0.00  0.00    +0.000 C 
ATOM     14  N   UNL     1      -5.548  12.082  16.969  0.00  0.00    +0.000 NA
ENDBRANCH  10  13
ENDBRANCH   5   7
BRANCH   1  15
ATOM     15  N   UNL     1       2.951   7.617  18.033  0.00  0.00    +0.000 N 
ATOM     16  H   UNL     1       3.217   8.207  17.249  0.00  0.00    +0.000 HD
BRANCH  15  19
ATOM     17  C   UNL     1       4.738   4.449  17.176  0.00  0.00    +0.000 A 
ATOM     18  C   UNL     1       4.505   5.799  17.455  0.00  0.00    +0.000 A 
ATOM     19  C   UNL     1       3.250   6.269  17.848  0.00  0.00    +0.000 A 
ATOM     20  C   UNL     1       2.211   5.329  17.925  0.00  0.00    +0.000 A 
ATOM     21  C   UNL     1       2.421   3.971  17.647  0.00  0.00    +0.000 A 
ATOM     22  C   UNL     1       3.688   3.537  17.262  0.00  0.00    +0.000 A 
BRANCH  17  24
ATOM     23  C   UNL     1       6.354   4.173  15.453  0.00  0.00    +0.000 C 
ATOM     24  O   UNL     1       6.031   4.159  16.836  0.00  0.00    +0.000 OA
ENDBRANCH  17  24
BRANCH  21  25
ATOM     25  O   UNL     1       1.315   3.172  17.782  0.00  0.00    +0.000 OA
ATOM     26  C   UNL     1       0.968   2.776  19.105  0.00  0.00    +0.000 C 
ENDBRANCH  21  25
ENDBRANCH  15  19
ENDBRANCH   1  15
TORSDOF 6
ENDMDL
MODEL 8
REMARK VINA RESULT:      -7.0      3.322      5.875
REMARK  Name = 
REMARK  8 active torsions:
REMARK  status: ('A' for Active; 'I' for Inactive)
REMARK    1  A    between atoms: C_1  and  O_2
REMARK    2  A    between atoms: O_2  and  C_3
REMARK    3  A    between atoms: C_5  and  N_6
REMARK    4  A    between atoms: N_6  and  C_7
REMARK    5  A    between atoms: N_11  and  C_12
REMARK    6  A    between atoms: C_15  and  C_16
REMARK    7  A    between atoms: C_22  and  O_23
REMARK    8  A    between atoms: O_23  and  C_24
REMARK                            x       y       z     vdW  Elec       q    Type
REMARK                         _______ _______ _______ _____ _____    ______ ____
ROOT
ATOM      1  C   UNL     1       1.107   8.580  20.863  0.00  0.00    +0.000 C 
ATOM      2  C   UNL     1       1.198   8.959  22.350  0.00  0.00    +0.000 C 
ATOM      3  C   UNL     1      -0.001   9.812  22.766  0.00  0.00    +0.000 C 
ATOM      4  C   UNL     1      -0.100  11.060  21.897  0.00  0.00    +0.000 C 
ATOM      5  N   UNL     1      -0.170  10.681  20.483  0.00  0.00    +0.000 N 
ATOM      6  C   UNL     1       0.937   9.845  19.984  0.00  0.00    +0.000 C 
ENDROOT
BRANCH   5   7
ATOM      7  C   UNL     1      -1.286  10.931  19.710  0.00  0.00    +0.000 A 
ATOM      8  C   UNL     1      -1.592  10.153  18.588  0.00  0.00    +0.000 A 
ATOM      9  C   UNL     1      -2.714  10.424  17.798  0.00  0.00    +0.000 A 
ATOM     10  C   UNL     1      -3.526  11.490  18.148  0.00  0.00    +0.000 A 
ATOM     11  N   UNL     1      -3.282  12.280  19.218  0.00  0.00    +0.000 NA
ATOM     12  C   UNL     1      -2.182  11.979  19.954  0.00  0.00    +0.000 A 
BRANCH  10  13
ATOM     13  C   UNL     1      -4.686  11.814  17.370  0.00  0.00    +0.000 C 
ATOM     14  N   UNL     1      -5.645  12.038  16.750  0.00  0.00    +0.000 NA
ENDBRANCH  10  13
ENDBRANCH   5   7
BRANCH   1  15
ATOM     15  N   UNL     1       2.309   7.820  20.501  0.00  0.00    +0.000 N 
ATOM     16  H   UNL     1       3.114   8.378  20.231  0.00  0.00    +0.000 HD
BRANCH  15  19
ATOM     17  C   UNL     1       1.648   4.209  19.802  0.00  0.00    +0.000 A 
ATOM     18  C   UNL     1       1.593   5.468  20.408  0.00  0.00    +0.000 A 
ATOM     19  C   UNL     1       2.252   6.577  19.874  0.00  0.00    +0.000 A 
ATOM     20  C   UNL     1       3.005   6.373  18.708  0.00  0.00    +0.000 A 
ATOM     21  C   UNL     1       3.077   5.119  18.085  0.00  0.00    +0.000 A 
ATOM     22  C   UNL     1       2.403   4.035  18.644  0.00  0.00    +0.000 A 
BRANCH  17  24
ATOM     23  C   UNL     1       1.470   2.703  21.635  0.00  0.00    +0.000 C 
ATOM     24  O   UNL     1       0.919   3.243  20.442  0.00  0.00    +0.000 OA
ENDBRANCH  17  24
BRANCH  21  25
ATOM     25  O   UNL     1       3.837   5.079  16.944  0.00  0.00    +0.000 OA
ATOM     26  C   UNL     1       4.759   3.999  16.827  0.00  0.00    +0.000 C 
ENDBRANCH  21  25
ENDBRANCH  15  19
ENDBRANCH   1  15
TORSDOF 6
ENDMDL
MODEL 9
REMARK VINA RESULT:      -7.0      2.827      5.053
REMARK  Name = 
REMARK  8 active torsions:
REMARK  status: ('A' for Active; 'I' for Inactive)
REMARK    1  A    between atoms: C_1  and  O_2
REMARK    2  A    between atoms: O_2  and  C_3
REMARK    3  A    between atoms: C_5  and  N_6
REMARK    4  A    between atoms: N_6  and  C_7
REMARK    5  A    between atoms: N_11  and  C_12
REMARK    6  A    between atoms: C_15  and  C_16
REMARK    7  A    between atoms: C_22  and  O_23
REMARK    8  A    between atoms: O_23  and  C_24
REMARK                            x       y       z     vdW  Elec       q    Type
REMARK                         _______ _______ _______ _____ _____    ______ ____
ROOT
ATOM      1  C   UNL     1       1.904   7.789  18.652  0.00  0.00    +0.000 C 
ATOM      2  C   UNL     1       2.197   7.574  20.145  0.00  0.00    +0.000 C 
ATOM      3  C   UNL     1       1.076   8.156  21.007  0.00  0.00    +0.000 C 
ATOM      4  C   UNL     1       0.880   9.637  20.704  0.00  0.00    +0.000 C 
ATOM      5  N   UNL     1       0.617   9.825  19.275  0.00  0.00    +0.000 N 
ATOM      6  C   UNL     1       1.637   9.287  18.356  0.00  0.00    +0.000 C 
ENDROOT
BRANCH   5   7
ATOM      7  C   UNL     1      -0.588  10.309  18.807  0.00  0.00    +0.000 A 
ATOM      8  C   UNL     1      -1.312  11.279  19.510  0.00  0.00    +0.000 A 
ATOM      9  C   UNL     1      -2.542  11.751  19.040  0.00  0.00    +0.000 A 
ATOM     10  C   UNL     1      -3.038  11.235  17.854  0.00  0.00    +0.000 A 
ATOM     11  N   UNL     1      -2.387  10.296  17.131  0.00  0.00    +0.000 NA
ATOM     12  C   UNL     1      -1.198   9.867  17.628  0.00  0.00    +0.000 A 
BRANCH  10  13
ATOM     13  C   UNL     1      -4.296  11.681  17.330  0.00  0.00    +0.000 C 
ATOM     14  N   UNL     1      -5.296  12.080  16.889  0.00  0.00    +0.000 NA
ENDBRANCH  10  13
ENDBRANCH   5   7
BRANCH   1  15
ATOM     15  N   UNL     1       3.037   7.272  17.875  0.00  0.00    +0.000 N 
ATOM     16  H   UNL     1       3.108   7.619  16.922  0.00  0.00    +0.000 HD
BRANCH  15  19
ATOM     17  C   UNL     1       3.262   3.576  18.378  0.00  0.00    +0.000 A 
ATOM     18  C   UNL     1       2.733   4.841  18.103  0.00  0.00    +0.000 A 
ATOM     19  C   UNL     1       3.536   5.981  18.041  0.00  0.00    +0.000 A 
ATOM     20  C   UNL     1       4.906   5.815  18.297  0.00  0.00    +0.000 A 
ATOM     21  C   UNL     1       5.456   4.557  18.578  0.00  0.00    +0.000 A 
ATOM     22  C   UNL     1       4.625   3.439  18.627  0.00  0.00    +0.000 A 
BRANCH  17  24
ATOM     23  C   UNL     1       1.010   2.902  18.744  0.00  0.00    +0.000 C 
ATOM     24  O   UNL     1       2.338   2.565  18.369  0.00  0.00    +0.000 OA
ENDBRANCH  17  24
BRANCH  21  25
ATOM     25  O   UNL     1       6.811   4.548  18.788  0.00  0.00    +0.000 OA
ATOM     26  C   UNL     1       7.373   5.710  19.389  0.00  0.00    +0.000 C 
ENDBRANCH  21  25
ENDBRANCH  15  19
ENDBRANCH   1  15
TORSDOF 6
ENDMDL
