MODEL 1
REMARK VINA RESULT:      -9.2      0.000      0.000
REMARK  Name = 
REMARK  9 active torsions:
REMARK  status: ('A' for Active; 'I' for Inactive)
REMARK    1  A    between atoms: C_1  and  C_2
REMARK    2  A    between atoms: C_2  and  N_3
REMARK    3  A    between atoms: C_4  and  C_5
REMARK    4  A    between atoms: C_6  and  C_7
REMARK    5  A    between atoms: N_9  and  C_10
REMARK    6  A    between atoms: C_17  and  C_18
REMARK    7  A    between atoms: C_17  and  C_19
REMARK    8  A    between atoms: N_20  and  C_21
REMARK    9  A    between atoms: C_21  and  C_22
REMARK                            x       y       z     vdW  Elec       q    Type
REMARK                         _______ _______ _______ _____ _____    ______ ____
ROOT
ATOM      1  N   UNL     1       4.776   5.532  16.582  0.00  0.00    +0.000 N 
ATOM      2  C   UNL     1       4.938   6.407  17.599  0.00  0.00    +0.000 A 
ATOM      3  N   UNL     1       5.598   5.604  18.496  0.00  0.00    +0.000 N 
ATOM      4  C   UNL     1       4.584   4.692  18.608  0.00  0.00    +0.000 A 
ATOM      5  N   UNL     1       4.196   4.138  19.781  0.00  0.00    +0.000 NA
ATOM      6  C   UNL     1       3.024   3.538  19.672  0.00  0.00    +0.000 A 
ATOM      7  C   UNL     1       2.557   3.066  20.895  0.00  0.00    +0.000 A 
ATOM      8  C   UNL     1       1.312   2.535  20.994  0.00  0.00    +0.000 A 
ATOM      9  C   UNL     1       0.542   2.420  19.831  0.00  0.00    +0.000 A 
ATOM     10  C   UNL     1       1.027   2.869  18.575  0.00  0.00    +0.000 A 
ATOM     11  C   UNL     1       2.290   3.435  18.431  0.00  0.00    +0.000 A 
ATOM     12  N   UNL     1       2.788   3.925  17.202  0.00  0.00    +0.000 NA
ATOM     13  C   UNL     1       4.017   4.563  17.330  0.00  0.00    +0.000 A 
ENDROOT
BRANCH   1  15
ATOM     14  C   UNL     1       5.707   4.814  14.371  0.00  0.00    +0.000 C 
ATOM     15  C   UNL     1       4.981   5.927  15.182  0.00  0.00    +0.000 C 
ENDBRANCH   1  15
BRANCH   2  16
ATOM     16  C   UNL     1       3.757   7.410  17.900  0.00  0.00    +0.000 C 
ATOM     17  C   UNL     1       2.718   6.961  18.660  0.00  0.00    +0.000 C 
BRANCH  17  18
ATOM     18  C   UNL     1       2.156   7.709  19.779  0.00  0.00    +0.000 C 
ATOM     19  C   UNL     1       1.451   8.867  19.711  0.00  0.00    +0.000 C 
ATOM     20  N   UNL     1       0.499   9.226  20.733  0.00  0.00    +0.000 N 
ATOM     21  C   UNL     1       0.959   9.332  22.127  0.00  0.00    +0.000 C 
ATOM     22  C   UNL     1      -0.085  10.469  20.359  0.00  0.00    +0.000 A 
ATOM     23  C   UNL     1      -1.282  11.052  20.714  0.00  0.00    +0.000 A 
ATOM     24  C   UNL     1      -1.499  12.380  20.327  0.00  0.00    +0.000 A 
ATOM     25  C   UNL     1      -0.463  13.117  19.733  0.00  0.00    +0.000 A 
ATOM     26  C   UNL     1       0.651  12.452  19.230  0.00  0.00    +0.000 A 
ATOM     27  C   UNL     1       0.677  11.078  19.373  0.00  0.00    +0.000 A 
ATOM     28  C   UNL     1       1.309   9.940  18.569  0.00  0.00    +0.000 C 
ATOM     29  C   UNL     1       2.466  10.450  17.711  0.00  0.00    +0.000 C 
ATOM     30  C   UNL     1       0.182   9.445  17.608  0.00  0.00    +0.000 C 
ENDBRANCH  17  18
ENDBRANCH   2  16
BRANCH   3  31
ATOM     31  C   UNL     1       6.937   4.951  18.458  0.00  0.00    +0.000 C 
BRANCH  31  32
ATOM     32  C   UNL     1       7.985   5.781  19.235  0.00  0.00    +0.000 C 
ATOM     33  N   UNL     1       8.533   5.246  20.375  0.00  0.00    +0.000 N 
ATOM     34  O   UNL     1       8.342   6.897  18.867  0.00  0.00    +0.000 OA
ATOM     35  H   UNL     1       7.995   4.608  20.959  0.00  0.00    +0.000 HD
ATOM     36  H   UNL     1       9.143   5.871  20.897  0.00  0.00    +0.000 HD
ENDBRANCH  31  32
ENDBRANCH   3  31
TORSDOF 5
ENDMDL
MODEL 2
REMARK VINA RESULT:      -9.2      2.122      4.677
REMARK  Name = 
REMARK  9 active torsions:
REMARK  status: ('A' for Active; 'I' for Inactive)
REMARK    1  A    between atoms: C_1  and  C_2
REMARK    2  A    between atoms: C_2  and  N_3
REMARK    3  A    between atoms: C_4  and  C_5
REMARK    4  A    between atoms: C_6  and  C_7
REMARK    5  A    between atoms: N_9  and  C_10
REMARK    6  A    between atoms: C_17  and  C_18
REMARK    7  A    between atoms: C_17  and  C_19
REMARK    8  A    between atoms: N_20  and  C_21
REMARK    9  A    between atoms: C_21  and  C_22
REMARK                            x       y       z     vdW  Elec       q    Type
REMARK                         _______ _______ _______ _____ _____    ______ ____
ROOT
ATOM      1  N   UNL     1       3.149   3.713  20.081  0.00  0.00    +0.000 N 
ATOM      2  C   UNL     1       2.354   4.773  19.819  0.00  0.00    +0.000 A 
ATOM      3  N   UNL     1       2.411   4.776  18.447  0.00  0.00    +0.000 N 
ATOM      4  C   UNL     1       3.765   4.976  18.385  0.00  0.00    +0.000 A 
ATOM      5  N   UNL     1       4.362   5.816  17.508  0.00  0.00    +0.000 NA
ATOM      6  C   UNL     1       5.616   6.061  17.846  0.00  0.00    +0.000 A 
ATOM      7  C   UNL     1       6.208   7.013  17.022  0.00  0.00    +0.000 A 
ATOM      8  C   UNL     1       7.451   7.482  17.299  0.00  0.00    +0.000 A 
ATOM      9  C   UNL     1       8.139   6.941  18.391  0.00  0.00    +0.000 A 
ATOM     10  C   UNL     1       7.553   5.944  19.214  0.00  0.00    +0.000 A 
ATOM     11  C   UNL     1       6.274   5.448  18.977  0.00  0.00    +0.000 A 
ATOM     12  N   UNL     1       5.648   4.483  19.800  0.00  0.00    +0.000 NA
ATOM     13  C   UNL     1       4.327   4.241  19.441  0.00  0.00    +0.000 A 
ENDROOT
BRANCH   1  15
ATOM     14  C   UNL     1       1.369   2.951  21.669  0.00  0.00    +0.000 C 
ATOM     15  C   UNL     1       2.806   2.725  21.113  0.00  0.00    +0.000 C 
ENDBRANCH   1  15
BRANCH   2  16
ATOM     16  C   UNL     1       2.448   6.019  20.784  0.00  0.00    +0.000 C 
ATOM     17  C   UNL     1       2.215   7.254  20.255  0.00  0.00    +0.000 C 
BRANCH  17  18
ATOM     18  C   UNL     1       1.343   8.245  20.874  0.00  0.00    +0.000 C 
ATOM     19  C   UNL     1       0.763   9.311  20.267  0.00  0.00    +0.000 C 
ATOM     20  N   UNL     1      -0.463   9.883  20.767  0.00  0.00    +0.000 N 
ATOM     21  C   UNL     1      -0.503  10.374  22.155  0.00  0.00    +0.000 C 
ATOM     22  C   UNL     1      -0.820  10.957  19.903  0.00  0.00    +0.000 A 
ATOM     23  C   UNL     1      -2.035  11.559  19.659  0.00  0.00    +0.000 A 
ATOM     24  C   UNL     1      -2.039  12.728  18.887  0.00  0.00    +0.000 A 
ATOM     25  C   UNL     1      -0.826  13.327  18.514  0.00  0.00    +0.000 A 
ATOM     26  C   UNL     1       0.358  12.603  18.617  0.00  0.00    +0.000 A 
ATOM     27  C   UNL     1       0.264  11.318  19.116  0.00  0.00    +0.000 A 
ATOM     28  C   UNL     1       1.075  10.038  18.906  0.00  0.00    +0.000 C 
ATOM     29  C   UNL     1       2.480  10.355  18.397  0.00  0.00    +0.000 C 
ATOM     30  C   UNL     1       0.322   9.258  17.783  0.00  0.00    +0.000 C 
ENDBRANCH  17  18
ENDBRANCH   2  16
BRANCH   3  31
ATOM     31  C   UNL     1       1.943   3.800  17.424  0.00  0.00    +0.000 C 
BRANCH  31  32
ATOM     32  C   UNL     1       1.436   2.498  18.084  0.00  0.00    +0.000 C 
ATOM     33  N   UNL     1       2.305   1.443  18.213  0.00  0.00    +0.000 N 
ATOM     34  O   UNL     1       0.285   2.377  18.496  0.00  0.00    +0.000 OA
ATOM     35  H   UNL     1       3.049   1.299  17.532  0.00  0.00    +0.000 HD
ATOM     36  H   UNL     1       1.894   0.582  18.565  0.00  0.00    +0.000 HD
ENDBRANCH  31  32
ENDBRANCH   3  31
TORSDOF 5
ENDMDL
MODEL 3
REMARK VINA RESULT:      -8.9      2.186      4.700
REMARK  Name = 
REMARK  9 active torsions:
REMARK  status: ('A' for Active; 'I' for Inactive)
REMARK    1  A    between atoms: C_1  and  C_2
REMARK    2  A    between atoms: C_2  and  N_3
REMARK    3  A    between atoms: C_4  and  C_5
REMARK    4  A    between atoms: C_6  and  C_7
REMARK    5  A    between atoms: N_9  and  C_10
REMARK    6  A    between atoms: C_17  and  C_18
REMARK    7  A    between atoms: C_17  and  C_19
REMARK    8  A    between atoms: N_20  and  C_21
REMARK    9  A    between atoms: C_21  and  C_22
REMARK                            x       y       z     vdW  Elec       q    Type
REMARK                         _______ _______ _______ _____ _____    ______ ____
ROOT
ATOM      1  N   UNL     1       2.607   4.248  20.263  0.00  0.00    +0.000 N 
ATOM      2  C   UNL     1       1.969   5.368  19.856  0.00  0.00    +0.000 A 
ATOM      3  N   UNL     1       2.053   5.204  18.496  0.00  0.00    +0.000 N 
ATOM      4  C   UNL     1       3.422   5.212  18.459  0.00  0.00    +0.000 A 
ATOM      5  N   UNL     1       4.145   5.858  17.515  0.00  0.00    +0.000 NA
ATOM      6  C   UNL     1       5.414   5.971  17.866  0.00  0.00    +0.000 A 
ATOM      7  C   UNL     1       6.146   6.734  16.961  0.00  0.00    +0.000 A 
ATOM      8  C   UNL     1       7.436   7.062  17.228  0.00  0.00    +0.000 A 
ATOM      9  C   UNL     1       8.022   6.563  18.396  0.00  0.00    +0.000 A 
ATOM     10  C   UNL     1       7.290   5.756  19.306  0.00  0.00    +0.000 A 
ATOM     11  C   UNL     1       5.960   5.411  19.081  0.00  0.00    +0.000 A 
ATOM     12  N   UNL     1       5.193   4.640  19.985  0.00  0.00    +0.000 NA
ATOM     13  C   UNL     1       3.858   4.536  19.610  0.00  0.00    +0.000 A 
ENDROOT
BRANCH   1  15
ATOM     14  C   UNL     1       2.957   2.148  21.582  0.00  0.00    +0.000 C 
ATOM     15  C   UNL     1       2.112   3.441  21.387  0.00  0.00    +0.000 C 
ENDBRANCH   1  15
BRANCH   2  16
ATOM     16  C   UNL     1       2.214   6.693  20.679  0.00  0.00    +0.000 C 
ATOM     17  C   UNL     1       1.576   7.825  20.265  0.00  0.00    +0.000 C 
BRANCH  17  18
ATOM     18  C   UNL     1       0.858   8.719  21.166  0.00  0.00    +0.000 C 
ATOM     19  C   UNL     1       0.258   9.893  20.841  0.00  0.00    +0.000 C 
ATOM     20  N   UNL     1      -0.849  10.407  21.608  0.00  0.00    +0.000 N 
ATOM     21  C   UNL     1      -0.664  10.649  23.048  0.00  0.00    +0.000 C 
ATOM     22  C   UNL     1      -1.265  11.625  21.000  0.00  0.00    +0.000 A 
ATOM     23  C   UNL     1      -2.467  12.298  21.045  0.00  0.00    +0.000 A 
ATOM     24  C   UNL     1      -2.515  13.582  20.490  0.00  0.00    +0.000 A 
ATOM     25  C   UNL     1      -1.336  14.200  20.045  0.00  0.00    +0.000 A 
ATOM     26  C   UNL     1      -0.192  13.433  19.847  0.00  0.00    +0.000 A 
ATOM     27  C   UNL     1      -0.286  12.084  20.131  0.00  0.00    +0.000 A 
ATOM     28  C   UNL     1       0.413  10.836  19.590  0.00  0.00    +0.000 C 
ATOM     29  C   UNL     1       1.747  11.193  18.936  0.00  0.00    +0.000 C 
ATOM     30  C   UNL     1      -0.535  10.287  18.478  0.00  0.00    +0.000 C 
ENDBRANCH  17  18
ENDBRANCH   2  16
BRANCH   3  31
ATOM     31  C   UNL     1       1.475   4.187  17.572  0.00  0.00    +0.000 C 
BRANCH  31  32
ATOM     32  C   UNL     1       1.169   2.867  18.315  0.00  0.00    +0.000 C 
ATOM     33  N   UNL     1       2.056   1.826  18.200  0.00  0.00    +0.000 N 
ATOM     34  O   UNL     1       0.162   2.720  19.004  0.00  0.00    +0.000 OA
ATOM     35  H   UNL     1       2.605   1.704  17.350  0.00  0.00    +0.000 HD
ATOM     36  H   UNL     1       1.759   0.953  18.629  0.00  0.00    +0.000 HD
ENDBRANCH  31  32
ENDBRANCH   3  31
TORSDOF 5
ENDMDL
MODEL 4
REMARK VINA RESULT:      -8.8      1.366      2.147
REMARK  Name = 
REMARK  9 active torsions:
REMARK  status: ('A' for Active; 'I' for Inactive)
REMARK    1  A    between atoms: C_1  and  C_2
REMARK    2  A    between atoms: C_2  and  N_3
REMARK    3  A    between atoms: C_4  and  C_5
REMARK    4  A    between atoms: C_6  and  C_7
REMARK    5  A    between atoms: N_9  and  C_10
REMARK    6  A    between atoms: C_17  and  C_18
REMARK    7  A    between atoms: C_17  and  C_19
REMARK    8  A    between atoms: N_20  and  C_21
REMARK    9  A    between atoms: C_21  and  C_22
REMARK                            x       y       z     vdW  Elec       q    Type
REMARK                         _______ _______ _______ _____ _____    ______ ____
ROOT
ATOM      1  N   UNL     1       4.700   5.656  16.514  0.00  0.00    +0.000 N 
ATOM      2  C   UNL     1       4.446   6.736  17.286  0.00  0.00    +0.000 A 
ATOM      3  N   UNL     1       5.114   6.370  18.428  0.00  0.00    +0.000 N 
ATOM      4  C   UNL     1       4.361   5.248  18.651  0.00  0.00    +0.000 A 
ATOM      5  N   UNL     1       3.918   4.869  19.873  0.00  0.00    +0.000 NA
ATOM      6  C   UNL     1       2.977   3.946  19.784  0.00  0.00    +0.000 A 
ATOM      7  C   UNL     1       2.430   3.630  21.024  0.00  0.00    +0.000 A 
ATOM      8  C   UNL     1       1.363   2.796  21.110  0.00  0.00    +0.000 A 
ATOM      9  C   UNL     1       0.873   2.218  19.934  0.00  0.00    +0.000 A 
ATOM     10  C   UNL     1       1.449   2.510  18.670  0.00  0.00    +0.000 A 
ATOM     11  C   UNL     1       2.532   3.373  18.534  0.00  0.00    +0.000 A 
ATOM     12  N   UNL     1       3.106   3.713  17.287  0.00  0.00    +0.000 NA
ATOM     13  C   UNL     1       4.088   4.692  17.391  0.00  0.00    +0.000 A 
ENDROOT
BRANCH   1  15
ATOM     14  C   UNL     1       5.584   4.446  14.507  0.00  0.00    +0.000 C 
ATOM     15  C   UNL     1       5.050   5.787  15.093  0.00  0.00    +0.000 C 
ENDBRANCH   1  15
BRANCH   2  16
ATOM     16  C   UNL     1       3.015   7.394  17.181  0.00  0.00    +0.000 C 
ATOM     17  C   UNL     1       2.515   8.010  18.290  0.00  0.00    +0.000 C 
BRANCH  17  18
ATOM     18  C   UNL     1       1.902   9.333  18.270  0.00  0.00    +0.000 C 
ATOM     19  C   UNL     1       1.294   9.964  19.307  0.00  0.00    +0.000 C 
ATOM     20  N   UNL     1       1.223  11.403  19.370  0.00  0.00    +0.000 N 
ATOM     21  C   UNL     1       0.580  12.131  18.264  0.00  0.00    +0.000 C 
ATOM     22  C   UNL     1       0.556  11.747  20.580  0.00  0.00    +0.000 A 
ATOM     23  C   UNL     1       0.573  12.904  21.328  0.00  0.00    +0.000 A 
ATOM     24  C   UNL     1      -0.343  13.013  22.381  0.00  0.00    +0.000 A 
ATOM     25  C   UNL     1      -1.331  12.032  22.556  0.00  0.00    +0.000 A 
ATOM     26  C   UNL     1      -1.204  10.806  21.909  0.00  0.00    +0.000 A 
ATOM     27  C   UNL     1      -0.098  10.639  21.098  0.00  0.00    +0.000 A 
ATOM     28  C   UNL     1       0.732   9.426  20.675  0.00  0.00    +0.000 C 
ATOM     29  C   UNL     1      -0.064   8.132  20.836  0.00  0.00    +0.000 C 
ATOM     30  C   UNL     1       1.928   9.381  21.679  0.00  0.00    +0.000 C 
ENDBRANCH  17  18
ENDBRANCH   2  16
BRANCH   3  31
ATOM     31  C   UNL     1       6.557   6.140  18.715  0.00  0.00    +0.000 C 
BRANCH  31  32
ATOM     32  C   UNL     1       7.454   6.896  17.707  0.00  0.00    +0.000 C 
ATOM     33  N   UNL     1       7.831   8.184  17.999  0.00  0.00    +0.000 N 
ATOM     34  O   UNL     1       7.839   6.384  16.660  0.00  0.00    +0.000 OA
ATOM     35  H   UNL     1       7.222   8.790  18.547  0.00  0.00    +0.000 HD
ATOM     36  H   UNL     1       8.338   8.665  17.260  0.00  0.00    +0.000 HD
ENDBRANCH  31  32
ENDBRANCH   3  31
TORSDOF 5
ENDMDL
MODEL 5
REMARK VINA RESULT:      -8.5      3.242      9.211
REMARK  Name = 
REMARK  9 active torsions:
REMARK  status: ('A' for Active; 'I' for Inactive)
REMARK    1  A    between atoms: C_1  and  C_2
REMARK    2  A    between atoms: C_2  and  N_3
REMARK    3  A    between atoms: C_4  and  C_5
REMARK    4  A    between atoms: C_6  and  C_7
REMARK    5  A    between atoms: N_9  and  C_10
REMARK    6  A    between atoms: C_17  and  C_18
REMARK    7  A    between atoms: C_17  and  C_19
REMARK    8  A    between atoms: N_20  and  C_21
REMARK    9  A    between atoms: C_21  and  C_22
REMARK                            x       y       z     vdW  Elec       q    Type
REMARK                         _______ _______ _______ _____ _____    ______ ____
ROOT
ATOM      1  N   UNL     1      -0.175  10.829  18.957  0.00  0.00    +0.000 N 
ATOM      2  C   UNL     1       0.142  10.280  20.151  0.00  0.00    +0.000 A 
ATOM      3  N   UNL     1      -0.270  11.287  20.988  0.00  0.00    +0.000 N 
ATOM      4  C   UNL     1       0.589  12.223  20.480  0.00  0.00    +0.000 A 
ATOM      5  N   UNL     1       1.280  13.103  21.242  0.00  0.00    +0.000 NA
ATOM      6  C   UNL     1       2.251  13.682  20.559  0.00  0.00    +0.000 A 
ATOM      7  C   UNL     1       3.043  14.501  21.357  0.00  0.00    +0.000 A 
ATOM      8  C   UNL     1       4.164  15.075  20.851  0.00  0.00    +0.000 A 
ATOM      9  C   UNL     1       4.464  14.873  19.499  0.00  0.00    +0.000 A 
ATOM     10  C   UNL     1       3.640  14.067  18.672  0.00  0.00    +0.000 A 
ATOM     11  C   UNL     1       2.492  13.445  19.153  0.00  0.00    +0.000 A 
ATOM     12  N   UNL     1       1.671  12.605  18.365  0.00  0.00    +0.000 NA
ATOM     13  C   UNL     1       0.659  11.995  19.097  0.00  0.00    +0.000 A 
ENDROOT
BRANCH   1  15
ATOM     14  C   UNL     1      -2.349  10.121  17.935  0.00  0.00    +0.000 C 
ATOM     15  C   UNL     1      -0.795  10.040  17.884  0.00  0.00    +0.000 C 
ENDBRANCH   1  15
BRANCH   2  16
ATOM     16  C   UNL     1       1.477   9.443  20.243  0.00  0.00    +0.000 C 
ATOM     17  C   UNL     1       1.412   8.108  19.969  0.00  0.00    +0.000 C 
BRANCH  17  18
ATOM     18  C   UNL     1       2.351   7.420  19.092  0.00  0.00    +0.000 C 
ATOM     19  C   UNL     1       2.586   6.084  19.040  0.00  0.00    +0.000 C 
ATOM     20  N   UNL     1       3.074   5.455  17.838  0.00  0.00    +0.000 N 
ATOM     21  C   UNL     1       4.343   5.922  17.256  0.00  0.00    +0.000 C 
ATOM     22  C   UNL     1       3.189   4.060  18.098  0.00  0.00    +0.000 A 
ATOM     23  C   UNL     1       3.202   2.976  17.248  0.00  0.00    +0.000 A 
ATOM     24  C   UNL     1       3.520   1.725  17.791  0.00  0.00    +0.000 A 
ATOM     25  C   UNL     1       3.951   1.628  19.123  0.00  0.00    +0.000 A 
ATOM     26  C   UNL     1       3.750   2.698  19.990  0.00  0.00    +0.000 A 
ATOM     27  C   UNL     1       3.146   3.824  19.465  0.00  0.00    +0.000 A 
ATOM     28  C   UNL     1       2.261   4.924  20.053  0.00  0.00    +0.000 C 
ATOM     29  C   UNL     1       2.440   5.021  21.567  0.00  0.00    +0.000 C 
ATOM     30  C   UNL     1       0.796   4.463  19.772  0.00  0.00    +0.000 C 
ENDBRANCH  17  18
ENDBRANCH   2  16
BRANCH   3  31
ATOM     31  C   UNL     1      -1.614  11.860  21.279  0.00  0.00    +0.000 C 
BRANCH  31  32
ATOM     32  C   UNL     1      -1.781  12.153  22.788  0.00  0.00    +0.000 C 
ATOM     33  N   UNL     1      -1.197  13.282  23.308  0.00  0.00    +0.000 N 
ATOM     34  O   UNL     1      -2.418  11.413  23.533  0.00  0.00    +0.000 OA
ATOM     35  H   UNL     1      -0.335  13.650  22.908  0.00  0.00    +0.000 HD
ATOM     36  H   UNL     1      -1.257  13.375  24.319  0.00  0.00    +0.000 HD
ENDBRANCH  31  32
ENDBRANCH   3  31
TORSDOF 5
ENDMDL
MODEL 6
REMARK VINA RESULT:      -8.5      2.147      4.616
REMARK  Name = 
REMARK  9 active torsions:
REMARK  status: ('A' for Active; 'I' for Inactive)
REMARK    1  A    between atoms: C_1  and  C_2
REMARK    2  A    between atoms: C_2  and  N_3
REMARK    3  A    between atoms: C_4  and  C_5
REMARK    4  A    between atoms: C_6  and  C_7
REMARK    5  A    between atoms: N_9  and  C_10
REMARK    6  A    between atoms: C_17  and  C_18
REMARK    7  A    between atoms: C_17  and  C_19
REMARK    8  A    between atoms: N_20  and  C_21
REMARK    9  A    between atoms: C_21  and  C_22
REMARK                            x       y       z     vdW  Elec       q    Type
REMARK                         _______ _______ _______ _____ _____    ______ ____
ROOT
ATOM      1  N   UNL     1       2.175   5.920  19.663  0.00  0.00    +0.000 N 
ATOM      2  C   UNL     1       1.874   6.354  18.419  0.00  0.00    +0.000 A 
ATOM      3  N   UNL     1       1.923   5.164  17.737  0.00  0.00    +0.000 N 
ATOM      4  C   UNL     1       3.242   4.922  18.015  0.00  0.00    +0.000 A 
ATOM      5  N   UNL     1       4.125   4.435  17.111  0.00  0.00    +0.000 NA
ATOM      6  C   UNL     1       5.371   4.579  17.523  0.00  0.00    +0.000 A 
ATOM      7  C   UNL     1       6.294   4.190  16.557  0.00  0.00    +0.000 A 
ATOM      8  C   UNL     1       7.622   4.389  16.758  0.00  0.00    +0.000 A 
ATOM      9  C   UNL     1       8.037   4.932  17.979  0.00  0.00    +0.000 A 
ATOM     10  C   UNL     1       7.101   5.298  18.982  0.00  0.00    +0.000 A 
ATOM     11  C   UNL     1       5.731   5.129  18.811  0.00  0.00    +0.000 A 
ATOM     12  N   UNL     1       4.771   5.517  19.774  0.00  0.00    +0.000 NA
ATOM     13  C   UNL     1       3.463   5.370  19.327  0.00  0.00    +0.000 A 
ENDROOT
BRANCH   1  15
ATOM     14  C   UNL     1       1.900   7.869  21.210  0.00  0.00    +0.000 C 
ATOM     15  C   UNL     1       1.466   6.418  20.848  0.00  0.00    +0.000 C 
ENDBRANCH   1  15
BRANCH   2  16
ATOM     16  C   UNL     1       2.464   7.745  17.963  0.00  0.00    +0.000 C 
ATOM     17  C   UNL     1       1.586   8.756  17.707  0.00  0.00    +0.000 C 
BRANCH  17  18
ATOM     18  C   UNL     1       1.749  10.113  18.217  0.00  0.00    +0.000 C 
ATOM     19  C   UNL     1       0.855  10.816  18.958  0.00  0.00    +0.000 C 
ATOM     20  N   UNL     1       1.282  11.863  19.853  0.00  0.00    +0.000 N 
ATOM     21  C   UNL     1       2.051  12.993  19.308  0.00  0.00    +0.000 C 
ATOM     22  C   UNL     1       0.121  12.379  20.495  0.00  0.00    +0.000 A 
ATOM     23  C   UNL     1      -0.031  13.060  21.683  0.00  0.00    +0.000 A 
ATOM     24  C   UNL     1      -1.289  13.610  21.962  0.00  0.00    +0.000 A 
ATOM     25  C   UNL     1      -2.298  13.584  20.988  0.00  0.00    +0.000 A 
ATOM     26  C   UNL     1      -2.171  12.740  19.889  0.00  0.00    +0.000 A 
ATOM     27  C   UNL     1      -1.020  11.979  19.815  0.00  0.00    +0.000 A 
ATOM     28  C   UNL     1      -0.687  10.617  19.203  0.00  0.00    +0.000 C 
ATOM     29  C   UNL     1      -1.695  10.241  18.118  0.00  0.00    +0.000 C 
ATOM     30  C   UNL     1      -0.840   9.596  20.374  0.00  0.00    +0.000 C 
ENDBRANCH  17  18
ENDBRANCH   2  16
BRANCH   3  31
ATOM     31  C   UNL     1       1.098   3.926  17.821  0.00  0.00    +0.000 C 
BRANCH  31  32
ATOM     32  C   UNL     1       1.873   2.785  18.518  0.00  0.00    +0.000 C 
ATOM     33  N   UNL     1       2.603   1.916  17.745  0.00  0.00    +0.000 N 
ATOM     34  O   UNL     1       1.857   2.631  19.736  0.00  0.00    +0.000 OA
ATOM     35  H   UNL     1       2.308   1.696  16.794  0.00  0.00    +0.000 HD
ATOM     36  H   UNL     1       3.012   1.130  18.244  0.00  0.00    +0.000 HD
ENDBRANCH  31  32
ENDBRANCH   3  31
TORSDOF 5
ENDMDL
MODEL 7
REMARK VINA RESULT:      -8.2      2.222      4.997
REMARK  Name = 
REMARK  9 active torsions:
REMARK  status: ('A' for Active; 'I' for Inactive)
REMARK    1  A    between atoms: C_1  and  C_2
REMARK    2  A    between atoms: C_2  and  N_3
REMARK    3  A    between atoms: C_4  and  C_5
REMARK    4  A    between atoms: C_6  and  C_7
REMARK    5  A    between atoms: N_9  and  C_10
REMARK    6  A    between atoms: C_17  and  C_18
REMARK    7  A    between atoms: C_17  and  C_19
REMARK    8  A    between atoms: N_20  and  C_21
REMARK    9  A    between atoms: C_21  and  C_22
REMARK                            x       y       z     vdW  Elec       q    Type
REMARK                         _______ _______ _______ _____ _____    ______ ____
ROOT
ATOM      1  N   UNL     1       2.443   4.371  20.099  0.00  0.00    +0.000 N 
ATOM      2  C   UNL     1       1.803   5.328  19.390  0.00  0.00    +0.000 A 
ATOM      3  N   UNL     1       2.046   4.877  18.116  0.00  0.00    +0.000 N 
ATOM      4  C   UNL     1       3.408   4.974  18.214  0.00  0.00    +0.000 A 
ATOM      5  N   UNL     1       4.202   5.448  17.225  0.00  0.00    +0.000 NA
ATOM      6  C   UNL     1       5.416   5.724  17.666  0.00  0.00    +0.000 A 
ATOM      7  C   UNL     1       6.209   6.320  16.690  0.00  0.00    +0.000 A 
ATOM      8  C   UNL     1       7.444   6.789  17.002  0.00  0.00    +0.000 A 
ATOM      9  C   UNL     1       7.919   6.600  18.305  0.00  0.00    +0.000 A 
ATOM     10  C   UNL     1       7.128   5.961  19.295  0.00  0.00    +0.000 A 
ATOM     11  C   UNL     1       5.849   5.482  19.024  0.00  0.00    +0.000 A 
ATOM     12  N   UNL     1       5.022   4.875  19.996  0.00  0.00    +0.000 NA
ATOM     13  C   UNL     1       3.744   4.598  19.524  0.00  0.00    +0.000 A 
ENDROOT
BRANCH   1  15
ATOM     14  C   UNL     1       2.614   2.504  21.759  0.00  0.00    +0.000 C 
ATOM     15  C   UNL     1       1.863   3.796  21.320  0.00  0.00    +0.000 C 
ENDBRANCH   1  15
BRANCH   2  16
ATOM     16  C   UNL     1       1.891   6.814  19.914  0.00  0.00    +0.000 C 
ATOM     17  C   UNL     1       2.244   7.784  19.023  0.00  0.00    +0.000 C 
BRANCH  17  18
ATOM     18  C   UNL     1       1.535   9.051  18.889  0.00  0.00    +0.000 C 
ATOM     19  C   UNL     1       0.962   9.772  19.886  0.00  0.00    +0.000 C 
ATOM     20  N   UNL     1       0.789  11.199  19.775  0.00  0.00    +0.000 N 
ATOM     21  C   UNL     1       0.012  11.735  18.645  0.00  0.00    +0.000 C 
ATOM     22  C   UNL     1       0.192  11.655  20.984  0.00  0.00    +0.000 A 
ATOM     23  C   UNL     1       0.179  12.899  21.577  0.00  0.00    +0.000 A 
ATOM     24  C   UNL     1      -0.660  13.085  22.682  0.00  0.00    +0.000 A 
ATOM     25  C   UNL     1      -1.556  12.075  23.061  0.00  0.00    +0.000 A 
ATOM     26  C   UNL     1      -1.388  10.786  22.564  0.00  0.00    +0.000 A 
ATOM     27  C   UNL     1      -0.338  10.585  21.689  0.00  0.00    +0.000 A 
ATOM     28  C   UNL     1       0.547   9.383  21.353  0.00  0.00    +0.000 C 
ATOM     29  C   UNL     1      -0.137   8.072  21.741  0.00  0.00    +0.000 C 
ATOM     30  C   UNL     1       1.814   9.546  22.250  0.00  0.00    +0.000 C 
ENDBRANCH  17  18
ENDBRANCH   2  16
BRANCH   3  31
ATOM     31  C   UNL     1       1.624   3.646  17.392  0.00  0.00    +0.000 C 
BRANCH  31  32
ATOM     32  C   UNL     1       1.180   2.542  18.378  0.00  0.00    +0.000 C 
ATOM     33  N   UNL     1       2.035   1.497  18.625  0.00  0.00    +0.000 N 
ATOM     34  O   UNL     1       0.091   2.570  18.946  0.00  0.00    +0.000 OA
ATOM     35  H   UNL     1       2.680   1.174  17.905  0.00  0.00    +0.000 HD
ATOM     36  H   UNL     1       1.655   0.753  19.205  0.00  0.00    +0.000 HD
ENDBRANCH  31  32
ENDBRANCH   3  31
TORSDOF 5
ENDMDL
MODEL 8
REMARK VINA RESULT:      -8.2      1.236      1.850
REMARK  Name = 
REMARK  9 active torsions:
REMARK  status: ('A' for Active; 'I' for Inactive)
REMARK    1  A    between atoms: C_1  and  C_2
REMARK    2  A    between atoms: C_2  and  N_3
REMARK    3  A    between atoms: C_4  and  C_5
REMARK    4  A    between atoms: C_6  and  C_7
REMARK    5  A    between atoms: N_9  and  C_10
REMARK    6  A    between atoms: C_17  and  C_18
REMARK    7  A    between atoms: C_17  and  C_19
REMARK    8  A    between atoms: N_20  and  C_21
REMARK    9  A    between atoms: C_21  and  C_22
REMARK                            x       y       z     vdW  Elec       q    Type
REMARK                         _______ _______ _______ _____ _____    ______ ____
ROOT
ATOM      1  N   UNL     1       4.971   5.015  16.097  0.00  0.00    +0.000 N 
ATOM      2  C   UNL     1       5.055   6.160  16.811  0.00  0.00    +0.000 A 
ATOM      3  N   UNL     1       5.659   5.683  17.948  0.00  0.00    +0.000 N 
ATOM      4  C   UNL     1       4.647   4.818  18.267  0.00  0.00    +0.000 A 
ATOM      5  N   UNL     1       4.184   4.632  19.525  0.00  0.00    +0.000 NA
ATOM      6  C   UNL     1       3.028   3.993  19.528  0.00  0.00    +0.000 A 
ATOM      7  C   UNL     1       2.482   3.897  20.805  0.00  0.00    +0.000 A 
ATOM      8  C   UNL     1       1.237   3.386  20.982  0.00  0.00    +0.000 A 
ATOM      9  C   UNL     1       0.549   2.905  19.862  0.00  0.00    +0.000 A 
ATOM     10  C   UNL     1       1.115   2.970  18.562  0.00  0.00    +0.000 A 
ATOM     11  C   UNL     1       2.381   3.501  18.333  0.00  0.00    +0.000 A 
ATOM     12  N   UNL     1       2.958   3.614  17.047  0.00  0.00    +0.000 NA
ATOM     13  C   UNL     1       4.169   4.295  17.054  0.00  0.00    +0.000 A 
ENDROOT
BRANCH   1  15
ATOM     14  C   UNL     1       6.725   4.502  14.385  0.00  0.00    +0.000 C 
ATOM     15  C   UNL     1       5.267   4.977  14.659  0.00  0.00    +0.000 C 
ENDBRANCH   1  15
BRANCH   2  16
ATOM     16  C   UNL     1       3.848   7.173  16.720  0.00  0.00    +0.000 C 
ATOM     17  C   UNL     1       3.561   7.922  17.823  0.00  0.00    +0.000 C 
BRANCH  17  18
ATOM     18  C   UNL     1       3.322   9.360  17.781  0.00  0.00    +0.000 C 
ATOM     19  C   UNL     1       2.208  10.012  18.201  0.00  0.00    +0.000 C 
ATOM     20  N   UNL     1       2.262  11.387  18.631  0.00  0.00    +0.000 N 
ATOM     21  C   UNL     1       2.770  12.404  17.696  0.00  0.00    +0.000 C 
ATOM     22  C   UNL     1       0.948  11.764  19.031  0.00  0.00    +0.000 A 
ATOM     23  C   UNL     1       0.508  12.763  19.872  0.00  0.00    +0.000 A 
ATOM     24  C   UNL     1      -0.869  13.010  19.924  0.00  0.00    +0.000 A 
ATOM     25  C   UNL     1      -1.734  12.355  19.034  0.00  0.00    +0.000 A 
ATOM     26  C   UNL     1      -1.286  11.237  18.338  0.00  0.00    +0.000 A 
ATOM     27  C   UNL     1       0.022  10.847  18.556  0.00  0.00    +0.000 A 
ATOM     28  C   UNL     1       0.750   9.503  18.506  0.00  0.00    +0.000 C 
ATOM     29  C   UNL     1      -0.014   8.496  17.646  0.00  0.00    +0.000 C 
ATOM     30  C   UNL     1       0.742   8.981  19.977  0.00  0.00    +0.000 C 
ENDBRANCH  17  18
ENDBRANCH   2  16
BRANCH   3  31
ATOM     31  C   UNL     1       7.002   5.087  18.193  0.00  0.00    +0.000 C 
BRANCH  31  32
ATOM     32  C   UNL     1       7.745   5.831  19.327  0.00  0.00    +0.000 C 
ATOM     33  N   UNL     1       8.337   7.037  19.045  0.00  0.00    +0.000 N 
ATOM     34  O   UNL     1       7.821   5.380  20.467  0.00  0.00    +0.000 OA
ATOM     35  H   UNL     1       8.704   7.229  18.114  0.00  0.00    +0.000 HD
ATOM     36  H   UNL     1       8.891   7.435  19.799  0.00  0.00    +0.000 HD
ENDBRANCH  31  32
ENDBRANCH   3  31
TORSDOF 5
ENDMDL
MODEL 9
REMARK VINA RESULT:      -8.2      2.704      8.550
REMARK  Name = 
REMARK  9 active torsions:
REMARK  status: ('A' for Active; 'I' for Inactive)
REMARK    1  A    between atoms: C_1  and  C_2
REMARK    2  A    between atoms: C_2  and  N_3
REMARK    3  A    between atoms: C_4  and  C_5
REMARK    4  A    between atoms: C_6  and  C_7
REMARK    5  A    between atoms: N_9  and  C_10
REMARK    6  A    between atoms: C_17  and  C_18
REMARK    7  A    between atoms: C_17  and  C_19
REMARK    8  A    between atoms: N_20  and  C_21
REMARK    9  A    between atoms: C_21  and  C_22
REMARK                            x       y       z     vdW  Elec       q    Type
REMARK                         _______ _______ _______ _____ _____    ______ ____
ROOT
ATOM      1  N   UNL     1      -0.760  10.342  18.533  0.00  0.00    +0.000 N 
ATOM      2  C   UNL     1       0.279   9.535  18.843  0.00  0.00    +0.000 A 
ATOM      3  N   UNL     1       0.419   9.834  20.175  0.00  0.00    +0.000 N 
ATOM      4  C   UNL     1       0.693  11.160  19.972  0.00  0.00    +0.000 A 
ATOM      5  N   UNL     1       1.644  11.845  20.649  0.00  0.00    +0.000 NA
ATOM      6  C   UNL     1       1.918  12.999  20.068  0.00  0.00    +0.000 A 
ATOM      7  C   UNL     1       2.976  13.662  20.685  0.00  0.00    +0.000 A 
ATOM      8  C   UNL     1       3.478  14.802  20.146  0.00  0.00    +0.000 A 
ATOM      9  C   UNL     1       2.868  15.321  18.998  0.00  0.00    +0.000 A 
ATOM     10  C   UNL     1       1.767  14.667  18.385  0.00  0.00    +0.000 A 
ATOM     11  C   UNL     1       1.232  13.488  18.894  0.00  0.00    +0.000 A 
ATOM     12  N   UNL     1       0.161  12.793  18.287  0.00  0.00    +0.000 NA
ATOM     13  C   UNL     1      -0.113  11.575  18.899  0.00  0.00    +0.000 A 
ENDROOT
BRANCH   1  15
ATOM     14  C   UNL     1      -3.150  10.731  17.897  0.00  0.00    +0.000 C 
ATOM     15  C   UNL     1      -1.860   9.889  17.672  0.00  0.00    +0.000 C 
ENDBRANCH   1  15
BRANCH   2  16
ATOM     16  C   UNL     1       1.427   9.372  17.772  0.00  0.00    +0.000 C 
ATOM     17  C   UNL     1       2.697   9.167  18.225  0.00  0.00    +0.000 C 
BRANCH  17  18
ATOM     18  C   UNL     1       3.584   8.136  17.698  0.00  0.00    +0.000 C 
ATOM     19  C   UNL     1       3.499   6.800  17.919  0.00  0.00    +0.000 C 
ATOM     20  N   UNL     1       4.024   5.848  16.971  0.00  0.00    +0.000 N 
ATOM     21  C   UNL     1       5.449   5.920  16.609  0.00  0.00    +0.000 C 
ATOM     22  C   UNL     1       3.756   4.545  17.476  0.00  0.00    +0.000 A 
ATOM     23  C   UNL     1       3.659   3.327  16.839  0.00  0.00    +0.000 A 
ATOM     24  C   UNL     1       3.571   2.180  17.637  0.00  0.00    +0.000 A 
ATOM     25  C   UNL     1       3.727   2.278  19.028  0.00  0.00    +0.000 A 
ATOM     26  C   UNL     1       3.640   3.524  19.643  0.00  0.00    +0.000 A 
ATOM     27  C   UNL     1       3.421   4.613  18.821  0.00  0.00    +0.000 A 
ATOM     28  C   UNL     1       2.736   5.966  19.015  0.00  0.00    +0.000 C 
ATOM     29  C   UNL     1       2.666   6.340  20.494  0.00  0.00    +0.000 C 
ATOM     30  C   UNL     1       1.275   5.760  18.503  0.00  0.00    +0.000 C 
ENDBRANCH  17  18
ENDBRANCH   2  16
BRANCH   3  31
ATOM     31  C   UNL     1      -0.474   9.620  21.349  0.00  0.00    +0.000 C 
BRANCH  31  32
ATOM     32  C   UNL     1       0.344   9.457  22.650  0.00  0.00    +0.000 C 
ATOM     33  N   UNL     1       1.650   9.044  22.560  0.00  0.00    +0.000 N 
ATOM     34  O   UNL     1      -0.135   9.685  23.758  0.00  0.00    +0.000 OA
ATOM     35  H   UNL     1       1.947   8.428  21.804  0.00  0.00    +0.000 HD
ATOM     36  H   UNL     1       2.110   8.861  23.449  0.00  0.00    +0.000 HD
ENDBRANCH  31  32
ENDBRANCH   3  31
TORSDOF 5
ENDMDL
