MODEL 1
REMARK VINA RESULT:      -8.8      0.000      0.000
REMARK  Name = 
REMARK  9 active torsions:
REMARK  status: ('A' for Active; 'I' for Inactive)
REMARK    1  A    between atoms: C_1  and  C_2
REMARK    2  A    between atoms: C_5  and  C_6
REMARK    3  A    between atoms: C_7  and  S_8
REMARK    4  A    between atoms: S_8  and  N_11
REMARK    5  A    between atoms: N_14  and  C_15
REMARK    6  A    between atoms: C_15  and  C_16
REMARK    7  A    between atoms: C_15  and  C_17
REMARK    8  A    between atoms: N_19  and  C_20
REMARK    9  A    between atoms: C_25  and  C_26
REMARK                            x       y       z     vdW  Elec       q    Type
REMARK                         _______ _______ _______ _____ _____    ______ ____
ROOT
ATOM      1  C   UNL     1       1.641   8.896  19.714  0.00  0.00    +0.000 C 
ATOM      2  C   UNL     1       1.330   7.959  20.890  0.00  0.00    +0.000 C 
ENDROOT
BRANCH   1   6
ATOM      3  N   UNL     1       0.527  12.362  20.679  0.00  0.00    +0.000 NA
ATOM      4  C   UNL     1      -0.052  11.160  21.334  0.00  0.00    +0.000 C 
ATOM      5  C   UNL     1      -0.489  10.056  20.335  0.00  0.00    +0.000 C 
ATOM      6  N   UNL     1       0.466   9.698  19.264  0.00  0.00    +0.000 NA
ATOM      7  C   UNL     1       0.891  10.967  18.614  0.00  0.00    +0.000 C 
ATOM      8  C   UNL     1       1.445  12.050  19.556  0.00  0.00    +0.000 C 
BRANCH   3   9
ATOM      9  S   UNL     1      -0.419  13.751  20.523  0.00  0.00    +0.000 S 
ATOM     10  O   UNL     1      -0.570  14.015  19.104  0.00  0.00    +0.000 OA
ATOM     11  O   UNL     1       0.095  14.771  21.401  0.00  0.00    +0.000 OA
BRANCH   9  18
ATOM     12  C   UNL     1      -5.391  12.470  19.608  0.00  0.00    +0.000 C 
ATOM     13  C   UNL     1      -4.329  12.697  20.643  0.00  0.00    +0.000 A 
ATOM     14  C   UNL     1      -4.661  12.830  21.992  0.00  0.00    +0.000 A 
ATOM     15  C   UNL     1      -3.677  13.154  22.935  0.00  0.00    +0.000 A 
ATOM     16  C   UNL     1      -2.345  13.369  22.545  0.00  0.00    +0.000 A 
ATOM     17  C   UNL     1      -1.365  13.778  23.609  0.00  0.00    +0.000 C 
ATOM     18  C   UNL     1      -2.016  13.251  21.178  0.00  0.00    +0.000 A 
ATOM     19  C   UNL     1      -3.001  12.884  20.247  0.00  0.00    +0.000 A 
ENDBRANCH   9  18
ENDBRANCH   3   9
ENDBRANCH   1   6
BRANCH   1  20
ATOM     20  C   UNL     1       2.147   8.019  18.539  0.00  0.00    +0.000 C 
ATOM     21  O   UNL     1       1.614   8.089  17.427  0.00  0.00    +0.000 OA
ATOM     22  N   UNL     1       3.235   7.215  18.845  0.00  0.00    +0.000 N 
ATOM     23  H   UNL     1       3.523   7.146  19.816  0.00  0.00    +0.000 HD
BRANCH  22  24
ATOM     24  C   UNL     1       3.820   6.322  17.923  0.00  0.00    +0.000 A 
ATOM     25  C   UNL     1       4.632   6.887  16.924  0.00  0.00    +0.000 A 
ATOM     26  C   UNL     1       5.244   6.092  15.961  0.00  0.00    +0.000 A 
ATOM     27  C   UNL     1       5.084   4.717  16.011  0.00  0.00    +0.000 A 
ATOM     28  C   UNL     1       4.274   4.147  16.998  0.00  0.00    +0.000 A 
ATOM     29  C   UNL     1       3.576   4.923  17.955  0.00  0.00    +0.000 A 
BRANCH  29  30
ATOM     30  C   UNL     1       2.690   4.220  18.933  0.00  0.00    +0.000 A 
ATOM     31  C   UNL     1       1.518   3.546  18.555  0.00  0.00    +0.000 A 
ATOM     32  C   UNL     1       0.719   2.862  19.479  0.00  0.00    +0.000 A 
ATOM     33  C   UNL     1       1.037   2.892  20.831  0.00  0.00    +0.000 A 
ATOM     34  C   UNL     1       2.158   3.592  21.253  0.00  0.00    +0.000 A 
ATOM     35  C   UNL     1       2.981   4.229  20.315  0.00  0.00    +0.000 A 
ENDBRANCH  29  30
ENDBRANCH  22  24
ENDBRANCH   1  20
TORSDOF 6
ENDMDL
MODEL 2
REMARK VINA RESULT:      -8.7      2.075      3.637
REMARK  Name = 
REMARK  9 active torsions:
REMARK  status: ('A' for Active; 'I' for Inactive)
REMARK    1  A    between atoms: C_1  and  C_2
REMARK    2  A    between atoms: C_5  and  C_6
REMARK    3  A    between atoms: C_7  and  S_8
REMARK    4  A    between atoms: S_8  and  N_11
REMARK    5  A    between atoms: N_14  and  C_15
REMARK    6  A    between atoms: C_15  and  C_16
REMARK    7  A    between atoms: C_15  and  C_17
REMARK    8  A    between atoms: N_19  and  C_20
REMARK    9  A    between atoms: C_25  and  C_26
REMARK                            x       y       z     vdW  Elec       q    Type
REMARK                         _______ _______ _______ _____ _____    ______ ____
ROOT
ATOM      1  C   UNL     1       1.826   8.426  20.207  0.00  0.00    +0.000 C 
ATOM      2  C   UNL     1       1.618   8.651  21.712  0.00  0.00    +0.000 C 
ENDROOT
BRANCH   1   6
ATOM      3  N   UNL     1       0.391  11.899  19.945  0.00  0.00    +0.000 NA
ATOM      4  C   UNL     1      -0.237  10.874  20.820  0.00  0.00    +0.000 C 
ATOM      5  C   UNL     1      -0.435   9.500  20.125  0.00  0.00    +0.000 C 
ATOM      6  N   UNL     1       0.712   8.955  19.367  0.00  0.00    +0.000 NA
ATOM      7  C   UNL     1       1.183  10.031  18.454  0.00  0.00    +0.000 C 
ATOM      8  C   UNL     1       1.507  11.380  19.119  0.00  0.00    +0.000 C 
BRANCH   3   9
ATOM      9  S   UNL     1      -0.579  13.093  19.249  0.00  0.00    +0.000 S 
ATOM     10  O   UNL     1       0.143  13.626  18.110  0.00  0.00    +0.000 OA
ATOM     11  O   UNL     1      -1.055  13.974  20.285  0.00  0.00    +0.000 OA
BRANCH   9  18
ATOM     12  C   UNL     1      -2.892  10.583  15.306  0.00  0.00    +0.000 C 
ATOM     13  C   UNL     1      -3.006  11.057  16.725  0.00  0.00    +0.000 A 
ATOM     14  C   UNL     1      -4.240  11.069  17.378  0.00  0.00    +0.000 A 
ATOM     15  C   UNL     1      -4.355  11.616  18.662  0.00  0.00    +0.000 A 
ATOM     16  C   UNL     1      -3.245  12.179  19.311  0.00  0.00    +0.000 A 
ATOM     17  C   UNL     1      -3.468  12.806  20.659  0.00  0.00    +0.000 C 
ATOM     18  C   UNL     1      -2.003  12.180  18.641  0.00  0.00    +0.000 A 
ATOM     19  C   UNL     1      -1.888  11.590  17.372  0.00  0.00    +0.000 A 
ENDBRANCH   9  18
ENDBRANCH   3   9
ENDBRANCH   1   6
BRANCH   1  20
ATOM     20  C   UNL     1       1.964   6.899  19.977  0.00  0.00    +0.000 C 
ATOM     21  O   UNL     1       1.593   6.096  20.839  0.00  0.00    +0.000 OA
ATOM     22  N   UNL     1       2.489   6.547  18.741  0.00  0.00    +0.000 N 
ATOM     23  H   UNL     1       2.869   7.282  18.154  0.00  0.00    +0.000 HD
BRANCH  22  24
ATOM     24  C   UNL     1       2.724   5.211  18.354  0.00  0.00    +0.000 A 
ATOM     25  C   UNL     1       1.612   4.351  18.342  0.00  0.00    +0.000 A 
ATOM     26  C   UNL     1       1.742   3.013  17.987  0.00  0.00    +0.000 A 
ATOM     27  C   UNL     1       2.981   2.529  17.598  0.00  0.00    +0.000 A 
ATOM     28  C   UNL     1       4.093   3.376  17.612  0.00  0.00    +0.000 A 
ATOM     29  C   UNL     1       4.020   4.726  18.034  0.00  0.00    +0.000 A 
BRANCH  29  30
ATOM     30  C   UNL     1       5.279   5.531  18.066  0.00  0.00    +0.000 A 
ATOM     31  C   UNL     1       5.531   6.590  17.179  0.00  0.00    +0.000 A 
ATOM     32  C   UNL     1       6.700   7.358  17.246  0.00  0.00    +0.000 A 
ATOM     33  C   UNL     1       7.690   7.041  18.167  0.00  0.00    +0.000 A 
ATOM     34  C   UNL     1       7.503   5.967  19.027  0.00  0.00    +0.000 A 
ATOM     35  C   UNL     1       6.308   5.238  18.988  0.00  0.00    +0.000 A 
ENDBRANCH  29  30
ENDBRANCH  22  24
ENDBRANCH   1  20
TORSDOF 6
ENDMDL
MODEL 3
REMARK VINA RESULT:      -8.6      2.328      3.798
REMARK  Name = 
REMARK  9 active torsions:
REMARK  status: ('A' for Active; 'I' for Inactive)
REMARK    1  A    between atoms: C_1  and  C_2
REMARK    2  A    between atoms: C_5  and  C_6
REMARK    3  A    between atoms: C_7  and  S_8
REMARK    4  A    between atoms: S_8  and  N_11
REMARK    5  A    between atoms: N_14  and  C_15
REMARK    6  A    between atoms: C_15  and  C_16
REMARK    7  A    between atoms: C_15  and  C_17
REMARK    8  A    between atoms: N_19  and  C_20
REMARK    9  A    between atoms: C_25  and  C_26
REMARK                            x       y       z     vdW  Elec       q    Type
REMARK                         _______ _______ _______ _____ _____    ______ ____
ROOT
ATOM      1  C   UNL     1       1.789   8.603  19.657  0.00  0.00    +0.000 C 
ATOM      2  C   UNL     1       1.570   7.741  20.909  0.00  0.00    +0.000 C 
ENDROOT
BRANCH   1   6
ATOM      3  N   UNL     1       1.088  12.300  19.812  0.00  0.00    +0.000 NA
ATOM      4  C   UNL     1       0.616  11.385  20.884  0.00  0.00    +0.000 C 
ATOM      5  C   UNL     1      -0.088  10.110  20.349  0.00  0.00    +0.000 C 
ATOM      6  N   UNL     1       0.582   9.380  19.251  0.00  0.00    +0.000 NA
ATOM      7  C   UNL     1       0.907  10.378  18.196  0.00  0.00    +0.000 C 
ATOM      8  C   UNL     1       1.711  11.605  18.661  0.00  0.00    +0.000 C 
BRANCH   3   9
ATOM      9  S   UNL     1       0.197  13.693  19.469  0.00  0.00    +0.000 S 
ATOM     10  O   UNL     1      -0.632  13.972  20.627  0.00  0.00    +0.000 OA
ATOM     11  O   UNL     1      -0.399  13.560  18.164  0.00  0.00    +0.000 OA
BRANCH   9  18
ATOM     12  C   UNL     1       5.024  15.312  20.599  0.00  0.00    +0.000 C 
ATOM     13  C   UNL     1       3.711  15.648  19.955  0.00  0.00    +0.000 A 
ATOM     14  C   UNL     1       3.405  16.962  19.598  0.00  0.00    +0.000 A 
ATOM     15  C   UNL     1       2.136  17.283  19.101  0.00  0.00    +0.000 A 
ATOM     16  C   UNL     1       1.141  16.301  18.969  0.00  0.00    +0.000 A 
ATOM     17  C   UNL     1      -0.215  16.741  18.491  0.00  0.00    +0.000 C 
ATOM     18  C   UNL     1       1.449  14.976  19.347  0.00  0.00    +0.000 A 
ATOM     19  C   UNL     1       2.737  14.657  19.803  0.00  0.00    +0.000 A 
ENDBRANCH   9  18
ENDBRANCH   3   9
ENDBRANCH   1   6
BRANCH   1  20
ATOM     20  C   UNL     1       2.204   7.655  18.504  0.00  0.00    +0.000 C 
ATOM     21  O   UNL     1       1.467   7.492  17.526  0.00  0.00    +0.000 OA
ATOM     22  N   UNL     1       3.452   7.066  18.660  0.00  0.00    +0.000 N 
ATOM     23  H   UNL     1       3.924   7.175  19.552  0.00  0.00    +0.000 HD
BRANCH  22  24
ATOM     24  C   UNL     1       3.994   6.148  17.737  0.00  0.00    +0.000 A 
ATOM     25  C   UNL     1       4.822   6.678  16.732  0.00  0.00    +0.000 A 
ATOM     26  C   UNL     1       5.395   5.856  15.767  0.00  0.00    +0.000 A 
ATOM     27  C   UNL     1       5.181   4.489  15.822  0.00  0.00    +0.000 A 
ATOM     28  C   UNL     1       4.355   3.954  16.815  0.00  0.00    +0.000 A 
ATOM     29  C   UNL     1       3.694   4.760  17.775  0.00  0.00    +0.000 A 
BRANCH  29  30
ATOM     30  C   UNL     1       2.788   4.096  18.760  0.00  0.00    +0.000 A 
ATOM     31  C   UNL     1       1.567   3.506  18.398  0.00  0.00    +0.000 A 
ATOM     32  C   UNL     1       0.746   2.856  19.328  0.00  0.00    +0.000 A 
ATOM     33  C   UNL     1       1.096   2.838  20.672  0.00  0.00    +0.000 A 
ATOM     34  C   UNL     1       2.269   3.457  21.080  0.00  0.00    +0.000 A 
ATOM     35  C   UNL     1       3.110   4.058  20.135  0.00  0.00    +0.000 A 
ENDBRANCH  29  30
ENDBRANCH  22  24
ENDBRANCH   1  20
TORSDOF 6
ENDMDL
MODEL 4
REMARK VINA RESULT:      -8.5      1.154      1.598
REMARK  Name = 
REMARK  9 active torsions:
REMARK  status: ('A' for Active; 'I' for Inactive)
REMARK    1  A    between atoms: C_1  and  C_2
REMARK    2  A    between atoms: C_5  and  C_6
REMARK    3  A    between atoms: C_7  and  S_8
REMARK    4  A    between atoms: S_8  and  N_11
REMARK    5  A    between atoms: N_14  and  C_15
REMARK    6  A    between atoms: C_15  and  C_16
REMARK    7  A    between atoms: C_15  and  C_17
REMARK    8  A    between atoms: N_19  and  C_20
REMARK    9  A    between atoms: C_25  and  C_26
REMARK                            x       y       z     vdW  Elec       q    Type
REMARK                         _______ _______ _______ _____ _____    ______ ____
ROOT
ATOM      1  C   UNL     1       1.541   9.016  19.686  0.00  0.00    +0.000 C 
ATOM      2  C   UNL     1       1.348   8.079  20.887  0.00  0.00    +0.000 C 
ENDROOT
BRANCH   1   6
ATOM      3  N   UNL     1      -0.034  12.243  20.820  0.00  0.00    +0.000 NA
ATOM      4  C   UNL     1      -0.469  10.939  21.383  0.00  0.00    +0.000 C 
ATOM      5  C   UNL     1      -0.736   9.853  20.307  0.00  0.00    +0.000 C 
ATOM      6  N   UNL     1       0.283   9.688  19.247  0.00  0.00    +0.000 NA
ATOM      7  C   UNL     1       0.556  11.040  18.688  0.00  0.00    +0.000 C 
ATOM      8  C   UNL     1       0.942  12.122  19.711  0.00  0.00    +0.000 C 
BRANCH   3   9
ATOM      9  S   UNL     1      -1.149  13.508  20.717  0.00  0.00    +0.000 S 
ATOM     10  O   UNL     1      -2.284  13.022  19.955  0.00  0.00    +0.000 OA
ATOM     11  O   UNL     1      -0.462  14.707  20.313  0.00  0.00    +0.000 OA
BRANCH   9  18
ATOM     12  C   UNL     1      -4.731  12.700  24.420  0.00  0.00    +0.000 C 
ATOM     13  C   UNL     1      -3.422  13.342  24.066  0.00  0.00    +0.000 A 
ATOM     14  C   UNL     1      -2.851  14.308  24.896  0.00  0.00    +0.000 A 
ATOM     15  C   UNL     1      -1.687  14.981  24.502  0.00  0.00    +0.000 A 
ATOM     16  C   UNL     1      -1.082  14.715  23.263  0.00  0.00    +0.000 A 
ATOM     17  C   UNL     1       0.125  15.529  22.887  0.00  0.00    +0.000 C 
ATOM     18  C   UNL     1      -1.672  13.750  22.419  0.00  0.00    +0.000 A 
ATOM     19  C   UNL     1      -2.813  13.050  22.842  0.00  0.00    +0.000 A 
ENDBRANCH   9  18
ENDBRANCH   3   9
ENDBRANCH   1   6
BRANCH   1  20
ATOM     20  C   UNL     1       2.106   8.168  18.517  0.00  0.00    +0.000 C 
ATOM     21  O   UNL     1       1.678   8.315  17.368  0.00  0.00    +0.000 OA
ATOM     22  N   UNL     1       3.123   7.295  18.876  0.00  0.00    +0.000 N 
ATOM     23  H   UNL     1       3.320   7.168  19.863  0.00  0.00    +0.000 HD
BRANCH  22  24
ATOM     24  C   UNL     1       3.744   6.415  17.965  0.00  0.00    +0.000 A 
ATOM     25  C   UNL     1       4.546   6.999  16.969  0.00  0.00    +0.000 A 
ATOM     26  C   UNL     1       5.191   6.218  16.016  0.00  0.00    +0.000 A 
ATOM     27  C   UNL     1       5.075   4.839  16.074  0.00  0.00    +0.000 A 
ATOM     28  C   UNL     1       4.276   4.250  17.058  0.00  0.00    +0.000 A 
ATOM     29  C   UNL     1       3.544   5.009  18.005  0.00  0.00    +0.000 A 
BRANCH  29  30
ATOM     30  C   UNL     1       2.674   4.285  18.980  0.00  0.00    +0.000 A 
ATOM     31  C   UNL     1       1.485   3.638  18.609  0.00  0.00    +0.000 A 
ATOM     32  C   UNL     1       0.699   2.933  19.529  0.00  0.00    +0.000 A 
ATOM     33  C   UNL     1       1.050   2.914  20.873  0.00  0.00    +0.000 A 
ATOM     34  C   UNL     1       2.190   3.586  21.290  0.00  0.00    +0.000 A 
ATOM     35  C   UNL     1       2.998   4.244  20.354  0.00  0.00    +0.000 A 
ENDBRANCH  29  30
ENDBRANCH  22  24
ENDBRANCH   1  20
TORSDOF 6
ENDMDL
MODEL 5
REMARK VINA RESULT:      -8.5      0.844      1.391
REMARK  Name = 
REMARK  9 active torsions:
REMARK  status: ('A' for Active; 'I' for Inactive)
REMARK    1  A    between atoms: C_1  and  C_2
REMARK    2  A    between atoms: C_5  and  C_6
REMARK    3  A    between atoms: C_7  and  S_8
REMARK    4  A    between atoms: S_8  and  N_11
REMARK    5  A    between atoms: N_14  and  C_15
REMARK    6  A    between atoms: C_15  and  C_16
REMARK    7  A    between atoms: C_15  and  C_17
REMARK    8  A    between atoms: N_19  and  C_20
REMARK    9  A    between atoms: C_25  and  C_26
REMARK                            x       y       z     vdW  Elec       q    Type
REMARK                         _______ _______ _______ _____ _____    ______ ____
ROOT
ATOM      1  C   UNL     1       1.786   8.644  19.630  0.00  0.00    +0.000 C 
ATOM      2  C   UNL     1       1.604   7.785  20.890  0.00  0.00    +0.000 C 
ENDROOT
BRANCH   1   6
ATOM      3  N   UNL     1       0.732  12.202  20.275  0.00  0.00    +0.000 NA
ATOM      4  C   UNL     1       0.257  11.093  21.142  0.00  0.00    +0.000 C 
ATOM      5  C   UNL     1      -0.276   9.869  20.351  0.00  0.00    +0.000 C 
ATOM      6  N   UNL     1       0.552   9.379  19.227  0.00  0.00    +0.000 NA
ATOM      7  C   UNL     1       0.873  10.556  18.375  0.00  0.00    +0.000 C 
ATOM      8  C   UNL     1       1.515  11.751  19.099  0.00  0.00    +0.000 C 
BRANCH   3   9
ATOM      9  S   UNL     1      -0.251  13.558  20.060  0.00  0.00    +0.000 S 
ATOM     10  O   UNL     1       0.090  14.138  18.774  0.00  0.00    +0.000 OA
ATOM     11  O   UNL     1      -0.210  14.362  21.254  0.00  0.00    +0.000 OA
BRANCH   9  18
ATOM     12  C   UNL     1      -3.947  11.336  17.126  0.00  0.00    +0.000 C 
ATOM     13  C   UNL     1      -3.574  11.863  18.481  0.00  0.00    +0.000 A 
ATOM     14  C   UNL     1      -4.549  12.090  19.453  0.00  0.00    +0.000 A 
ATOM     15  C   UNL     1      -4.206  12.686  20.674  0.00  0.00    +0.000 A 
ATOM     16  C   UNL     1      -2.886  13.083  20.939  0.00  0.00    +0.000 A 
ATOM     17  C   UNL     1      -2.615  13.775  22.246  0.00  0.00    +0.000 C 
ATOM     18  C   UNL     1      -1.906  12.867  19.947  0.00  0.00    +0.000 A 
ATOM     19  C   UNL     1      -2.251  12.230  18.744  0.00  0.00    +0.000 A 
ENDBRANCH   9  18
ENDBRANCH   3   9
ENDBRANCH   1   6
BRANCH   1  20
ATOM     20  C   UNL     1       2.223   7.701  18.480  0.00  0.00    +0.000 C 
ATOM     21  O   UNL     1       1.523   7.572  17.471  0.00  0.00    +0.000 OA
ATOM     22  N   UNL     1       3.447   7.077  18.678  0.00  0.00    +0.000 N 
ATOM     23  H   UNL     1       3.886   7.161  19.589  0.00  0.00    +0.000 HD
BRANCH  22  24
ATOM     24  C   UNL     1       4.003   6.158  17.764  0.00  0.00    +0.000 A 
ATOM     25  C   UNL     1       4.815   6.691  16.747  0.00  0.00    +0.000 A 
ATOM     26  C   UNL     1       5.399   5.868  15.790  0.00  0.00    +0.000 A 
ATOM     27  C   UNL     1       5.212   4.497  15.864  0.00  0.00    +0.000 A 
ATOM     28  C   UNL     1       4.403   3.960  16.869  0.00  0.00    +0.000 A 
ATOM     29  C   UNL     1       3.731   4.765  17.822  0.00  0.00    +0.000 A 
BRANCH  29  30
ATOM     30  C   UNL     1       2.844   4.097  18.821  0.00  0.00    +0.000 A 
ATOM     31  C   UNL     1       3.226   3.872  20.153  0.00  0.00    +0.000 A 
ATOM     32  C   UNL     1       2.368   3.277  21.086  0.00  0.00    +0.000 A 
ATOM     33  C   UNL     1       1.116   2.822  20.691  0.00  0.00    +0.000 A 
ATOM     34  C   UNL     1       0.721   2.978  19.369  0.00  0.00    +0.000 A 
ATOM     35  C   UNL     1       1.565   3.622  18.456  0.00  0.00    +0.000 A 
ENDBRANCH  29  30
ENDBRANCH  22  24
ENDBRANCH   1  20
TORSDOF 6
ENDMDL
MODEL 6
REMARK VINA RESULT:      -8.4      2.298      3.805
REMARK  Name = 
REMARK  9 active torsions:
REMARK  status: ('A' for Active; 'I' for Inactive)
REMARK    1  A    between atoms: C_1  and  C_2
REMARK    2  A    between atoms: C_5  and  C_6
REMARK    3  A    between atoms: C_7  and  S_8
REMARK    4  A    between atoms: S_8  and  N_11
REMARK    5  A    between atoms: N_14  and  C_15
REMARK    6  A    between atoms: C_15  and  C_16
REMARK    7  A    between atoms: C_15  and  C_17
REMARK    8  A    between atoms: N_19  and  C_20
REMARK    9  A    between atoms: C_25  and  C_26
REMARK                            x       y       z     vdW  Elec       q    Type
REMARK                         _______ _______ _______ _____ _____    ______ ____
ROOT
ATOM      1  C   UNL     1       1.826   8.673  19.615  0.00  0.00    +0.000 C 
ATOM      2  C   UNL     1       1.503   7.801  20.836  0.00  0.00    +0.000 C 
ENDROOT
BRANCH   1   6
ATOM      3  N   UNL     1       1.202  12.357  20.093  0.00  0.00    +0.000 NA
ATOM      4  C   UNL     1       0.603  11.353  21.010  0.00  0.00    +0.000 C 
ATOM      5  C   UNL     1      -0.074  10.165  20.276  0.00  0.00    +0.000 C 
ATOM      6  N   UNL     1       0.685   9.529  19.177  0.00  0.00    +0.000 NA
ATOM      7  C   UNL     1       1.139  10.619  18.271  0.00  0.00    +0.000 C 
ATOM      8  C   UNL     1       1.921  11.763  18.940  0.00  0.00    +0.000 C 
BRANCH   3   9
ATOM      9  S   UNL     1       0.385  13.808  19.813  0.00  0.00    +0.000 S 
ATOM     10  O   UNL     1      -0.300  14.160  21.043  0.00  0.00    +0.000 OA
ATOM     11  O   UNL     1      -0.348  13.703  18.578  0.00  0.00    +0.000 OA
BRANCH   9  18
ATOM     12  C   UNL     1       2.669  17.265  16.647  0.00  0.00    +0.000 C 
ATOM     13  C   UNL     1       2.714  16.564  17.974  0.00  0.00    +0.000 A 
ATOM     14  C   UNL     1       3.865  16.597  18.762  0.00  0.00    +0.000 A 
ATOM     15  C   UNL     1       3.934  15.849  19.944  0.00  0.00    +0.000 A 
ATOM     16  C   UNL     1       2.863  15.038  20.351  0.00  0.00    +0.000 A 
ATOM     17  C   UNL     1       3.045  14.214  21.596  0.00  0.00    +0.000 C 
ATOM     18  C   UNL     1       1.707  14.993  19.542  0.00  0.00    +0.000 A 
ATOM     19  C   UNL     1       1.630  15.781  18.382  0.00  0.00    +0.000 A 
ENDBRANCH   9  18
ENDBRANCH   3   9
ENDBRANCH   1   6
BRANCH   1  20
ATOM     20  C   UNL     1       2.233   7.726  18.458  0.00  0.00    +0.000 C 
ATOM     21  O   UNL     1       1.501   7.583  17.473  0.00  0.00    +0.000 OA
ATOM     22  N   UNL     1       3.469   7.114  18.619  0.00  0.00    +0.000 N 
ATOM     23  H   UNL     1       3.937   7.208  19.515  0.00  0.00    +0.000 HD
BRANCH  22  24
ATOM     24  C   UNL     1       4.003   6.194  17.694  0.00  0.00    +0.000 A 
ATOM     25  C   UNL     1       4.799   6.723  16.664  0.00  0.00    +0.000 A 
ATOM     26  C   UNL     1       5.361   5.898  15.695  0.00  0.00    +0.000 A 
ATOM     27  C   UNL     1       5.167   4.528  15.770  0.00  0.00    +0.000 A 
ATOM     28  C   UNL     1       4.372   3.994  16.788  0.00  0.00    +0.000 A 
ATOM     29  C   UNL     1       3.722   4.802  17.754  0.00  0.00    +0.000 A 
BRANCH  29  30
ATOM     30  C   UNL     1       2.848   4.137  18.767  0.00  0.00    +0.000 A 
ATOM     31  C   UNL     1       3.259   3.889  20.086  0.00  0.00    +0.000 A 
ATOM     32  C   UNL     1       2.415   3.298  21.034  0.00  0.00    +0.000 A 
ATOM     33  C   UNL     1       1.145   2.871  20.665  0.00  0.00    +0.000 A 
ATOM     34  C   UNL     1       0.720   3.050  19.356  0.00  0.00    +0.000 A 
ATOM     35  C   UNL     1       1.552   3.690  18.429  0.00  0.00    +0.000 A 
ENDBRANCH  29  30
ENDBRANCH  22  24
ENDBRANCH   1  20
TORSDOF 6
ENDMDL
MODEL 7
REMARK VINA RESULT:      -8.4      2.580      4.759
REMARK  Name = 
REMARK  9 active torsions:
REMARK  status: ('A' for Active; 'I' for Inactive)
REMARK    1  A    between atoms: C_1  and  C_2
REMARK    2  A    between atoms: C_5  and  C_6
REMARK    3  A    between atoms: C_7  and  S_8
REMARK    4  A    between atoms: S_8  and  N_11
REMARK    5  A    between atoms: N_14  and  C_15
REMARK    6  A    between atoms: C_15  and  C_16
REMARK    7  A    between atoms: C_15  and  C_17
REMARK    8  A    between atoms: N_19  and  C_20
REMARK    9  A    between atoms: C_25  and  C_26
REMARK                            x       y       z     vdW  Elec       q    Type
REMARK                         _______ _______ _______ _____ _____    ______ ____
ROOT
ATOM      1  C   UNL     1       1.880   8.464  19.718  0.00  0.00    +0.000 C 
ATOM      2  C   UNL     1       1.839   7.989  21.177  0.00  0.00    +0.000 C 
ENDROOT
BRANCH   1   6
ATOM      3  N   UNL     1       1.139  12.156  19.723  0.00  0.00    +0.000 NA
ATOM      4  C   UNL     1       0.698  11.285  20.843  0.00  0.00    +0.000 C 
ATOM      5  C   UNL     1      -0.001   9.979  20.377  0.00  0.00    +0.000 C 
ATOM      6  N   UNL     1       0.657   9.209  19.299  0.00  0.00    +0.000 NA
ATOM      7  C   UNL     1       0.952  10.163  18.196  0.00  0.00    +0.000 C 
ATOM      8  C   UNL     1       1.750  11.418  18.592  0.00  0.00    +0.000 C 
BRANCH   3   9
ATOM      9  S   UNL     1       0.227  13.523  19.335  0.00  0.00    +0.000 S 
ATOM     10  O   UNL     1      -0.586  13.843  20.494  0.00  0.00    +0.000 OA
ATOM     11  O   UNL     1      -0.389  13.327  18.048  0.00  0.00    +0.000 OA
BRANCH   9  18
ATOM     12  C   UNL     1       5.112  15.159  20.142  0.00  0.00    +0.000 C 
ATOM     13  C   UNL     1       3.757  15.493  19.592  0.00  0.00    +0.000 A 
ATOM     14  C   UNL     1       3.420  16.808  19.267  0.00  0.00    +0.000 A 
ATOM     15  C   UNL     1       2.118  17.126  18.860  0.00  0.00    +0.000 A 
ATOM     16  C   UNL     1       1.122  16.139  18.790  0.00  0.00    +0.000 A 
ATOM     17  C   UNL     1      -0.266  16.576  18.409  0.00  0.00    +0.000 C 
ATOM     18  C   UNL     1       1.461  14.814  19.136  0.00  0.00    +0.000 A 
ATOM     19  C   UNL     1       2.779  14.498  19.500  0.00  0.00    +0.000 A 
ENDBRANCH   9  18
ENDBRANCH   3   9
ENDBRANCH   1   6
BRANCH   1  20
ATOM     20  C   UNL     1       2.051   7.210  18.822  0.00  0.00    +0.000 C 
ATOM     21  O   UNL     1       1.889   7.282  17.600  0.00  0.00    +0.000 OA
ATOM     22  N   UNL     1       2.426   6.060  19.504  0.00  0.00    +0.000 N 
ATOM     23  H   UNL     1       2.420   6.080  20.518  0.00  0.00    +0.000 HD
BRANCH  22  24
ATOM     24  C   UNL     1       2.600   4.811  18.874  0.00  0.00    +0.000 A 
ATOM     25  C   UNL     1       1.511   3.923  18.919  0.00  0.00    +0.000 A 
ATOM     26  C   UNL     1       1.588   2.661  18.337  0.00  0.00    +0.000 A 
ATOM     27  C   UNL     1       2.742   2.289  17.668  0.00  0.00    +0.000 A 
ATOM     28  C   UNL     1       3.831   3.164  17.622  0.00  0.00    +0.000 A 
ATOM     29  C   UNL     1       3.823   4.428  18.260  0.00  0.00    +0.000 A 
BRANCH  29  30
ATOM     30  C   UNL     1       5.060   5.265  18.200  0.00  0.00    +0.000 A 
ATOM     31  C   UNL     1       5.264   6.259  17.230  0.00  0.00    +0.000 A 
ATOM     32  C   UNL     1       6.413   7.059  17.210  0.00  0.00    +0.000 A 
ATOM     33  C   UNL     1       7.432   6.837  18.129  0.00  0.00    +0.000 A 
ATOM     34  C   UNL     1       7.293   5.827  19.071  0.00  0.00    +0.000 A 
ATOM     35  C   UNL     1       6.117   5.068  19.116  0.00  0.00    +0.000 A 
ENDBRANCH  29  30
ENDBRANCH  22  24
ENDBRANCH   1  20
TORSDOF 6
ENDMDL
MODEL 8
REMARK VINA RESULT:      -8.4      0.677      1.741
REMARK  Name = 
REMARK  9 active torsions:
REMARK  status: ('A' for Active; 'I' for Inactive)
REMARK    1  A    between atoms: C_1  and  C_2
REMARK    2  A    between atoms: C_5  and  C_6
REMARK    3  A    between atoms: C_7  and  S_8
REMARK    4  A    between atoms: S_8  and  N_11
REMARK    5  A    between atoms: N_14  and  C_15
REMARK    6  A    between atoms: C_15  and  C_16
REMARK    7  A    between atoms: C_15  and  C_17
REMARK    8  A    between atoms: N_19  and  C_20
REMARK    9  A    between atoms: C_25  and  C_26
REMARK                            x       y       z     vdW  Elec       q    Type
REMARK                         _______ _______ _______ _____ _____    ______ ____
ROOT
ATOM      1  C   UNL     1       1.534   8.924  20.048  0.00  0.00    +0.000 C 
ATOM      2  C   UNL     1       0.966   7.895  21.037  0.00  0.00    +0.000 C 
ENDROOT
BRANCH   1   6
ATOM      3  N   UNL     1       0.771  12.330  21.462  0.00  0.00    +0.000 NA
ATOM      4  C   UNL     1      -0.038  11.143  21.843  0.00  0.00    +0.000 C 
ATOM      5  C   UNL     1      -0.487  10.281  20.633  0.00  0.00    +0.000 C 
ATOM      6  N   UNL     1       0.541   9.951  19.621  0.00  0.00    +0.000 NA
ATOM      7  C   UNL     1       1.206  11.227  19.241  0.00  0.00    +0.000 C 
ATOM      8  C   UNL     1       1.774  12.059  20.404  0.00  0.00    +0.000 C 
BRANCH   3   9
ATOM      9  S   UNL     1       0.041  13.853  21.445  0.00  0.00    +0.000 S 
ATOM     10  O   UNL     1       0.303  14.443  20.146  0.00  0.00    +0.000 OA
ATOM     11  O   UNL     1       0.400  14.559  22.649  0.00  0.00    +0.000 OA
BRANCH   9  18
ATOM     12  C   UNL     1      -4.100  12.819  24.442  0.00  0.00    +0.000 C 
ATOM     13  C   UNL     1      -3.576  12.978  23.045  0.00  0.00    +0.000 A 
ATOM     14  C   UNL     1      -4.321  12.543  21.948  0.00  0.00    +0.000 A 
ATOM     15  C   UNL     1      -3.777  12.594  20.658  0.00  0.00    +0.000 A 
ATOM     16  C   UNL     1      -2.470  13.060  20.442  0.00  0.00    +0.000 A 
ATOM     17  C   UNL     1      -1.938  13.019  19.037  0.00  0.00    +0.000 C 
ATOM     18  C   UNL     1      -1.713  13.483  21.556  0.00  0.00    +0.000 A 
ATOM     19  C   UNL     1      -2.283  13.470  22.839  0.00  0.00    +0.000 A 
ENDBRANCH   9  18
ENDBRANCH   3   9
ENDBRANCH   1   6
BRANCH   1  20
ATOM     20  C   UNL     1       2.040   8.148  18.805  0.00  0.00    +0.000 C 
ATOM     21  O   UNL     1       1.514   8.317  17.700  0.00  0.00    +0.000 OA
ATOM     22  N   UNL     1       3.122   7.312  19.046  0.00  0.00    +0.000 N 
ATOM     23  H   UNL     1       3.403   7.158  20.009  0.00  0.00    +0.000 HD
BRANCH  22  24
ATOM     24  C   UNL     1       3.705   6.498  18.054  0.00  0.00    +0.000 A 
ATOM     25  C   UNL     1       4.508   7.144  17.097  0.00  0.00    +0.000 A 
ATOM     26  C   UNL     1       5.118   6.430  16.071  0.00  0.00    +0.000 A 
ATOM     27  C   UNL     1       4.965   5.054  16.014  0.00  0.00    +0.000 A 
ATOM     28  C   UNL     1       4.165   4.404  16.958  0.00  0.00    +0.000 A 
ATOM     29  C   UNL     1       3.468   5.099  17.978  0.00  0.00    +0.000 A 
BRANCH  29  30
ATOM     30  C   UNL     1       2.593   4.317  18.903  0.00  0.00    +0.000 A 
ATOM     31  C   UNL     1       2.714   4.374  20.300  0.00  0.00    +0.000 A 
ATOM     32  C   UNL     1       1.862   3.663  21.154  0.00  0.00    +0.000 A 
ATOM     33  C   UNL     1       0.899   2.812  20.626  0.00  0.00    +0.000 A 
ATOM     34  C   UNL     1       0.782   2.687  19.248  0.00  0.00    +0.000 A 
ATOM     35  C   UNL     1       1.603   3.442  18.403  0.00  0.00    +0.000 A 
ENDBRANCH  29  30
ENDBRANCH  22  24
ENDBRANCH   1  20
TORSDOF 6
ENDMDL
MODEL 9
REMARK VINA RESULT:      -8.3      0.822      1.802
REMARK  Name = 
REMARK  9 active torsions:
REMARK  status: ('A' for Active; 'I' for Inactive)
REMARK    1  A    between atoms: C_1  and  C_2
REMARK    2  A    between atoms: C_5  and  C_6
REMARK    3  A    between atoms: C_7  and  S_8
REMARK    4  A    between atoms: S_8  and  N_11
REMARK    5  A    between atoms: N_14  and  C_15
REMARK    6  A    between atoms: C_15  and  C_16
REMARK    7  A    between atoms: C_15  and  C_17
REMARK    8  A    between atoms: N_19  and  C_20
REMARK    9  A    between atoms: C_25  and  C_26
REMARK                            x       y       z     vdW  Elec       q    Type
REMARK                         _______ _______ _______ _____ _____    ______ ____
ROOT
ATOM      1  C   UNL     1       1.757   8.684  19.683  0.00  0.00    +0.000 C 
ATOM      2  C   UNL     1       1.530   7.794  20.913  0.00  0.00    +0.000 C 
ENDROOT
BRANCH   1   6
ATOM      3  N   UNL     1       0.989  12.363  19.929  0.00  0.00    +0.000 NA
ATOM      4  C   UNL     1       0.511  11.410  20.964  0.00  0.00    +0.000 C 
ATOM      5  C   UNL     1      -0.160  10.139  20.377  0.00  0.00    +0.000 C 
ATOM      6  N   UNL     1       0.546   9.453  19.272  0.00  0.00    +0.000 NA
ATOM      7  C   UNL     1       0.876  10.486  18.255  0.00  0.00    +0.000 C 
ATOM      8  C   UNL     1       1.649  11.712  18.771  0.00  0.00    +0.000 C 
BRANCH   3   9
ATOM      9  S   UNL     1       0.083  13.751  19.606  0.00  0.00    +0.000 S 
ATOM     10  O   UNL     1      -0.526  13.575  18.301  0.00  0.00    +0.000 OA
ATOM     11  O   UNL     1       0.888  14.913  19.881  0.00  0.00    +0.000 OA
BRANCH   9  18
ATOM     12  C   UNL     1      -1.414  14.716  24.508  0.00  0.00    +0.000 C 
ATOM     13  C   UNL     1      -1.803  14.166  23.167  0.00  0.00    +0.000 A 
ATOM     14  C   UNL     1      -2.956  13.394  23.017  0.00  0.00    +0.000 A 
ATOM     15  C   UNL     1      -3.251  12.794  21.787  0.00  0.00    +0.000 A 
ATOM     16  C   UNL     1      -2.390  12.938  20.687  0.00  0.00    +0.000 A 
ATOM     17  C   UNL     1      -2.745  12.206  19.422  0.00  0.00    +0.000 C 
ATOM     18  C   UNL     1      -1.217  13.705  20.847  0.00  0.00    +0.000 A 
ATOM     19  C   UNL     1      -0.952  14.339  22.071  0.00  0.00    +0.000 A 
ENDBRANCH   9  18
ENDBRANCH   3   9
ENDBRANCH   1   6
BRANCH   1  20
ATOM     20  C   UNL     1       2.204   7.766  18.517  0.00  0.00    +0.000 C 
ATOM     21  O   UNL     1       1.544   7.704  17.475  0.00  0.00    +0.000 OA
ATOM     22  N   UNL     1       3.390   7.081  18.743  0.00  0.00    +0.000 N 
ATOM     23  H   UNL     1       3.791   7.112  19.674  0.00  0.00    +0.000 HD
BRANCH  22  24
ATOM     24  C   UNL     1       3.946   6.172  17.819  0.00  0.00    +0.000 A 
ATOM     25  C   UNL     1       4.756   6.716  16.807  0.00  0.00    +0.000 A 
ATOM     26  C   UNL     1       5.340   5.904  15.840  0.00  0.00    +0.000 A 
ATOM     27  C   UNL     1       5.154   4.533  15.900  0.00  0.00    +0.000 A 
ATOM     28  C   UNL     1       4.346   3.984  16.900  0.00  0.00    +0.000 A 
ATOM     29  C   UNL     1       3.675   4.778  17.862  0.00  0.00    +0.000 A 
BRANCH  29  30
ATOM     30  C   UNL     1       2.788   4.098  18.854  0.00  0.00    +0.000 A 
ATOM     31  C   UNL     1       1.497   3.644  18.540  0.00  0.00    +0.000 A 
ATOM     32  C   UNL     1       0.693   2.977  19.472  0.00  0.00    +0.000 A 
ATOM     33  C   UNL     1       1.137   2.804  20.777  0.00  0.00    +0.000 A 
ATOM     34  C   UNL     1       2.386   3.286  21.142  0.00  0.00    +0.000 A 
ATOM     35  C   UNL     1       3.204   3.905  20.190  0.00  0.00    +0.000 A 
ENDBRANCH  29  30
ENDBRANCH  22  24
ENDBRANCH   1  20
TORSDOF 6
ENDMDL
