MODEL 1
REMARK VINA RESULT:      -7.3      0.000      0.000
REMARK  Name = 
REMARK  2 active torsions:
REMARK  status: ('A' for Active; 'I' for Inactive)
REMARK    1  A    between atoms: N_1  and  C_2
REMARK    2  A    between atoms: C_7  and  C_8
REMARK                            x       y       z     vdW  Elec       q    Type
REMARK                         _______ _______ _______ _____ _____    ______ ____
ROOT
ATOM      1  C   UNL     1       5.792   4.577  17.869  0.00  0.00    +0.000 C 
ATOM      2  O   UNL     1       6.528   3.950  18.639  0.00  0.00    +0.000 OA
ATOM      3  N   UNL     1       4.634   5.236  18.343  0.00  0.00    +0.000 N 
ATOM      4  C   UNL     1       3.758   6.114  17.560  0.00  0.00    +0.000 C 
ATOM      5  C   UNL     1       2.294   5.670  17.541  0.00  0.00    +0.000 C 
ATOM      6  C   UNL     1       1.610   5.860  18.895  0.00  0.00    +0.000 C 
ATOM      7  C   UNL     1       1.894   4.705  19.825  0.00  0.00    +0.000 A 
ATOM      8  C   UNL     1       0.821   3.924  20.288  0.00  0.00    +0.000 A 
ATOM      9  C   UNL     1       1.046   2.833  21.124  0.00  0.00    +0.000 A 
ATOM     10  C   UNL     1       2.343   2.512  21.510  0.00  0.00    +0.000 A 
ATOM     11  C   UNL     1       3.415   3.282  21.061  0.00  0.00    +0.000 A 
ATOM     12  C   UNL     1       3.209   4.388  20.215  0.00  0.00    +0.000 A 
ATOM     13  C   UNL     1       4.396   5.225  19.789  0.00  0.00    +0.000 C 
ENDROOT
BRANCH   1  19
ATOM     14  C   UNL     1       7.151   5.542  15.965  0.00  0.00    +0.000 A 
ATOM     15  N   UNL     1       7.548   5.567  14.668  0.00  0.00    +0.000 NA
ATOM     16  C   UNL     1       6.994   4.645  13.855  0.00  0.00    +0.000 A 
ATOM     17  C   UNL     1       6.080   3.710  14.306  0.00  0.00    +0.000 A 
ATOM     18  N   UNL     1       5.675   3.655  15.594  0.00  0.00    +0.000 NA
ATOM     19  C   UNL     1       6.197   4.609  16.418  0.00  0.00    +0.000 A 
BRANCH  14  20
ATOM     20  N   UNL     1       7.697   6.566  16.743  0.00  0.00    +0.000 N 
ATOM     21  H   UNL     1       7.182   6.619  17.617  0.00  0.00    +0.000 HD
ATOM     22  H   UNL     1       7.728   7.443  16.225  0.00  0.00    +0.000 HD
ENDBRANCH  14  20
ENDBRANCH   1  19
TORSDOF 2
ENDMDL
MODEL 2
REMARK VINA RESULT:      -7.1      2.423      5.883
REMARK  Name = 
REMARK  2 active torsions:
REMARK  status: ('A' for Active; 'I' for Inactive)
REMARK    1  A    between atoms: N_1  and  C_2
REMARK    2  A    between atoms: C_7  and  C_8
REMARK                            x       y       z     vdW  Elec       q    Type
REMARK                         _______ _______ _______ _____ _____    ______ ____
ROOT
ATOM      1  C   UNL     1       4.527   3.546  19.076  0.00  0.00    +0.000 C 
ATOM      2  O   UNL     1       5.289   3.105  19.944  0.00  0.00    +0.000 OA
ATOM      3  N   UNL     1       5.029   4.223  17.942  0.00  0.00    +0.000 N 
ATOM      4  C   UNL     1       4.244   4.675  16.788  0.00  0.00    +0.000 C 
ATOM      5  C   UNL     1       4.363   6.175  16.507  0.00  0.00    +0.000 C 
ATOM      6  C   UNL     1       5.743   6.560  15.975  0.00  0.00    +0.000 C 
ATOM      7  C   UNL     1       6.737   6.744  17.095  0.00  0.00    +0.000 A 
ATOM      8  C   UNL     1       7.334   8.003  17.277  0.00  0.00    +0.000 A 
ATOM      9  C   UNL     1       8.234   8.220  18.318  0.00  0.00    +0.000 A 
ATOM     10  C   UNL     1       8.551   7.181  19.186  0.00  0.00    +0.000 A 
ATOM     11  C   UNL     1       7.969   5.926  19.014  0.00  0.00    +0.000 A 
ATOM     12  C   UNL     1       7.057   5.687  17.969  0.00  0.00    +0.000 A 
ATOM     13  C   UNL     1       6.484   4.297  17.789  0.00  0.00    +0.000 C 
ENDROOT
BRANCH   1  19
ATOM     14  C   UNL     1       2.287   4.240  20.026  0.00  0.00    +0.000 A 
ATOM     15  N   UNL     1       0.953   4.065  20.203  0.00  0.00    +0.000 NA
ATOM     16  C   UNL     1       0.411   2.976  19.621  0.00  0.00    +0.000 A 
ATOM     17  C   UNL     1       1.157   2.086  18.870  0.00  0.00    +0.000 A 
ATOM     18  N   UNL     1       2.484   2.241  18.670  0.00  0.00    +0.000 NA
ATOM     19  C   UNL     1       3.053   3.316  19.288  0.00  0.00    +0.000 A 
BRANCH  14  20
ATOM     20  N   UNL     1       2.809   5.339  20.714  0.00  0.00    +0.000 N 
ATOM     21  H   UNL     1       2.435   5.337  21.659  0.00  0.00    +0.000 HD
ATOM     22  H   UNL     1       2.641   6.204  20.203  0.00  0.00    +0.000 HD
ENDBRANCH  14  20
ENDBRANCH   1  19
TORSDOF 2
ENDMDL
MODEL 3
REMARK VINA RESULT:      -7.1      2.515      6.055
REMARK  Name = 
REMARK  2 active torsions:
REMARK  status: ('A' for Active; 'I' for Inactive)
REMARK    1  A    between atoms: N_1  and  C_2
REMARK    2  A    between atoms: C_7  and  C_8
REMARK                            x       y       z     vdW  Elec       q    Type
REMARK                         _______ _______ _______ _____ _____    ______ ____
ROOT
ATOM      1  C   UNL     1       4.512   3.685  19.207  0.00  0.00    +0.000 C 
ATOM      2  O   UNL     1       5.310   3.223  20.031  0.00  0.00    +0.000 OA
ATOM      3  N   UNL     1       4.967   4.365  18.054  0.00  0.00    +0.000 N 
ATOM      4  C   UNL     1       4.133   4.841  16.945  0.00  0.00    +0.000 C 
ATOM      5  C   UNL     1       4.262   6.341  16.672  0.00  0.00    +0.000 C 
ATOM      6  C   UNL     1       5.620   6.709  16.074  0.00  0.00    +0.000 C 
ATOM      7  C   UNL     1       6.672   6.866  17.145  0.00  0.00    +0.000 A 
ATOM      8  C   UNL     1       7.298   8.114  17.307  0.00  0.00    +0.000 A 
ATOM      9  C   UNL     1       8.253   8.306  18.303  0.00  0.00    +0.000 A 
ATOM     10  C   UNL     1       8.596   7.253  19.145  0.00  0.00    +0.000 A 
ATOM     11  C   UNL     1       7.986   6.009  18.991  0.00  0.00    +0.000 A 
ATOM     12  C   UNL     1       7.018   5.795  17.992  0.00  0.00    +0.000 A 
ATOM     13  C   UNL     1       6.414   4.417  17.828  0.00  0.00    +0.000 C 
ENDROOT
BRANCH   1  19
ATOM     14  C   UNL     1       2.377   2.346  18.982  0.00  0.00    +0.000 A 
ATOM     15  N   UNL     1       1.065   2.127  19.250  0.00  0.00    +0.000 NA
ATOM     16  C   UNL     1       0.456   3.038  20.036  0.00  0.00    +0.000 A 
ATOM     17  C   UNL     1       1.121   4.131  20.560  0.00  0.00    +0.000 A 
ATOM     18  N   UNL     1       2.429   4.367  20.318  0.00  0.00    +0.000 NA
ATOM     19  C   UNL     1       3.047   3.477  19.490  0.00  0.00    +0.000 A 
BRANCH  14  20
ATOM     20  N   UNL     1       2.937   1.416  18.102  0.00  0.00    +0.000 N 
ATOM     21  H   UNL     1       2.373   0.571  18.122  0.00  0.00    +0.000 HD
ATOM     22  H   UNL     1       3.922   1.263  18.308  0.00  0.00    +0.000 HD
ENDBRANCH  14  20
ENDBRANCH   1  19
TORSDOF 2
ENDMDL
MODEL 4
REMARK VINA RESULT:      -6.8      1.822      2.181
REMARK  Name = 
REMARK  2 active torsions:
REMARK  status: ('A' for Active; 'I' for Inactive)
REMARK    1  A    between atoms: N_1  and  C_2
REMARK    2  A    between atoms: C_7  and  C_8
REMARK                            x       y       z     vdW  Elec       q    Type
REMARK                         _______ _______ _______ _____ _____    ______ ____
ROOT
ATOM      1  C   UNL     1       4.379   5.552  17.353  0.00  0.00    +0.000 C 
ATOM      2  O   UNL     1       4.487   6.574  18.041  0.00  0.00    +0.000 OA
ATOM      3  N   UNL     1       3.258   4.701  17.483  0.00  0.00    +0.000 N 
ATOM      4  C   UNL     1       2.953   3.539  16.642  0.00  0.00    +0.000 C 
ATOM      5  C   UNL     1       2.791   2.233  17.424  0.00  0.00    +0.000 C 
ATOM      6  C   UNL     1       1.515   2.212  18.265  0.00  0.00    +0.000 C 
ATOM      7  C   UNL     1       1.710   2.918  19.585  0.00  0.00    +0.000 A 
ATOM      8  C   UNL     1       1.558   2.189  20.776  0.00  0.00    +0.000 A 
ATOM      9  C   UNL     1       1.758   2.798  22.013  0.00  0.00    +0.000 A 
ATOM     10  C   UNL     1       2.109   4.142  22.073  0.00  0.00    +0.000 A 
ATOM     11  C   UNL     1       2.259   4.877  20.898  0.00  0.00    +0.000 A 
ATOM     12  C   UNL     1       2.062   4.280  19.639  0.00  0.00    +0.000 A 
ATOM     13  C   UNL     1       2.189   5.126  18.390  0.00  0.00    +0.000 C 
ENDROOT
BRANCH   1  19
ATOM     14  C   UNL     1       6.692   4.680  16.814  0.00  0.00    +0.000 A 
ATOM     15  N   UNL     1       7.693   4.394  15.943  0.00  0.00    +0.000 NA
ATOM     16  C   UNL     1       7.462   4.692  14.649  0.00  0.00    +0.000 A 
ATOM     17  C   UNL     1       6.272   5.244  14.214  0.00  0.00    +0.000 A 
ATOM     18  N   UNL     1       5.255   5.528  15.057  0.00  0.00    +0.000 NA
ATOM     19  C   UNL     1       5.491   5.271  16.375  0.00  0.00    +0.000 A 
BRANCH  14  20
ATOM     20  N   UNL     1       7.015   4.425  18.150  0.00  0.00    +0.000 N 
ATOM     21  H   UNL     1       8.025   4.380  18.236  0.00  0.00    +0.000 HD
ATOM     22  H   UNL     1       6.531   3.595  18.491  0.00  0.00    +0.000 HD
ENDBRANCH  14  20
ENDBRANCH   1  19
TORSDOF 2
ENDMDL
MODEL 5
REMARK VINA RESULT:      -6.7      2.201      6.360
REMARK  Name = 
REMARK  2 active torsions:
REMARK  status: ('A' for Active; 'I' for Inactive)
REMARK    1  A    between atoms: N_1  and  C_2
REMARK    2  A    between atoms: C_7  and  C_8
REMARK                            x       y       z     vdW  Elec       q    Type
REMARK                         _______ _______ _______ _____ _____    ______ ____
ROOT
ATOM      1  C   UNL     1       2.888   4.136  18.210  0.00  0.00    +0.000 C 
ATOM      2  O   UNL     1       2.142   3.795  17.286  0.00  0.00    +0.000 OA
ATOM      3  N   UNL     1       3.925   5.074  18.002  0.00  0.00    +0.000 N 
ATOM      4  C   UNL     1       4.787   5.653  19.038  0.00  0.00    +0.000 C 
ATOM      5  C   UNL     1       6.281   5.433  18.794  0.00  0.00    +0.000 C 
ATOM      6  C   UNL     1       6.805   6.253  17.615  0.00  0.00    +0.000 C 
ATOM      7  C   UNL     1       6.542   5.562  16.299  0.00  0.00    +0.000 A 
ATOM      8  C   UNL     1       7.632   5.188  15.495  0.00  0.00    +0.000 A 
ATOM      9  C   UNL     1       7.430   4.523  14.288  0.00  0.00    +0.000 A 
ATOM     10  C   UNL     1       6.137   4.228  13.869  0.00  0.00    +0.000 A 
ATOM     11  C   UNL     1       5.047   4.597  14.655  0.00  0.00    +0.000 A 
ATOM     12  C   UNL     1       5.230   5.269  15.878  0.00  0.00    +0.000 A 
ATOM     13  C   UNL     1       4.017   5.695  16.678  0.00  0.00    +0.000 C 
ENDROOT
BRANCH   1  19
ATOM     14  C   UNL     1       3.587   2.659  20.142  0.00  0.00    +0.000 A 
ATOM     15  N   UNL     1       3.384   2.109  21.366  0.00  0.00    +0.000 NA
ATOM     16  C   UNL     1       2.232   2.438  21.985  0.00  0.00    +0.000 A 
ATOM     17  C   UNL     1       1.306   3.299  21.424  0.00  0.00    +0.000 A 
ATOM     18  N   UNL     1       1.488   3.868  20.213  0.00  0.00    +0.000 NA
ATOM     19  C   UNL     1       2.629   3.510  19.557  0.00  0.00    +0.000 A 
BRANCH  14  20
ATOM     20  N   UNL     1       4.757   2.223  19.514  0.00  0.00    +0.000 N 
ATOM     21  H   UNL     1       5.064   2.942  18.866  0.00  0.00    +0.000 HD
ATOM     22  H   UNL     1       4.623   1.308  19.086  0.00  0.00    +0.000 HD
ENDBRANCH  14  20
ENDBRANCH   1  19
TORSDOF 2
ENDMDL
MODEL 6
REMARK VINA RESULT:      -6.4      2.246      6.521
REMARK  Name = 
REMARK  2 active torsions:
REMARK  status: ('A' for Active; 'I' for Inactive)
REMARK    1  A    between atoms: N_1  and  C_2
REMARK    2  A    between atoms: C_7  and  C_8
REMARK                            x       y       z     vdW  Elec       q    Type
REMARK                         _______ _______ _______ _____ _____    ______ ____
ROOT
ATOM      1  C   UNL     1       2.799   4.688  18.311  0.00  0.00    +0.000 C 
ATOM      2  O   UNL     1       1.994   4.689  17.373  0.00  0.00    +0.000 OA
ATOM      3  N   UNL     1       4.036   5.365  18.211  0.00  0.00    +0.000 N 
ATOM      4  C   UNL     1       5.013   5.545  19.290  0.00  0.00    +0.000 C 
ATOM      5  C   UNL     1       6.407   5.008  18.960  0.00  0.00    +0.000 C 
ATOM      6  C   UNL     1       7.120   5.849  17.902  0.00  0.00    +0.000 C 
ATOM      7  C   UNL     1       6.697   5.459  16.507  0.00  0.00    +0.000 A 
ATOM      8  C   UNL     1       7.662   4.960  15.616  0.00  0.00    +0.000 A 
ATOM      9  C   UNL     1       7.305   4.562  14.330  0.00  0.00    +0.000 A 
ATOM     10  C   UNL     1       5.980   4.661  13.918  0.00  0.00    +0.000 A 
ATOM     11  C   UNL     1       5.013   5.158  14.791  0.00  0.00    +0.000 A 
ATOM     12  C   UNL     1       5.354   5.565  16.095  0.00  0.00    +0.000 A 
ATOM     13  C   UNL     1       4.283   6.143  16.994  0.00  0.00    +0.000 C 
ENDROOT
BRANCH   1  19
ATOM     14  C   UNL     1       2.075   2.570  19.491  0.00  0.00    +0.000 A 
ATOM     15  N   UNL     1       1.733   1.875  20.606  0.00  0.00    +0.000 NA
ATOM     16  C   UNL     1       1.731   2.566  21.763  0.00  0.00    +0.000 A 
ATOM     17  C   UNL     1       2.071   3.905  21.831  0.00  0.00    +0.000 A 
ATOM     18  N   UNL     1       2.425   4.618  20.740  0.00  0.00    +0.000 NA
ATOM     19  C   UNL     1       2.391   3.942  19.555  0.00  0.00    +0.000 A 
BRANCH  14  20
ATOM     20  N   UNL     1       1.985   1.826  18.312  0.00  0.00    +0.000 N 
ATOM     21  H   UNL     1       2.860   1.917  17.804  0.00  0.00    +0.000 HD
ATOM     22  H   UNL     1       1.162   2.092  17.773  0.00  0.00    +0.000 HD
ENDBRANCH  14  20
ENDBRANCH   1  19
TORSDOF 2
ENDMDL
MODEL 7
REMARK VINA RESULT:      -6.1      4.491      6.572
REMARK  Name = 
REMARK  2 active torsions:
REMARK  status: ('A' for Active; 'I' for Inactive)
REMARK    1  A    between atoms: N_1  and  C_2
REMARK    2  A    between atoms: C_7  and  C_8
REMARK                            x       y       z     vdW  Elec       q    Type
REMARK                         _______ _______ _______ _____ _____    ______ ____
ROOT
ATOM      1  C   UNL     1       1.747   9.015  18.288  0.00  0.00    +0.000 C 
ATOM      2  O   UNL     1       2.173   8.930  17.131  0.00  0.00    +0.000 OA
ATOM      3  N   UNL     1       2.074   8.041  19.259  0.00  0.00    +0.000 N 
ATOM      4  C   UNL     1       1.741   8.098  20.686  0.00  0.00    +0.000 C 
ATOM      5  C   UNL     1       0.939   6.893  21.183  0.00  0.00    +0.000 C 
ATOM      6  C   UNL     1       1.776   5.613  21.223  0.00  0.00    +0.000 C 
ATOM      7  C   UNL     1       1.836   4.949  19.869  0.00  0.00    +0.000 A 
ATOM      8  C   UNL     1       1.311   3.654  19.722  0.00  0.00    +0.000 A 
ATOM      9  C   UNL     1       1.323   3.019  18.482  0.00  0.00    +0.000 A 
ATOM     10  C   UNL     1       1.861   3.670  17.376  0.00  0.00    +0.000 A 
ATOM     11  C   UNL     1       2.388   4.953  17.511  0.00  0.00    +0.000 A 
ATOM     12  C   UNL     1       2.386   5.612  18.755  0.00  0.00    +0.000 A 
ATOM     13  C   UNL     1       3.011   6.985  18.866  0.00  0.00    +0.000 C 
ENDROOT
BRANCH   1  19
ATOM     14  C   UNL     1       1.316  11.508  18.302  0.00  0.00    +0.000 A 
ATOM     15  N   UNL     1       0.535  12.589  18.554  0.00  0.00    +0.000 NA
ATOM     16  C   UNL     1      -0.677  12.338  19.088  0.00  0.00    +0.000 A 
ATOM     17  C   UNL     1      -1.121  11.056  19.357  0.00  0.00    +0.000 A 
ATOM     18  N   UNL     1      -0.369   9.963  19.106  0.00  0.00    +0.000 NA
ATOM     19  C   UNL     1       0.877  10.204  18.605  0.00  0.00    +0.000 A 
BRANCH  14  20
ATOM     20  N   UNL     1       2.589  11.830  17.823  0.00  0.00    +0.000 N 
ATOM     21  H   UNL     1       3.276  11.551  18.516  0.00  0.00    +0.000 HD
ATOM     22  H   UNL     1       2.642  12.812  17.556  0.00  0.00    +0.000 HD
ENDBRANCH  14  20
ENDBRANCH   1  19
TORSDOF 2
ENDMDL
MODEL 8
REMARK VINA RESULT:      -6.1      1.019      1.067
REMARK  Name = 
REMARK  2 active torsions:
REMARK  status: ('A' for Active; 'I' for Inactive)
REMARK    1  A    between atoms: N_1  and  C_2
REMARK    2  A    between atoms: C_7  and  C_8
REMARK                            x       y       z     vdW  Elec       q    Type
REMARK                         _______ _______ _______ _____ _____    ______ ____
ROOT
ATOM      1  C   UNL     1       5.229   5.252  18.289  0.00  0.00    +0.000 C 
ATOM      2  O   UNL     1       5.931   5.389  19.296  0.00  0.00    +0.000 OA
ATOM      3  N   UNL     1       3.818   5.295  18.372  0.00  0.00    +0.000 N 
ATOM      4  C   UNL     1       2.884   5.276  17.241  0.00  0.00    +0.000 C 
ATOM      5  C   UNL     1       1.865   4.136  17.299  0.00  0.00    +0.000 C 
ATOM      6  C   UNL     1       0.832   4.334  18.408  0.00  0.00    +0.000 C 
ATOM      7  C   UNL     1       1.356   3.863  19.743  0.00  0.00    +0.000 A 
ATOM      8  C   UNL     1       0.693   2.816  20.404  0.00  0.00    +0.000 A 
ATOM      9  C   UNL     1       1.163   2.335  21.624  0.00  0.00    +0.000 A 
ATOM     10  C   UNL     1       2.299   2.896  22.198  0.00  0.00    +0.000 A 
ATOM     11  C   UNL     1       2.964   3.938  21.553  0.00  0.00    +0.000 A 
ATOM     12  C   UNL     1       2.505   4.438  20.320  0.00  0.00    +0.000 A 
ATOM     13  C   UNL     1       3.228   5.602  19.678  0.00  0.00    +0.000 C 
ENDROOT
BRANCH   1  19
ATOM     14  C   UNL     1       6.926   5.972  16.555  0.00  0.00    +0.000 A 
ATOM     15  N   UNL     1       7.605   5.790  15.395  0.00  0.00    +0.000 NA
ATOM     16  C   UNL     1       7.305   4.678  14.694  0.00  0.00    +0.000 A 
ATOM     17  C   UNL     1       6.369   3.757  15.127  0.00  0.00    +0.000 A 
ATOM     18  N   UNL     1       5.686   3.907  16.283  0.00  0.00    +0.000 NA
ATOM     19  C   UNL     1       5.950   5.049  16.981  0.00  0.00    +0.000 A 
BRANCH  14  20
ATOM     20  N   UNL     1       7.220   7.176  17.200  0.00  0.00    +0.000 N 
ATOM     21  H   UNL     1       6.620   7.902  16.819  0.00  0.00    +0.000 HD
ATOM     22  H   UNL     1       8.215   7.388  17.145  0.00  0.00    +0.000 HD
ENDBRANCH  14  20
ENDBRANCH   1  19
TORSDOF 2
ENDMDL
MODEL 9
REMARK VINA RESULT:      -6.0      2.149      6.441
REMARK  Name = 
REMARK  2 active torsions:
REMARK  status: ('A' for Active; 'I' for Inactive)
REMARK    1  A    between atoms: N_1  and  C_2
REMARK    2  A    between atoms: C_7  and  C_8
REMARK                            x       y       z     vdW  Elec       q    Type
REMARK                         _______ _______ _______ _____ _____    ______ ____
ROOT
ATOM      1  C   UNL     1       3.038   4.677  18.340  0.00  0.00    +0.000 C 
ATOM      2  O   UNL     1       2.179   4.662  17.451  0.00  0.00    +0.000 OA
ATOM      3  N   UNL     1       4.259   5.366  18.162  0.00  0.00    +0.000 N 
ATOM      4  C   UNL     1       5.296   5.566  19.180  0.00  0.00    +0.000 C 
ATOM      5  C   UNL     1       6.674   5.041  18.772  0.00  0.00    +0.000 C 
ATOM      6  C   UNL     1       7.314   5.882  17.667  0.00  0.00    +0.000 C 
ATOM      7  C   UNL     1       6.813   5.477  16.302  0.00  0.00    +0.000 A 
ATOM      8  C   UNL     1       7.730   4.982  15.359  0.00  0.00    +0.000 A 
ATOM      9  C   UNL     1       7.301   4.570  14.099  0.00  0.00    +0.000 A 
ATOM     10  C   UNL     1       5.953   4.652  13.766  0.00  0.00    +0.000 A 
ATOM     11  C   UNL     1       5.035   5.145  14.691  0.00  0.00    +0.000 A 
ATOM     12  C   UNL     1       5.447   5.565  15.970  0.00  0.00    +0.000 A 
ATOM     13  C   UNL     1       4.424   6.138  16.927  0.00  0.00    +0.000 C 
ENDROOT
BRANCH   1  19
ATOM     14  C   UNL     1       2.208   4.629  20.730  0.00  0.00    +0.000 A 
ATOM     15  N   UNL     1       1.883   3.974  21.873  0.00  0.00    +0.000 NA
ATOM     16  C   UNL     1       2.054   2.637  21.866  0.00  0.00    +0.000 A 
ATOM     17  C   UNL     1       2.520   1.953  20.758  0.00  0.00    +0.000 A 
ATOM     18  N   UNL     1       2.841   2.578  19.604  0.00  0.00    +0.000 NA
ATOM     19  C   UNL     1       2.713   3.936  19.611  0.00  0.00    +0.000 A 
BRANCH  14  20
ATOM     20  N   UNL     1       2.086   6.018  20.819  0.00  0.00    +0.000 N 
ATOM     21  H   UNL     1       3.015   6.420  20.899  0.00  0.00    +0.000 HD
ATOM     22  H   UNL     1       1.452   6.282  21.571  0.00  0.00    +0.000 HD
ENDBRANCH  14  20
ENDBRANCH   1  19
TORSDOF 2
ENDMDL
