MODEL 1
REMARK VINA RESULT:      -8.7      0.000      0.000
REMARK  Name = 
REMARK  4 active torsions:
REMARK  status: ('A' for Active; 'I' for Inactive)
REMARK    1  A    between atoms: C_1  and  C_2
REMARK    2  A    between atoms: C_2  and  C_3
REMARK    3  A    between atoms: N_6  and  C_7
REMARK    4  A    between atoms: N_16  and  C_17
REMARK                            x       y       z     vdW  Elec       q    Type
REMARK                         _______ _______ _______ _____ _____    ______ ____
ROOT
ATOM      1  C   UNL     1       3.015   2.426  21.377  0.00  0.00    +0.000 C 
ATOM      2  C   UNL     1       2.873   3.124  20.026  0.00  0.00    +0.000 C 
ATOM      3  C   UNL     1       2.040   2.296  19.048  0.00  0.00    +0.000 C 
ATOM      4  C   UNL     1       4.265   3.402  19.416  0.00  0.00    +0.000 C 
ATOM      5  O   UNL     1       5.069   2.522  19.138  0.00  0.00    +0.000 OA
ATOM      6  N   UNL     1       4.402   4.800  19.299  0.00  0.00    +0.000 N 
ATOM      7  C   UNL     1       3.226   5.449  19.733  0.00  0.00    +0.000 A 
ATOM      8  N   UNL     1       2.946   6.758  19.676  0.00  0.00    +0.000 NA
ATOM      9  C   UNL     1       1.755   7.128  20.166  0.00  0.00    +0.000 A 
ATOM     10  N   UNL     1       1.434   8.481  20.080  0.00  0.00    +0.000 N 
ATOM     11  N   UNL     1       0.849   6.266  20.670  0.00  0.00    +0.000 NA
ATOM     12  C   UNL     1       1.139   4.957  20.650  0.00  0.00    +0.000 A 
ATOM     13  C   UNL     1       2.331   4.507  20.179  0.00  0.00    +0.000 A 
ATOM     14  H   UNL     1       2.112   8.983  19.529  0.00  0.00    +0.000 HD
ENDROOT
BRANCH   6  15
ATOM     15  C   UNL     1       5.534   5.488  18.792  0.00  0.00    +0.000 A 
ATOM     16  C   UNL     1       5.450   6.203  17.587  0.00  0.00    +0.000 A 
ATOM     17  C   UNL     1       6.547   6.910  17.080  0.00  0.00    +0.000 A 
ATOM     18  C   UNL     1       7.761   6.898  17.760  0.00  0.00    +0.000 A 
ATOM     19  C   UNL     1       7.878   6.171  18.938  0.00  0.00    +0.000 A 
ATOM     20  C   UNL     1       6.776   5.476  19.447  0.00  0.00    +0.000 A 
ENDBRANCH   6  15
BRANCH  10  21
ATOM     21  C   UNL     1       0.656   9.255  20.950  0.00  0.00    +0.000 A 
ATOM     22  C   UNL     1      -0.082  10.365  20.516  0.00  0.00    +0.000 A 
ATOM     23  C   UNL     1      -0.818  11.139  21.417  0.00  0.00    +0.000 A 
ATOM     24  C   UNL     1      -0.808  10.826  22.772  0.00  0.00    +0.000 A 
ATOM     25  C   UNL     1      -0.071   9.733  23.224  0.00  0.00    +0.000 A 
ATOM     26  C   UNL     1       0.648   8.949  22.317  0.00  0.00    +0.000 A 
ENDBRANCH  10  21
TORSDOF 2
ENDMDL
MODEL 2
REMARK VINA RESULT:      -8.7      0.089      1.362
REMARK  Name = 
REMARK  4 active torsions:
REMARK  status: ('A' for Active; 'I' for Inactive)
REMARK    1  A    between atoms: C_1  and  C_2
REMARK    2  A    between atoms: C_2  and  C_3
REMARK    3  A    between atoms: N_6  and  C_7
REMARK    4  A    between atoms: N_16  and  C_17
REMARK                            x       y       z     vdW  Elec       q    Type
REMARK                         _______ _______ _______ _____ _____    ______ ____
ROOT
ATOM      1  C   UNL     1       2.957   2.455  21.347  0.00  0.00    +0.000 C 
ATOM      2  C   UNL     1       2.800   3.168  20.005  0.00  0.00    +0.000 C 
ATOM      3  C   UNL     1       1.935   2.363  19.036  0.00  0.00    +0.000 C 
ATOM      4  C   UNL     1       4.185   3.429  19.371  0.00  0.00    +0.000 C 
ATOM      5  O   UNL     1       4.969   2.539  19.069  0.00  0.00    +0.000 OA
ATOM      6  N   UNL     1       4.342   4.826  19.264  0.00  0.00    +0.000 N 
ATOM      7  C   UNL     1       3.186   5.490  19.726  0.00  0.00    +0.000 A 
ATOM      8  N   UNL     1       2.927   6.803  19.686  0.00  0.00    +0.000 NA
ATOM      9  C   UNL     1       1.751   7.188  20.203  0.00  0.00    +0.000 A 
ATOM     10  N   UNL     1       1.450   8.547  20.135  0.00  0.00    +0.000 N 
ATOM     11  N   UNL     1       0.841   6.336  20.717  0.00  0.00    +0.000 NA
ATOM     12  C   UNL     1       1.109   5.023  20.679  0.00  0.00    +0.000 A 
ATOM     13  C   UNL     1       2.284   4.558  20.180  0.00  0.00    +0.000 A 
ATOM     14  H   UNL     1       2.126   9.043  19.576  0.00  0.00    +0.000 HD
ENDROOT
BRANCH   6  15
ATOM     15  C   UNL     1       5.475   5.501  18.741  0.00  0.00    +0.000 A 
ATOM     16  C   UNL     1       6.695   5.485  19.434  0.00  0.00    +0.000 A 
ATOM     17  C   UNL     1       7.832   6.122  18.923  0.00  0.00    +0.000 A 
ATOM     18  C   UNL     1       7.766   6.811  17.716  0.00  0.00    +0.000 A 
ATOM     19  C   UNL     1       6.560   6.868  17.027  0.00  0.00    +0.000 A 
ATOM     20  C   UNL     1       5.429   6.220  17.534  0.00  0.00    +0.000 A 
ENDBRANCH   6  15
BRANCH  10  21
ATOM     21  C   UNL     1       0.702   9.325  21.028  0.00  0.00    +0.000 A 
ATOM     22  C   UNL     1       0.599   9.019  22.392  0.00  0.00    +0.000 A 
ATOM     23  C   UNL     1      -0.185   9.795  23.248  0.00  0.00    +0.000 A 
ATOM     24  C   UNL     1      -0.899  10.878  22.746  0.00  0.00    +0.000 A 
ATOM     25  C   UNL     1      -0.818  11.191  21.390  0.00  0.00    +0.000 A 
ATOM     26  C   UNL     1      -0.016  10.424  20.541  0.00  0.00    +0.000 A 
ENDBRANCH  10  21
TORSDOF 2
ENDMDL
MODEL 3
REMARK VINA RESULT:      -8.3      3.016      7.303
REMARK  Name = 
REMARK  4 active torsions:
REMARK  status: ('A' for Active; 'I' for Inactive)
REMARK    1  A    between atoms: C_1  and  C_2
REMARK    2  A    between atoms: C_2  and  C_3
REMARK    3  A    between atoms: N_6  and  C_7
REMARK    4  A    between atoms: N_16  and  C_17
REMARK                            x       y       z     vdW  Elec       q    Type
REMARK                         _______ _______ _______ _____ _____    ______ ____
ROOT
ATOM      1  C   UNL     1       1.301   2.285  19.088  0.00  0.00    +0.000 C 
ATOM      2  C   UNL     1       2.397   3.236  19.568  0.00  0.00    +0.000 C 
ATOM      3  C   UNL     1       3.155   2.663  20.765  0.00  0.00    +0.000 C 
ATOM      4  C   UNL     1       1.792   4.607  19.943  0.00  0.00    +0.000 C 
ATOM      5  O   UNL     1       0.954   4.758  20.822  0.00  0.00    +0.000 OA
ATOM      6  N   UNL     1       2.356   5.566  19.078  0.00  0.00    +0.000 N 
ATOM      7  C   UNL     1       3.291   4.961  18.211  0.00  0.00    +0.000 A 
ATOM      8  N   UNL     1       4.096   5.564  17.327  0.00  0.00    +0.000 NA
ATOM      9  C   UNL     1       4.893   4.759  16.610  0.00  0.00    +0.000 A 
ATOM     10  N   UNL     1       5.762   5.374  15.712  0.00  0.00    +0.000 N 
ATOM     11  N   UNL     1       4.936   3.419  16.757  0.00  0.00    +0.000 NA
ATOM     12  C   UNL     1       4.163   2.860  17.699  0.00  0.00    +0.000 A 
ATOM     13  C   UNL     1       3.322   3.609  18.457  0.00  0.00    +0.000 A 
ATOM     14  H   UNL     1       5.756   6.375  15.825  0.00  0.00    +0.000 HD
ENDROOT
BRANCH   6  15
ATOM     15  C   UNL     1       2.071   6.956  19.073  0.00  0.00    +0.000 A 
ATOM     16  C   UNL     1       2.133   7.690  17.879  0.00  0.00    +0.000 A 
ATOM     17  C   UNL     1       1.831   9.057  17.847  0.00  0.00    +0.000 A 
ATOM     18  C   UNL     1       1.483   9.724  19.017  0.00  0.00    +0.000 A 
ATOM     19  C   UNL     1       1.447   9.026  20.218  0.00  0.00    +0.000 A 
ATOM     20  C   UNL     1       1.737   7.658  20.244  0.00  0.00    +0.000 A 
ENDBRANCH   6  15
BRANCH  10  21
ATOM     21  C   UNL     1       6.233   4.899  14.481  0.00  0.00    +0.000 A 
ATOM     22  C   UNL     1       7.407   5.382  13.886  0.00  0.00    +0.000 A 
ATOM     23  C   UNL     1       7.830   4.913  12.640  0.00  0.00    +0.000 A 
ATOM     24  C   UNL     1       7.069   3.968  11.959  0.00  0.00    +0.000 A 
ATOM     25  C   UNL     1       5.894   3.484  12.530  0.00  0.00    +0.000 A 
ATOM     26  C   UNL     1       5.485   3.941  13.785  0.00  0.00    +0.000 A 
ENDBRANCH  10  21
TORSDOF 2
ENDMDL
MODEL 4
REMARK VINA RESULT:      -8.2      3.036      7.369
REMARK  Name = 
REMARK  4 active torsions:
REMARK  status: ('A' for Active; 'I' for Inactive)
REMARK    1  A    between atoms: C_1  and  C_2
REMARK    2  A    between atoms: C_2  and  C_3
REMARK    3  A    between atoms: N_6  and  C_7
REMARK    4  A    between atoms: N_16  and  C_17
REMARK                            x       y       z     vdW  Elec       q    Type
REMARK                         _______ _______ _______ _____ _____    ______ ____
ROOT
ATOM      1  C   UNL     1       1.302   2.323  19.117  0.00  0.00    +0.000 C 
ATOM      2  C   UNL     1       2.399   3.286  19.569  0.00  0.00    +0.000 C 
ATOM      3  C   UNL     1       3.181   2.731  20.759  0.00  0.00    +0.000 C 
ATOM      4  C   UNL     1       1.791   4.657  19.941  0.00  0.00    +0.000 C 
ATOM      5  O   UNL     1       0.967   4.811  20.833  0.00  0.00    +0.000 OA
ATOM      6  N   UNL     1       2.334   5.611  19.057  0.00  0.00    +0.000 N 
ATOM      7  C   UNL     1       3.258   5.003  18.181  0.00  0.00    +0.000 A 
ATOM      8  N   UNL     1       4.043   5.603  17.277  0.00  0.00    +0.000 NA
ATOM      9  C   UNL     1       4.834   4.797  16.555  0.00  0.00    +0.000 A 
ATOM     10  N   UNL     1       5.684   5.409  15.636  0.00  0.00    +0.000 N 
ATOM     11  N   UNL     1       4.889   3.459  16.715  0.00  0.00    +0.000 NA
ATOM     12  C   UNL     1       4.136   2.904  17.675  0.00  0.00    +0.000 A 
ATOM     13  C   UNL     1       3.302   3.655  18.439  0.00  0.00    +0.000 A 
ATOM     14  H   UNL     1       5.672   6.411  15.739  0.00  0.00    +0.000 HD
ENDROOT
BRANCH   6  15
ATOM     15  C   UNL     1       2.039   6.999  19.044  0.00  0.00    +0.000 A 
ATOM     16  C   UNL     1       1.711   7.668  20.233  0.00  0.00    +0.000 A 
ATOM     17  C   UNL     1       1.442   9.042  20.246  0.00  0.00    +0.000 A 
ATOM     18  C   UNL     1       1.472   9.772  19.063  0.00  0.00    +0.000 A 
ATOM     19  C   UNL     1       1.764   9.126  17.867  0.00  0.00    +0.000 A 
ATOM     20  C   UNL     1       2.044   7.756  17.860  0.00  0.00    +0.000 A 
ENDBRANCH   6  15
BRANCH  10  21
ATOM     21  C   UNL     1       6.138   4.924  14.402  0.00  0.00    +0.000 A 
ATOM     22  C   UNL     1       5.457   3.929  13.687  0.00  0.00    +0.000 A 
ATOM     23  C   UNL     1       5.956   3.442  12.477  0.00  0.00    +0.000 A 
ATOM     24  C   UNL     1       7.159   3.928  11.976  0.00  0.00    +0.000 A 
ATOM     25  C   UNL     1       7.856   4.909  12.679  0.00  0.00    +0.000 A 
ATOM     26  C   UNL     1       7.343   5.409  13.879  0.00  0.00    +0.000 A 
ENDBRANCH  10  21
TORSDOF 2
ENDMDL
MODEL 5
REMARK VINA RESULT:      -8.0      2.103      4.612
REMARK  Name = 
REMARK  4 active torsions:
REMARK  status: ('A' for Active; 'I' for Inactive)
REMARK    1  A    between atoms: C_1  and  C_2
REMARK    2  A    between atoms: C_2  and  C_3
REMARK    3  A    between atoms: N_6  and  C_7
REMARK    4  A    between atoms: N_16  and  C_17
REMARK                            x       y       z     vdW  Elec       q    Type
REMARK                         _______ _______ _______ _____ _____    ______ ____
ROOT
ATOM      1  C   UNL     1       4.983   5.905  15.654  0.00  0.00    +0.000 C 
ATOM      2  C   UNL     1       5.020   6.171  17.158  0.00  0.00    +0.000 C 
ATOM      3  C   UNL     1       6.402   6.637  17.614  0.00  0.00    +0.000 C 
ATOM      4  C   UNL     1       4.618   4.899  17.938  0.00  0.00    +0.000 C 
ATOM      5  O   UNL     1       5.235   3.844  17.875  0.00  0.00    +0.000 OA
ATOM      6  N   UNL     1       3.442   5.200  18.655  0.00  0.00    +0.000 N 
ATOM      7  C   UNL     1       3.068   6.545  18.449  0.00  0.00    +0.000 A 
ATOM      8  N   UNL     1       2.072   7.217  19.040  0.00  0.00    +0.000 NA
ATOM      9  C   UNL     1       1.915   8.493  18.663  0.00  0.00    +0.000 A 
ATOM     10  N   UNL     1       0.906   9.216  19.295  0.00  0.00    +0.000 N 
ATOM     11  N   UNL     1       2.708   9.114  17.765  0.00  0.00    +0.000 NA
ATOM     12  C   UNL     1       3.735   8.428  17.245  0.00  0.00    +0.000 A 
ATOM     13  C   UNL     1       3.951   7.127  17.571  0.00  0.00    +0.000 A 
ATOM     14  H   UNL     1       0.509   8.695  20.061  0.00  0.00    +0.000 HD
ENDROOT
BRANCH   6  15
ATOM     15  C   UNL     1       2.728   4.311  19.499  0.00  0.00    +0.000 A 
ATOM     16  C   UNL     1       1.818   3.391  18.956  0.00  0.00    +0.000 A 
ATOM     17  C   UNL     1       1.122   2.487  19.768  0.00  0.00    +0.000 A 
ATOM     18  C   UNL     1       1.306   2.500  21.146  0.00  0.00    +0.000 A 
ATOM     19  C   UNL     1       2.178   3.423  21.712  0.00  0.00    +0.000 A 
ATOM     20  C   UNL     1       2.881   4.316  20.896  0.00  0.00    +0.000 A 
ENDBRANCH   6  15
BRANCH  10  21
ATOM     21  C   UNL     1       0.115  10.251  18.783  0.00  0.00    +0.000 A 
ATOM     22  C   UNL     1       0.363  11.601  19.067  0.00  0.00    +0.000 A 
ATOM     23  C   UNL     1      -0.468  12.608  18.569  0.00  0.00    +0.000 A 
ATOM     24  C   UNL     1      -1.576  12.276  17.797  0.00  0.00    +0.000 A 
ATOM     25  C   UNL     1      -1.846  10.938  17.514  0.00  0.00    +0.000 A 
ATOM     26  C   UNL     1      -1.001   9.936  17.997  0.00  0.00    +0.000 A 
ENDBRANCH  10  21
TORSDOF 2
ENDMDL
MODEL 6
REMARK VINA RESULT:      -7.9      2.094      4.677
REMARK  Name = 
REMARK  4 active torsions:
REMARK  status: ('A' for Active; 'I' for Inactive)
REMARK    1  A    between atoms: C_1  and  C_2
REMARK    2  A    between atoms: C_2  and  C_3
REMARK    3  A    between atoms: N_6  and  C_7
REMARK    4  A    between atoms: N_16  and  C_17
REMARK                            x       y       z     vdW  Elec       q    Type
REMARK                         _______ _______ _______ _____ _____    ______ ____
ROOT
ATOM      1  C   UNL     1       4.948   6.028  15.609  0.00  0.00    +0.000 C 
ATOM      2  C   UNL     1       4.988   6.236  17.123  0.00  0.00    +0.000 C 
ATOM      3  C   UNL     1       6.375   6.666  17.596  0.00  0.00    +0.000 C 
ATOM      4  C   UNL     1       4.568   4.941  17.853  0.00  0.00    +0.000 C 
ATOM      5  O   UNL     1       5.171   3.881  17.750  0.00  0.00    +0.000 OA
ATOM      6  N   UNL     1       3.396   5.230  18.581  0.00  0.00    +0.000 N 
ATOM      7  C   UNL     1       3.040   6.587  18.426  0.00  0.00    +0.000 A 
ATOM      8  N   UNL     1       2.052   7.248  19.042  0.00  0.00    +0.000 NA
ATOM      9  C   UNL     1       1.911   8.539  18.714  0.00  0.00    +0.000 A 
ATOM     10  N   UNL     1       0.912   9.251  19.373  0.00  0.00    +0.000 N 
ATOM     11  N   UNL     1       2.713   9.184  17.841  0.00  0.00    +0.000 NA
ATOM     12  C   UNL     1       3.732   8.504  17.295  0.00  0.00    +0.000 A 
ATOM     13  C   UNL     1       3.931   7.190  17.572  0.00  0.00    +0.000 A 
ATOM     14  H   UNL     1       0.507   8.706  20.118  0.00  0.00    +0.000 HD
ENDROOT
BRANCH   6  15
ATOM     15  C   UNL     1       2.670   4.318  19.390  0.00  0.00    +0.000 A 
ATOM     16  C   UNL     1       2.882   4.272  20.776  0.00  0.00    +0.000 A 
ATOM     17  C   UNL     1       2.158   3.398  21.596  0.00  0.00    +0.000 A 
ATOM     18  C   UNL     1       1.221   2.533  21.042  0.00  0.00    +0.000 A 
ATOM     19  C   UNL     1       1.016   2.537  19.668  0.00  0.00    +0.000 A 
ATOM     20  C   UNL     1       1.732   3.420  18.853  0.00  0.00    +0.000 A 
ENDBRANCH   6  15
BRANCH  10  21
ATOM     21  C   UNL     1       0.134  10.316  18.900  0.00  0.00    +0.000 A 
ATOM     22  C   UNL     1      -1.008  10.122  18.110  0.00  0.00    +0.000 A 
ATOM     23  C   UNL     1      -1.740  11.208  17.624  0.00  0.00    +0.000 A 
ATOM     24  C   UNL     1      -1.325  12.506  17.901  0.00  0.00    +0.000 A 
ATOM     25  C   UNL     1      -0.186  12.718  18.675  0.00  0.00    +0.000 A 
ATOM     26  C   UNL     1       0.532  11.629  19.177  0.00  0.00    +0.000 A 
ENDBRANCH  10  21
TORSDOF 2
ENDMDL
MODEL 7
REMARK VINA RESULT:      -7.8      1.500      1.927
REMARK  Name = 
REMARK  4 active torsions:
REMARK  status: ('A' for Active; 'I' for Inactive)
REMARK    1  A    between atoms: C_1  and  C_2
REMARK    2  A    between atoms: C_2  and  C_3
REMARK    3  A    between atoms: N_6  and  C_7
REMARK    4  A    between atoms: N_16  and  C_17
REMARK                            x       y       z     vdW  Elec       q    Type
REMARK                         _______ _______ _______ _____ _____    ______ ____
ROOT
ATOM      1  C   UNL     1       2.805   2.560  21.610  0.00  0.00    +0.000 C 
ATOM      2  C   UNL     1       2.448   2.883  20.160  0.00  0.00    +0.000 C 
ATOM      3  C   UNL     1       1.287   2.025  19.661  0.00  0.00    +0.000 C 
ATOM      4  C   UNL     1       3.677   2.677  19.247  0.00  0.00    +0.000 C 
ATOM      5  O   UNL     1       4.245   1.601  19.110  0.00  0.00    +0.000 OA
ATOM      6  N   UNL     1       3.994   3.927  18.679  0.00  0.00    +0.000 N 
ATOM      7  C   UNL     1       3.072   4.909  19.101  0.00  0.00    +0.000 A 
ATOM      8  N   UNL     1       2.990   6.182  18.694  0.00  0.00    +0.000 NA
ATOM      9  C   UNL     1       2.025   6.921  19.258  0.00  0.00    +0.000 A 
ATOM     10  N   UNL     1       1.902   8.237  18.818  0.00  0.00    +0.000 N 
ATOM     11  N   UNL     1       1.146   6.444  20.164  0.00  0.00    +0.000 NA
ATOM     12  C   UNL     1       1.219   5.148  20.496  0.00  0.00    +0.000 A 
ATOM     13  C   UNL     1       2.178   4.340  19.975  0.00  0.00    +0.000 A 
ATOM     14  H   UNL     1       2.496   8.413  18.022  0.00  0.00    +0.000 HD
ENDROOT
BRANCH   6  15
ATOM     15  C   UNL     1       5.060   4.190  17.781  0.00  0.00    +0.000 A 
ATOM     16  C   UNL     1       4.883   4.028  16.398  0.00  0.00    +0.000 A 
ATOM     17  C   UNL     1       5.914   4.307  15.493  0.00  0.00    +0.000 A 
ATOM     18  C   UNL     1       7.155   4.732  15.956  0.00  0.00    +0.000 A 
ATOM     19  C   UNL     1       7.366   4.869  17.322  0.00  0.00    +0.000 A 
ATOM     20  C   UNL     1       6.329   4.602  18.223  0.00  0.00    +0.000 A 
ENDBRANCH   6  15
BRANCH  10  21
ATOM     21  C   UNL     1       1.486   9.367  19.534  0.00  0.00    +0.000 A 
ATOM     22  C   UNL     1       1.093   9.304  20.878  0.00  0.00    +0.000 A 
ATOM     23  C   UNL     1       0.649  10.444  21.553  0.00  0.00    +0.000 A 
ATOM     24  C   UNL     1       0.568  11.660  20.884  0.00  0.00    +0.000 A 
ATOM     25  C   UNL     1       0.943  11.739  19.544  0.00  0.00    +0.000 A 
ATOM     26  C   UNL     1       1.407  10.602  18.879  0.00  0.00    +0.000 A 
ENDBRANCH  10  21
TORSDOF 2
ENDMDL
MODEL 8
REMARK VINA RESULT:      -7.5      2.057      2.559
REMARK  Name = 
REMARK  4 active torsions:
REMARK  status: ('A' for Active; 'I' for Inactive)
REMARK    1  A    between atoms: C_1  and  C_2
REMARK    2  A    between atoms: C_2  and  C_3
REMARK    3  A    between atoms: N_6  and  C_7
REMARK    4  A    between atoms: N_16  and  C_17
REMARK                            x       y       z     vdW  Elec       q    Type
REMARK                         _______ _______ _______ _____ _____    ______ ____
ROOT
ATOM      1  C   UNL     1       2.588   3.763  21.770  0.00  0.00    +0.000 C 
ATOM      2  C   UNL     1       2.248   3.861  20.283  0.00  0.00    +0.000 C 
ATOM      3  C   UNL     1       0.999   3.052  19.936  0.00  0.00    +0.000 C 
ATOM      4  C   UNL     1       3.438   3.372  19.428  0.00  0.00    +0.000 C 
ATOM      5  O   UNL     1       3.892   2.237  19.487  0.00  0.00    +0.000 OA
ATOM      6  N   UNL     1       3.873   4.464  18.650  0.00  0.00    +0.000 N 
ATOM      7  C   UNL     1       3.062   5.594  18.887  0.00  0.00    +0.000 A 
ATOM      8  N   UNL     1       3.105   6.777  18.261  0.00  0.00    +0.000 NA
ATOM      9  C   UNL     1       2.227   7.699  18.680  0.00  0.00    +0.000 A 
ATOM     10  N   UNL     1       2.234   8.922  18.014  0.00  0.00    +0.000 N 
ATOM     11  N   UNL     1       1.316   7.482  19.651  0.00  0.00    +0.000 NA
ATOM     12  C   UNL     1       1.261   6.264  20.208  0.00  0.00    +0.000 A 
ATOM     13  C   UNL     1       2.125   5.282  19.842  0.00  0.00    +0.000 A 
ATOM     14  H   UNL     1       2.833   8.893  17.204  0.00  0.00    +0.000 HD
ENDROOT
BRANCH   6  15
ATOM     15  C   UNL     1       4.950   4.454  17.726  0.00  0.00    +0.000 A 
ATOM     16  C   UNL     1       4.737   4.085  16.389  0.00  0.00    +0.000 A 
ATOM     17  C   UNL     1       5.780   4.093  15.455  0.00  0.00    +0.000 A 
ATOM     18  C   UNL     1       7.066   4.449  15.846  0.00  0.00    +0.000 A 
ATOM     19  C   UNL     1       7.310   4.788  17.171  0.00  0.00    +0.000 A 
ATOM     20  C   UNL     1       6.262   4.791  18.099  0.00  0.00    +0.000 A 
ENDBRANCH   6  15
BRANCH  10  21
ATOM     21  C   UNL     1       1.945  10.197  18.518  0.00  0.00    +0.000 A 
ATOM     22  C   UNL     1       1.038  10.406  19.566  0.00  0.00    +0.000 A 
ATOM     23  C   UNL     1       0.744  11.693  20.020  0.00  0.00    +0.000 A 
ATOM     24  C   UNL     1       1.337  12.796  19.414  0.00  0.00    +0.000 A 
ATOM     25  C   UNL     1       2.232  12.609  18.362  0.00  0.00    +0.000 A 
ATOM     26  C   UNL     1       2.539  11.318  17.925  0.00  0.00    +0.000 A 
ENDBRANCH  10  21
TORSDOF 2
ENDMDL
MODEL 9
REMARK VINA RESULT:      -7.5      1.473      1.870
REMARK  Name = 
REMARK  4 active torsions:
REMARK  status: ('A' for Active; 'I' for Inactive)
REMARK    1  A    between atoms: C_1  and  C_2
REMARK    2  A    between atoms: C_2  and  C_3
REMARK    3  A    between atoms: N_6  and  C_7
REMARK    4  A    between atoms: N_16  and  C_17
REMARK                            x       y       z     vdW  Elec       q    Type
REMARK                         _______ _______ _______ _____ _____    ______ ____
ROOT
ATOM      1  C   UNL     1       2.739   2.630  21.692  0.00  0.00    +0.000 C 
ATOM      2  C   UNL     1       2.439   2.923  20.223  0.00  0.00    +0.000 C 
ATOM      3  C   UNL     1       1.304   2.047  19.694  0.00  0.00    +0.000 C 
ATOM      4  C   UNL     1       3.705   2.709  19.364  0.00  0.00    +0.000 C 
ATOM      5  O   UNL     1       4.285   1.636  19.271  0.00  0.00    +0.000 OA
ATOM      6  N   UNL     1       4.035   3.952  18.785  0.00  0.00    +0.000 N 
ATOM      7  C   UNL     1       3.090   4.934  19.152  0.00  0.00    +0.000 A 
ATOM      8  N   UNL     1       3.016   6.199  18.718  0.00  0.00    +0.000 NA
ATOM      9  C   UNL     1       2.024   6.940  19.229  0.00  0.00    +0.000 A 
ATOM     10  N   UNL     1       1.910   8.247  18.760  0.00  0.00    +0.000 N 
ATOM     11  N   UNL     1       1.113   6.474  20.108  0.00  0.00    +0.000 NA
ATOM     12  C   UNL     1       1.181   5.184  20.467  0.00  0.00    +0.000 A 
ATOM     13  C   UNL     1       2.165   4.374  20.000  0.00  0.00    +0.000 A 
ATOM     14  H   UNL     1       2.534   8.412  17.986  0.00  0.00    +0.000 HD
ENDROOT
BRANCH   6  15
ATOM     15  C   UNL     1       5.135   4.206  17.927  0.00  0.00    +0.000 A 
ATOM     16  C   UNL     1       6.332   4.729  18.440  0.00  0.00    +0.000 A 
ATOM     17  C   UNL     1       7.438   4.964  17.614  0.00  0.00    +0.000 A 
ATOM     18  C   UNL     1       7.362   4.702  16.251  0.00  0.00    +0.000 A 
ATOM     19  C   UNL     1       6.177   4.214  15.713  0.00  0.00    +0.000 A 
ATOM     20  C   UNL     1       5.078   3.969  16.543  0.00  0.00    +0.000 A 
ENDBRANCH   6  15
BRANCH  10  21
ATOM     21  C   UNL     1       1.458   9.387  19.437  0.00  0.00    +0.000 A 
ATOM     22  C   UNL     1       1.360  10.641  18.820  0.00  0.00    +0.000 A 
ATOM     23  C   UNL     1       0.940  11.766  19.534  0.00  0.00    +0.000 A 
ATOM     24  C   UNL     1       0.634  11.656  20.887  0.00  0.00    +0.000 A 
ATOM     25  C   UNL     1       0.737  10.419  21.521  0.00  0.00    +0.000 A 
ATOM     26  C   UNL     1       1.138   9.292  20.797  0.00  0.00    +0.000 A 
ENDBRANCH  10  21
TORSDOF 2
ENDMDL
