MODEL 1
REMARK VINA RESULT:      -8.7      0.000      0.000
REMARK  Name = 
REMARK  8 active torsions:
REMARK  status: ('A' for Active; 'I' for Inactive)
REMARK    1  A    between atoms: C_1  and  C_2
REMARK    2  A    between atoms: C_6  and  C_7
REMARK    3  A    between atoms: C_9  and  S_10
REMARK    4  A    between atoms: S_10  and  C_13
REMARK    5  A    between atoms: C_16  and  C_17
REMARK    6  A    between atoms: C_17  and  N_18
REMARK    7  A    between atoms: C_22  and  S_23
REMARK    8  A    between atoms: S_23  and  C_24
REMARK                            x       y       z     vdW  Elec       q    Type
REMARK                         _______ _______ _______ _____ _____    ______ ____
ROOT
ATOM      1  C   UNL     1       3.552   5.953  18.796  0.00  0.00    +0.000 A 
ATOM      2  C   UNL     1       4.741   6.089  18.036  0.00  0.00    +0.000 A 
ATOM      3  C   UNL     1       5.604   5.008  17.830  0.00  0.00    +0.000 A 
ATOM      4  C   UNL     1       5.316   3.771  18.388  0.00  0.00    +0.000 A 
ATOM      5  C   UNL     1       4.159   3.600  19.127  0.00  0.00    +0.000 A 
ATOM      6  C   UNL     1       3.257   4.652  19.330  0.00  0.00    +0.000 A 
ENDROOT
BRANCH   1  12
ATOM      7  C   UNL     1       0.719   9.071  21.630  0.00  0.00    +0.000 C 
ATOM      8  C   UNL     1       1.269   8.667  20.294  0.00  0.00    +0.000 A 
ATOM      9  C   UNL     1       0.881   9.351  19.137  0.00  0.00    +0.000 A 
ATOM     10  C   UNL     1       1.382   8.966  17.898  0.00  0.00    +0.000 A 
ATOM     11  C   UNL     1       2.257   7.884  17.797  0.00  0.00    +0.000 A 
ATOM     12  C   UNL     1       2.650   7.155  18.941  0.00  0.00    +0.000 A 
ATOM     13  C   UNL     1       2.163   7.587  20.192  0.00  0.00    +0.000 A 
ENDBRANCH   1  12
BRANCH   6  14
ATOM     14  S   UNL     1       1.743   4.142  20.178  0.00  0.00    +0.000 S 
ATOM     15  C   UNL     1       1.707   2.916  21.509  0.00  0.00    +0.000 C 
ATOM     16  O   UNL     1       0.755   5.290  20.430  0.00  0.00    +0.000 OA
ATOM     17  O   UNL     1       0.939   3.457  19.060  0.00  0.00    +0.000 OA
ENDBRANCH   6  14
BRANCH   3  18
ATOM     18  S   UNL     1       7.018   5.154  16.747  0.00  0.00    +0.000 S 
ATOM     19  O   UNL     1       7.539   6.600  16.751  0.00  0.00    +0.000 OA
ATOM     20  O   UNL     1       8.220   4.420  17.364  0.00  0.00    +0.000 OA
BRANCH  18  21
ATOM     21  C   UNL     1       6.786   4.601  15.067  0.00  0.00    +0.000 A 
ATOM     22  C   UNL     1       7.500   5.053  13.969  0.00  0.00    +0.000 A 
ATOM     23  C   UNL     1       7.022   4.539  12.760  0.00  0.00    +0.000 A 
ATOM     24  C   UNL     1       5.927   3.695  12.920  0.00  0.00    +0.000 A 
ATOM     25  S   UNL     1       5.556   3.573  14.557  0.00  0.00    +0.000 S 
BRANCH  24  26
ATOM     26  C   UNL     1       5.178   3.023  11.812  0.00  0.00    +0.000 C 
BRANCH  26  27
ATOM     27  N   UNL     1       5.763   1.715  11.532  0.00  0.00    +0.000 NA
ATOM     28  H   UNL     1       6.519   1.825  10.815  0.00  0.00    +0.000 HD
ATOM     29  H   UNL     1       5.023   1.100  11.121  0.00  0.00    +0.000 HD
ENDBRANCH  26  27
ENDBRANCH  24  26
ENDBRANCH  18  21
ENDBRANCH   3  18
TORSDOF 6
ENDMDL
MODEL 2
REMARK VINA RESULT:      -8.4      4.270      8.273
REMARK  Name = 
REMARK  8 active torsions:
REMARK  status: ('A' for Active; 'I' for Inactive)
REMARK    1  A    between atoms: C_1  and  C_2
REMARK    2  A    between atoms: C_6  and  C_7
REMARK    3  A    between atoms: C_9  and  S_10
REMARK    4  A    between atoms: S_10  and  C_13
REMARK    5  A    between atoms: C_16  and  C_17
REMARK    6  A    between atoms: C_17  and  N_18
REMARK    7  A    between atoms: C_22  and  S_23
REMARK    8  A    between atoms: S_23  and  C_24
REMARK                            x       y       z     vdW  Elec       q    Type
REMARK                         _______ _______ _______ _____ _____    ______ ____
ROOT
ATOM      1  C   UNL     1       3.812   5.525  18.102  0.00  0.00    +0.000 A 
ATOM      2  C   UNL     1       3.267   6.832  18.050  0.00  0.00    +0.000 A 
ATOM      3  C   UNL     1       2.181   7.204  18.851  0.00  0.00    +0.000 A 
ATOM      4  C   UNL     1       1.603   6.281  19.710  0.00  0.00    +0.000 A 
ATOM      5  C   UNL     1       2.117   5.000  19.794  0.00  0.00    +0.000 A 
ATOM      6  C   UNL     1       3.220   4.601  19.028  0.00  0.00    +0.000 A 
ENDROOT
BRANCH   1  12
ATOM      7  C   UNL     1       5.842   3.933  13.729  0.00  0.00    +0.000 C 
ATOM      8  C   UNL     1       6.007   4.435  15.132  0.00  0.00    +0.000 A 
ATOM      9  C   UNL     1       7.283   4.537  15.698  0.00  0.00    +0.000 A 
ATOM     10  C   UNL     1       7.432   4.990  17.004  0.00  0.00    +0.000 A 
ATOM     11  C   UNL     1       6.313   5.325  17.767  0.00  0.00    +0.000 A 
ATOM     12  C   UNL     1       5.008   5.210  17.236  0.00  0.00    +0.000 A 
ATOM     13  C   UNL     1       4.881   4.788  15.896  0.00  0.00    +0.000 A 
ENDBRANCH   1  12
BRANCH   6  14
ATOM     14  S   UNL     1       3.811   2.940  19.437  0.00  0.00    +0.000 S 
ATOM     15  C   UNL     1       3.451   1.476  18.436  0.00  0.00    +0.000 C 
ATOM     16  O   UNL     1       5.239   2.911  20.002  0.00  0.00    +0.000 OA
ATOM     17  O   UNL     1       3.089   2.636  20.760  0.00  0.00    +0.000 OA
ENDBRANCH   6  14
BRANCH   3  18
ATOM     18  S   UNL     1       1.601   8.893  18.886  0.00  0.00    +0.000 S 
ATOM     19  O   UNL     1       2.715   9.844  18.420  0.00  0.00    +0.000 OA
ATOM     20  O   UNL     1       0.565   9.107  17.771  0.00  0.00    +0.000 OA
BRANCH  18  21
ATOM     21  C   UNL     1       0.928   9.465  20.435  0.00  0.00    +0.000 A 
ATOM     22  C   UNL     1       1.090   8.838  21.660  0.00  0.00    +0.000 A 
ATOM     23  C   UNL     1       0.347   9.439  22.682  0.00  0.00    +0.000 A 
ATOM     24  C   UNL     1      -0.400  10.528  22.245  0.00  0.00    +0.000 A 
ATOM     25  S   UNL     1      -0.136  10.757  20.599  0.00  0.00    +0.000 S 
BRANCH  24  26
ATOM     26  C   UNL     1      -1.317  11.349  23.096  0.00  0.00    +0.000 C 
BRANCH  26  27
ATOM     27  N   UNL     1      -1.147  12.767  22.793  0.00  0.00    +0.000 NA
ATOM     28  H   UNL     1      -2.082  13.238  22.823  0.00  0.00    +0.000 HD
ATOM     29  H   UNL     1      -0.777  12.858  21.819  0.00  0.00    +0.000 HD
ENDBRANCH  26  27
ENDBRANCH  24  26
ENDBRANCH  18  21
ENDBRANCH   3  18
TORSDOF 6
ENDMDL
MODEL 3
REMARK VINA RESULT:      -8.3      0.543      1.297
REMARK  Name = 
REMARK  8 active torsions:
REMARK  status: ('A' for Active; 'I' for Inactive)
REMARK    1  A    between atoms: C_1  and  C_2
REMARK    2  A    between atoms: C_6  and  C_7
REMARK    3  A    between atoms: C_9  and  S_10
REMARK    4  A    between atoms: S_10  and  C_13
REMARK    5  A    between atoms: C_16  and  C_17
REMARK    6  A    between atoms: C_17  and  N_18
REMARK    7  A    between atoms: C_22  and  S_23
REMARK    8  A    between atoms: S_23  and  C_24
REMARK                            x       y       z     vdW  Elec       q    Type
REMARK                         _______ _______ _______ _____ _____    ______ ____
ROOT
ATOM      1  C   UNL     1       3.475   5.616  19.067  0.00  0.00    +0.000 A 
ATOM      2  C   UNL     1       4.653   5.858  18.316  0.00  0.00    +0.000 A 
ATOM      3  C   UNL     1       5.494   4.813  17.919  0.00  0.00    +0.000 A 
ATOM      4  C   UNL     1       5.194   3.506  18.272  0.00  0.00    +0.000 A 
ATOM      5  C   UNL     1       4.048   3.232  18.996  0.00  0.00    +0.000 A 
ATOM      6  C   UNL     1       3.167   4.249  19.386  0.00  0.00    +0.000 A 
ENDROOT
BRANCH   1  12
ATOM      7  C   UNL     1       1.235  10.016  17.887  0.00  0.00    +0.000 C 
ATOM      8  C   UNL     1       1.513   8.923  18.875  0.00  0.00    +0.000 A 
ATOM      9  C   UNL     1       1.030   9.017  20.185  0.00  0.00    +0.000 A 
ATOM     10  C   UNL     1       1.301   8.008  21.103  0.00  0.00    +0.000 A 
ATOM     11  C   UNL     1       2.072   6.906  20.732  0.00  0.00    +0.000 A 
ATOM     12  C   UNL     1       2.597   6.790  19.425  0.00  0.00    +0.000 A 
ATOM     13  C   UNL     1       2.276   7.804  18.498  0.00  0.00    +0.000 A 
ENDBRANCH   1  12
BRANCH   6  14
ATOM     14  S   UNL     1       1.659   3.628  20.169  0.00  0.00    +0.000 S 
ATOM     15  C   UNL     1       1.652   2.664  21.700  0.00  0.00    +0.000 C 
ATOM     16  O   UNL     1       0.476   4.606  20.102  0.00  0.00    +0.000 OA
ATOM     17  O   UNL     1       1.123   2.628  19.132  0.00  0.00    +0.000 OA
ENDBRANCH   6  14
BRANCH   3  18
ATOM     18  S   UNL     1       6.891   5.116  16.847  0.00  0.00    +0.000 S 
ATOM     19  O   UNL     1       7.272   6.604  16.882  0.00  0.00    +0.000 OA
ATOM     20  O   UNL     1       8.155   4.488  17.455  0.00  0.00    +0.000 OA
BRANCH  18  21
ATOM     21  C   UNL     1       6.720   4.577  15.155  0.00  0.00    +0.000 A 
ATOM     22  C   UNL     1       7.493   5.014  14.092  0.00  0.00    +0.000 A 
ATOM     23  C   UNL     1       7.055   4.520  12.860  0.00  0.00    +0.000 A 
ATOM     24  C   UNL     1       5.933   3.704  12.967  0.00  0.00    +0.000 A 
ATOM     25  S   UNL     1       5.486   3.584  14.586  0.00  0.00    +0.000 S 
BRANCH  24  26
ATOM     26  C   UNL     1       5.216   3.058  11.823  0.00  0.00    +0.000 C 
BRANCH  26  27
ATOM     27  N   UNL     1       5.792   1.745  11.547  0.00  0.00    +0.000 NA
ATOM     28  H   UNL     1       5.085   1.007  11.774  0.00  0.00    +0.000 HD
ATOM     29  H   UNL     1       6.614   1.603  12.179  0.00  0.00    +0.000 HD
ENDBRANCH  26  27
ENDBRANCH  24  26
ENDBRANCH  18  21
ENDBRANCH   3  18
TORSDOF 6
ENDMDL
MODEL 4
REMARK VINA RESULT:      -8.2      3.876      7.359
REMARK  Name = 
REMARK  8 active torsions:
REMARK  status: ('A' for Active; 'I' for Inactive)
REMARK    1  A    between atoms: C_1  and  C_2
REMARK    2  A    between atoms: C_6  and  C_7
REMARK    3  A    between atoms: C_9  and  S_10
REMARK    4  A    between atoms: S_10  and  C_13
REMARK    5  A    between atoms: C_16  and  C_17
REMARK    6  A    between atoms: C_17  and  N_18
REMARK    7  A    between atoms: C_22  and  S_23
REMARK    8  A    between atoms: S_23  and  C_24
REMARK                            x       y       z     vdW  Elec       q    Type
REMARK                         _______ _______ _______ _____ _____    ______ ____
ROOT
ATOM      1  C   UNL     1       3.349   5.718  19.093  0.00  0.00    +0.000 A 
ATOM      2  C   UNL     1       2.708   6.932  19.447  0.00  0.00    +0.000 A 
ATOM      3  C   UNL     1       1.706   6.971  20.423  0.00  0.00    +0.000 A 
ATOM      4  C   UNL     1       1.306   5.804  21.057  0.00  0.00    +0.000 A 
ATOM      5  C   UNL     1       1.918   4.603  20.743  0.00  0.00    +0.000 A 
ATOM      6  C   UNL     1       2.944   4.530  19.792  0.00  0.00    +0.000 A 
ENDROOT
BRANCH   1  12
ATOM      7  C   UNL     1       7.773   7.527  17.381  0.00  0.00    +0.000 C 
ATOM      8  C   UNL     1       6.582   6.632  17.213  0.00  0.00    +0.000 A 
ATOM      9  C   UNL     1       6.426   5.880  16.042  0.00  0.00    +0.000 A 
ATOM     10  C   UNL     1       5.314   5.061  15.883  0.00  0.00    +0.000 A 
ATOM     11  C   UNL     1       4.336   4.997  16.877  0.00  0.00    +0.000 A 
ATOM     12  C   UNL     1       4.449   5.762  18.060  0.00  0.00    +0.000 A 
ATOM     13  C   UNL     1       5.605   6.554  18.220  0.00  0.00    +0.000 A 
ENDBRANCH   1  12
BRANCH   6  14
ATOM     14  S   UNL     1       3.699   2.890  19.680  0.00  0.00    +0.000 S 
ATOM     15  C   UNL     1       3.190   1.635  18.481  0.00  0.00    +0.000 C 
ATOM     16  O   UNL     1       5.220   2.891  19.899  0.00  0.00    +0.000 OA
ATOM     17  O   UNL     1       3.326   2.249  21.027  0.00  0.00    +0.000 OA
ENDBRANCH   6  14
BRANCH   3  18
ATOM     18  S   UNL     1       1.013   8.525  20.966  0.00  0.00    +0.000 S 
ATOM     19  O   UNL     1      -0.462   8.339  21.355  0.00  0.00    +0.000 OA
ATOM     20  O   UNL     1       1.616   8.912  22.327  0.00  0.00    +0.000 OA
BRANCH  18  21
ATOM     21  C   UNL     1       1.171   9.898  19.839  0.00  0.00    +0.000 A 
ATOM     22  C   UNL     1       1.511   9.801  18.499  0.00  0.00    +0.000 A 
ATOM     23  C   UNL     1       1.686  11.047  17.889  0.00  0.00    +0.000 A 
ATOM     24  C   UNL     1       1.490  12.114  18.761  0.00  0.00    +0.000 A 
ATOM     25  S   UNL     1       1.091  11.518  20.284  0.00  0.00    +0.000 S 
BRANCH  24  26
ATOM     26  C   UNL     1       1.639  13.561  18.411  0.00  0.00    +0.000 C 
BRANCH  26  27
ATOM     27  N   UNL     1       2.969  13.810  17.864  0.00  0.00    +0.000 NA
ATOM     28  H   UNL     1       3.222  13.032  17.211  0.00  0.00    +0.000 HD
ATOM     29  H   UNL     1       3.660  13.800  18.650  0.00  0.00    +0.000 HD
ENDBRANCH  26  27
ENDBRANCH  24  26
ENDBRANCH  18  21
ENDBRANCH   3  18
TORSDOF 6
ENDMDL
MODEL 5
REMARK VINA RESULT:      -8.2      3.898      7.437
REMARK  Name = 
REMARK  8 active torsions:
REMARK  status: ('A' for Active; 'I' for Inactive)
REMARK    1  A    between atoms: C_1  and  C_2
REMARK    2  A    between atoms: C_6  and  C_7
REMARK    3  A    between atoms: C_9  and  S_10
REMARK    4  A    between atoms: S_10  and  C_13
REMARK    5  A    between atoms: C_16  and  C_17
REMARK    6  A    between atoms: C_17  and  N_18
REMARK    7  A    between atoms: C_22  and  S_23
REMARK    8  A    between atoms: S_23  and  C_24
REMARK                            x       y       z     vdW  Elec       q    Type
REMARK                         _______ _______ _______ _____ _____    ______ ____
ROOT
ATOM      1  C   UNL     1       3.332   5.526  19.240  0.00  0.00    +0.000 A 
ATOM      2  C   UNL     1       2.805   6.788  19.610  0.00  0.00    +0.000 A 
ATOM      3  C   UNL     1       1.641   6.898  20.378  0.00  0.00    +0.000 A 
ATOM      4  C   UNL     1       0.966   5.757  20.784  0.00  0.00    +0.000 A 
ATOM      5  C   UNL     1       1.458   4.508  20.451  0.00  0.00    +0.000 A 
ATOM      6  C   UNL     1       2.635   4.359  19.707  0.00  0.00    +0.000 A 
ENDROOT
BRANCH   1  12
ATOM      7  C   UNL     1       5.814   5.224  14.822  0.00  0.00    +0.000 C 
ATOM      8  C   UNL     1       5.830   5.334  16.317  0.00  0.00    +0.000 A 
ATOM      9  C   UNL     1       7.045   5.313  17.012  0.00  0.00    +0.000 A 
ATOM     10  C   UNL     1       7.057   5.400  18.399  0.00  0.00    +0.000 A 
ATOM     11  C   UNL     1       5.859   5.489  19.110  0.00  0.00    +0.000 A 
ATOM     12  C   UNL     1       4.614   5.487  18.443  0.00  0.00    +0.000 A 
ATOM     13  C   UNL     1       4.625   5.439  17.034  0.00  0.00    +0.000 A 
ENDBRANCH   1  12
BRANCH   6  14
ATOM     14  S   UNL     1       3.166   2.637  19.545  0.00  0.00    +0.000 S 
ATOM     15  C   UNL     1       3.459   1.826  17.954  0.00  0.00    +0.000 C 
ATOM     16  O   UNL     1       4.185   2.199  20.607  0.00  0.00    +0.000 OA
ATOM     17  O   UNL     1       1.970   1.856  20.112  0.00  0.00    +0.000 OA
ENDBRANCH   6  14
BRANCH   3  18
ATOM     18  S   UNL     1       1.072   8.487  20.962  0.00  0.00    +0.000 S 
ATOM     19  O   UNL     1      -0.383   8.382  21.447  0.00  0.00    +0.000 OA
ATOM     20  O   UNL     1       1.782   8.838  22.280  0.00  0.00    +0.000 OA
BRANCH  18  21
ATOM     21  C   UNL     1       1.232   9.852  19.824  0.00  0.00    +0.000 A 
ATOM     22  C   UNL     1       1.627   9.749  18.500  0.00  0.00    +0.000 A 
ATOM     23  C   UNL     1       1.787  10.993  17.882  0.00  0.00    +0.000 A 
ATOM     24  C   UNL     1       1.525  12.063  18.731  0.00  0.00    +0.000 A 
ATOM     25  S   UNL     1       1.085  11.473  20.246  0.00  0.00    +0.000 S 
BRANCH  24  26
ATOM     26  C   UNL     1       1.644  13.510  18.368  0.00  0.00    +0.000 C 
BRANCH  26  27
ATOM     27  N   UNL     1       2.965  13.780  17.810  0.00  0.00    +0.000 NA
ATOM     28  H   UNL     1       3.152  13.104  17.032  0.00  0.00    +0.000 HD
ATOM     29  H   UNL     1       3.682  13.613  18.554  0.00  0.00    +0.000 HD
ENDBRANCH  26  27
ENDBRANCH  24  26
ENDBRANCH  18  21
ENDBRANCH   3  18
TORSDOF 6
ENDMDL
MODEL 6
REMARK VINA RESULT:      -8.1      4.707      8.205
REMARK  Name = 
REMARK  8 active torsions:
REMARK  status: ('A' for Active; 'I' for Inactive)
REMARK    1  A    between atoms: C_1  and  C_2
REMARK    2  A    between atoms: C_6  and  C_7
REMARK    3  A    between atoms: C_9  and  S_10
REMARK    4  A    between atoms: S_10  and  C_13
REMARK    5  A    between atoms: C_16  and  C_17
REMARK    6  A    between atoms: C_17  and  N_18
REMARK    7  A    between atoms: C_22  and  S_23
REMARK    8  A    between atoms: S_23  and  C_24
REMARK                            x       y       z     vdW  Elec       q    Type
REMARK                         _______ _______ _______ _____ _____    ______ ____
ROOT
ATOM      1  C   UNL     1       2.269   6.594  19.160  0.00  0.00    +0.000 A 
ATOM      2  C   UNL     1       1.408   7.651  19.550  0.00  0.00    +0.000 A 
ATOM      3  C   UNL     1       1.532   8.933  19.004  0.00  0.00    +0.000 A 
ATOM      4  C   UNL     1       2.522   9.199  18.071  0.00  0.00    +0.000 A 
ATOM      5  C   UNL     1       3.372   8.189  17.659  0.00  0.00    +0.000 A 
ATOM      6  C   UNL     1       3.261   6.887  18.162  0.00  0.00    +0.000 A 
ENDROOT
BRANCH   1  12
ATOM      7  C   UNL     1       0.575   1.818  18.856  0.00  0.00    +0.000 C 
ATOM      8  C   UNL     1       1.228   2.919  19.637  0.00  0.00    +0.000 A 
ATOM      9  C   UNL     1       1.569   2.722  20.981  0.00  0.00    +0.000 A 
ATOM     10  C   UNL     1       2.162   3.749  21.707  0.00  0.00    +0.000 A 
ATOM     11  C   UNL     1       2.403   4.987  21.110  0.00  0.00    +0.000 A 
ATOM     12  C   UNL     1       2.050   5.228  19.764  0.00  0.00    +0.000 A 
ATOM     13  C   UNL     1       1.486   4.161  19.033  0.00  0.00    +0.000 A 
ENDBRANCH   1  12
BRANCH   6  14
ATOM     14  S   UNL     1       4.367   5.709  17.349  0.00  0.00    +0.000 S 
ATOM     15  C   UNL     1       5.942   5.165  18.056  0.00  0.00    +0.000 C 
ATOM     16  O   UNL     1       3.636   4.566  16.629  0.00  0.00    +0.000 OA
ATOM     17  O   UNL     1       4.803   6.466  16.085  0.00  0.00    +0.000 OA
ENDBRANCH   6  14
BRANCH   3  18
ATOM     18  S   UNL     1       0.348  10.214  19.392  0.00  0.00    +0.000 S 
ATOM     19  O   UNL     1      -0.074  10.115  20.866  0.00  0.00    +0.000 OA
ATOM     20  O   UNL     1       1.048  11.582  19.391  0.00  0.00    +0.000 OA
BRANCH  18  21
ATOM     21  C   UNL     1      -1.101  10.291  18.354  0.00  0.00    +0.000 A 
ATOM     22  C   UNL     1      -1.268   9.610  17.159  0.00  0.00    +0.000 A 
ATOM     23  C   UNL     1      -2.449   9.957  16.495  0.00  0.00    +0.000 A 
ATOM     24  C   UNL     1      -3.194  10.917  17.172  0.00  0.00    +0.000 A 
ATOM     25  S   UNL     1      -2.400  11.331  18.598  0.00  0.00    +0.000 S 
BRANCH  24  26
ATOM     26  C   UNL     1      -4.483  11.512  16.697  0.00  0.00    +0.000 C 
BRANCH  26  27
ATOM     27  N   UNL     1      -5.010  12.433  17.700  0.00  0.00    +0.000 NA
ATOM     28  H   UNL     1      -4.809  13.416  17.400  0.00  0.00    +0.000 HD
ATOM     29  H   UNL     1      -4.506  12.268  18.602  0.00  0.00    +0.000 HD
ENDBRANCH  26  27
ENDBRANCH  24  26
ENDBRANCH  18  21
ENDBRANCH   3  18
TORSDOF 6
ENDMDL
MODEL 7
REMARK VINA RESULT:      -8.0      1.110      1.667
REMARK  Name = 
REMARK  8 active torsions:
REMARK  status: ('A' for Active; 'I' for Inactive)
REMARK    1  A    between atoms: C_1  and  C_2
REMARK    2  A    between atoms: C_6  and  C_7
REMARK    3  A    between atoms: C_9  and  S_10
REMARK    4  A    between atoms: S_10  and  C_13
REMARK    5  A    between atoms: C_16  and  C_17
REMARK    6  A    between atoms: C_17  and  N_18
REMARK    7  A    between atoms: C_22  and  S_23
REMARK    8  A    between atoms: S_23  and  C_24
REMARK                            x       y       z     vdW  Elec       q    Type
REMARK                         _______ _______ _______ _____ _____    ______ ____
ROOT
ATOM      1  C   UNL     1       3.295   5.697  18.597  0.00  0.00    +0.000 A 
ATOM      2  C   UNL     1       4.217   6.148  17.619  0.00  0.00    +0.000 A 
ATOM      3  C   UNL     1       5.017   5.253  16.901  0.00  0.00    +0.000 A 
ATOM      4  C   UNL     1       4.931   3.891  17.147  0.00  0.00    +0.000 A 
ATOM      5  C   UNL     1       4.035   3.414  18.087  0.00  0.00    +0.000 A 
ATOM      6  C   UNL     1       3.198   4.278  18.805  0.00  0.00    +0.000 A 
ENDROOT
BRANCH   1  12
ATOM      7  C   UNL     1       1.024  10.233  18.778  0.00  0.00    +0.000 C 
ATOM      8  C   UNL     1       1.341   8.912  19.412  0.00  0.00    +0.000 A 
ATOM      9  C   UNL     1       0.917   8.637  20.717  0.00  0.00    +0.000 A 
ATOM     10  C   UNL     1       1.224   7.416  21.307  0.00  0.00    +0.000 A 
ATOM     11  C   UNL     1       1.973   6.465  20.613  0.00  0.00    +0.000 A 
ATOM     12  C   UNL     1       2.439   6.719  19.303  0.00  0.00    +0.000 A 
ATOM     13  C   UNL     1       2.082   7.947  18.707  0.00  0.00    +0.000 A 
ENDBRANCH   1  12
BRANCH   6  14
ATOM     14  S   UNL     1       1.999   3.411  19.846  0.00  0.00    +0.000 S 
ATOM     15  C   UNL     1       2.203   3.182  21.629  0.00  0.00    +0.000 C 
ATOM     16  O   UNL     1       0.536   3.684  19.467  0.00  0.00    +0.000 OA
ATOM     17  O   UNL     1       2.057   1.972  19.308  0.00  0.00    +0.000 OA
ENDBRANCH   6  14
BRANCH   3  18
ATOM     18  S   UNL     1       6.063   5.821  15.569  0.00  0.00    +0.000 S 
ATOM     19  O   UNL     1       5.577   7.188  15.062  0.00  0.00    +0.000 OA
ATOM     20  O   UNL     1       7.445   6.203  16.123  0.00  0.00    +0.000 OA
BRANCH  18  21
ATOM     21  C   UNL     1       6.267   4.705  14.192  0.00  0.00    +0.000 A 
ATOM     22  C   UNL     1       7.309   4.739  13.281  0.00  0.00    +0.000 A 
ATOM     23  C   UNL     1       7.146   3.826  12.233  0.00  0.00    +0.000 A 
ATOM     24  C   UNL     1       5.969   3.091  12.328  0.00  0.00    +0.000 A 
ATOM     25  S   UNL     1       5.133   3.558  13.713  0.00  0.00    +0.000 S 
BRANCH  24  26
ATOM     26  C   UNL     1       5.503   2.065  11.342  0.00  0.00    +0.000 C 
BRANCH  26  27
ATOM     27  N   UNL     1       6.523   1.035  11.170  0.00  0.00    +0.000 NA
ATOM     28  H   UNL     1       7.131   1.289  10.356  0.00  0.00    +0.000 HD
ATOM     29  H   UNL     1       6.049   0.131  10.942  0.00  0.00    +0.000 HD
ENDBRANCH  26  27
ENDBRANCH  24  26
ENDBRANCH  18  21
ENDBRANCH   3  18
TORSDOF 6
ENDMDL
MODEL 8
REMARK VINA RESULT:      -7.9      4.297      7.600
REMARK  Name = 
REMARK  8 active torsions:
REMARK  status: ('A' for Active; 'I' for Inactive)
REMARK    1  A    between atoms: C_1  and  C_2
REMARK    2  A    between atoms: C_6  and  C_7
REMARK    3  A    between atoms: C_9  and  S_10
REMARK    4  A    between atoms: S_10  and  C_13
REMARK    5  A    between atoms: C_16  and  C_17
REMARK    6  A    between atoms: C_17  and  N_18
REMARK    7  A    between atoms: C_22  and  S_23
REMARK    8  A    between atoms: S_23  and  C_24
REMARK                            x       y       z     vdW  Elec       q    Type
REMARK                         _______ _______ _______ _____ _____    ______ ____
ROOT
ATOM      1  C   UNL     1       3.219   5.698  19.244  0.00  0.00    +0.000 A 
ATOM      2  C   UNL     1       2.672   6.930  19.683  0.00  0.00    +0.000 A 
ATOM      3  C   UNL     1       1.499   6.979  20.444  0.00  0.00    +0.000 A 
ATOM      4  C   UNL     1       0.834   5.807  20.772  0.00  0.00    +0.000 A 
ATOM      5  C   UNL     1       1.345   4.587  20.370  0.00  0.00    +0.000 A 
ATOM      6  C   UNL     1       2.532   4.497  19.631  0.00  0.00    +0.000 A 
ENDROOT
BRANCH   1  12
ATOM      7  C   UNL     1       8.288   5.526  19.018  0.00  0.00    +0.000 C 
ATOM      8  C   UNL     1       6.960   5.651  18.334  0.00  0.00    +0.000 A 
ATOM      9  C   UNL     1       6.897   5.883  16.955  0.00  0.00    +0.000 A 
ATOM     10  C   UNL     1       5.664   6.012  16.325  0.00  0.00    +0.000 A 
ATOM     11  C   UNL     1       4.483   5.932  17.064  0.00  0.00    +0.000 A 
ATOM     12  C   UNL     1       4.510   5.723  18.461  0.00  0.00    +0.000 A 
ATOM     13  C   UNL     1       5.769   5.554  19.074  0.00  0.00    +0.000 A 
ENDBRANCH   1  12
BRANCH   6  14
ATOM     14  S   UNL     1       3.087   2.795  19.372  0.00  0.00    +0.000 S 
ATOM     15  C   UNL     1       3.333   2.062  17.736  0.00  0.00    +0.000 C 
ATOM     16  O   UNL     1       4.153   2.329  20.375  0.00  0.00    +0.000 OA
ATOM     17  O   UNL     1       1.927   1.966  19.948  0.00  0.00    +0.000 OA
ENDBRANCH   6  14
BRANCH   3  18
ATOM     18  S   UNL     1       0.904   8.523  21.117  0.00  0.00    +0.000 S 
ATOM     19  O   UNL     1      -0.504   8.336  21.703  0.00  0.00    +0.000 OA
ATOM     20  O   UNL     1       1.694   8.872  22.388  0.00  0.00    +0.000 OA
BRANCH  18  21
ATOM     21  C   UNL     1       0.916   9.924  20.012  0.00  0.00    +0.000 A 
ATOM     22  C   UNL     1       1.433   9.926  18.726  0.00  0.00    +0.000 A 
ATOM     23  C   UNL     1       1.422  11.195  18.137  0.00  0.00    +0.000 A 
ATOM     24  C   UNL     1       0.905  12.180  18.973  0.00  0.00    +0.000 A 
ATOM     25  S   UNL     1       0.450  11.483  20.436  0.00  0.00    +0.000 S 
BRANCH  24  26
ATOM     26  C   UNL     1       0.797  13.634  18.637  0.00  0.00    +0.000 C 
BRANCH  26  27
ATOM     27  N   UNL     1      -0.607  14.016  18.509  0.00  0.00    +0.000 NA
ATOM     28  H   UNL     1      -1.060  13.974  19.452  0.00  0.00    +0.000 HD
ATOM     29  H   UNL     1      -1.087  13.317  17.896  0.00  0.00    +0.000 HD
ENDBRANCH  26  27
ENDBRANCH  24  26
ENDBRANCH  18  21
ENDBRANCH   3  18
TORSDOF 6
ENDMDL
MODEL 9
REMARK VINA RESULT:      -7.9      4.586      8.201
REMARK  Name = 
REMARK  8 active torsions:
REMARK  status: ('A' for Active; 'I' for Inactive)
REMARK    1  A    between atoms: C_1  and  C_2
REMARK    2  A    between atoms: C_6  and  C_7
REMARK    3  A    between atoms: C_9  and  S_10
REMARK    4  A    between atoms: S_10  and  C_13
REMARK    5  A    between atoms: C_16  and  C_17
REMARK    6  A    between atoms: C_17  and  N_18
REMARK    7  A    between atoms: C_22  and  S_23
REMARK    8  A    between atoms: S_23  and  C_24
REMARK                            x       y       z     vdW  Elec       q    Type
REMARK                         _______ _______ _______ _____ _____    ______ ____
ROOT
ATOM      1  C   UNL     1       2.519   6.480  19.236  0.00  0.00    +0.000 A 
ATOM      2  C   UNL     1       1.644   7.492  19.702  0.00  0.00    +0.000 A 
ATOM      3  C   UNL     1       1.629   8.767  19.126  0.00  0.00    +0.000 A 
ATOM      4  C   UNL     1       2.493   9.070  18.085  0.00  0.00    +0.000 A 
ATOM      5  C   UNL     1       3.354   8.103  17.598  0.00  0.00    +0.000 A 
ATOM      6  C   UNL     1       3.377   6.808  18.131  0.00  0.00    +0.000 A 
ENDROOT
BRANCH   1  12
ATOM      7  C   UNL     1       4.613   2.009  20.420  0.00  0.00    +0.000 C 
ATOM      8  C   UNL     1       3.443   2.947  20.455  0.00  0.00    +0.000 A 
ATOM      9  C   UNL     1       2.227   2.536  21.014  0.00  0.00    +0.000 A 
ATOM     10  C   UNL     1       1.140   3.403  21.032  0.00  0.00    +0.000 A 
ATOM     11  C   UNL     1       1.246   4.678  20.476  0.00  0.00    +0.000 A 
ATOM     12  C   UNL     1       2.450   5.117  19.881  0.00  0.00    +0.000 A 
ATOM     13  C   UNL     1       3.553   4.238  19.910  0.00  0.00    +0.000 A 
ENDBRANCH   1  12
BRANCH   6  14
ATOM     14  S   UNL     1       4.458   5.679  17.220  0.00  0.00    +0.000 S 
ATOM     15  C   UNL     1       6.118   5.219  17.774  0.00  0.00    +0.000 C 
ATOM     16  O   UNL     1       3.720   4.495  16.577  0.00  0.00    +0.000 OA
ATOM     17  O   UNL     1       4.733   6.447  15.916  0.00  0.00    +0.000 OA
ENDBRANCH   6  14
BRANCH   3  18
ATOM     18  S   UNL     1       0.419   9.984  19.621  0.00  0.00    +0.000 S 
ATOM     19  O   UNL     1      -0.057   9.704  21.056  0.00  0.00    +0.000 OA
ATOM     20  O   UNL     1       1.104  11.347  19.813  0.00  0.00    +0.000 OA
BRANCH  18  21
ATOM     21  C   UNL     1      -0.992  10.180  18.546  0.00  0.00    +0.000 A 
ATOM     22  C   UNL     1      -1.148   9.573  17.311  0.00  0.00    +0.000 A 
ATOM     23  C   UNL     1      -2.292  10.005  16.632  0.00  0.00    +0.000 A 
ATOM     24  C   UNL     1      -3.019  10.957  17.340  0.00  0.00    +0.000 A 
ATOM     25  S   UNL     1      -2.255  11.258  18.810  0.00  0.00    +0.000 S 
BRANCH  24  26
ATOM     26  C   UNL     1      -4.267  11.630  16.860  0.00  0.00    +0.000 C 
BRANCH  26  27
ATOM     27  N   UNL     1      -4.895  12.361  17.957  0.00  0.00    +0.000 NA
ATOM     28  H   UNL     1      -5.320  13.241  17.582  0.00  0.00    +0.000 HD
ATOM     29  H   UNL     1      -4.154  12.634  18.643  0.00  0.00    +0.000 HD
ENDBRANCH  26  27
ENDBRANCH  24  26
ENDBRANCH  18  21
ENDBRANCH   3  18
TORSDOF 6
ENDMDL
