MODEL 1
REMARK VINA RESULT:      -7.1      0.000      0.000
REMARK  Name = 
REMARK  4 active torsions:
REMARK  status: ('A' for Active; 'I' for Inactive)
REMARK    1  A    between atoms: C_1  and  C_2
REMARK    2  A    between atoms: C_6  and  C_7
REMARK    3  A    between atoms: N_8  and  S_9
REMARK    4  A    between atoms: S_9  and  C_12
REMARK                            x       y       z     vdW  Elec       q    Type
REMARK                         _______ _______ _______ _____ _____    ______ ____
ROOT
ATOM      1  S   UNL     1       7.161   5.105  16.396  0.00  0.00    +0.000 S 
ATOM      2  O   UNL     1       7.362   6.539  16.453  0.00  0.00    +0.000 OA
ATOM      3  O   UNL     1       8.164   4.201  16.919  0.00  0.00    +0.000 OA
ENDROOT
BRANCH   1  11
ATOM      4  C   UNL     1       6.520   5.426  19.502  0.00  0.00    +0.000 C 
ATOM      5  C   UNL     1       5.854   4.351  18.641  0.00  0.00    +0.000 C 
ATOM      6  C   UNL     1       4.545   3.865  19.275  0.00  0.00    +0.000 C 
ATOM      7  C   UNL     1       3.377   4.796  19.006  0.00  0.00    +0.000 C 
ATOM      8  C   UNL     1       3.205   4.936  17.503  0.00  0.00    +0.000 C 
ATOM      9  C   UNL     1       4.451   5.524  16.826  0.00  0.00    +0.000 C 
ATOM     10  C   UNL     1       4.541   7.029  17.048  0.00  0.00    +0.000 C 
ATOM     11  N   UNL     1       5.680   4.753  17.196  0.00  0.00    +0.000 NA
ENDBRANCH   1  11
BRANCH   1  12
ATOM     12  C   UNL     1       6.907   4.676  14.692  0.00  0.00    +0.000 A 
ATOM     13  C   UNL     1       7.727   5.250  13.713  0.00  0.00    +0.000 A 
ATOM     14  C   UNL     1       7.549   4.910  12.372  0.00  0.00    +0.000 A 
ATOM     15  C   UNL     1       6.556   3.995  12.016  0.00  0.00    +0.000 A 
ATOM     16  C   UNL     1       5.748   3.413  12.999  0.00  0.00    +0.000 A 
ATOM     17  C   UNL     1       5.929   3.745  14.344  0.00  0.00    +0.000 A 
ENDBRANCH   1  12
TORSDOF 2
ENDMDL
MODEL 2
REMARK VINA RESULT:      -7.1      2.619      3.884
REMARK  Name = 
REMARK  4 active torsions:
REMARK  status: ('A' for Active; 'I' for Inactive)
REMARK    1  A    between atoms: C_1  and  C_2
REMARK    2  A    between atoms: C_6  and  C_7
REMARK    3  A    between atoms: N_8  and  S_9
REMARK    4  A    between atoms: S_9  and  C_12
REMARK                            x       y       z     vdW  Elec       q    Type
REMARK                         _______ _______ _______ _____ _____    ______ ____
ROOT
ATOM      1  S   UNL     1       4.875   4.322  19.058  0.00  0.00    +0.000 S 
ATOM      2  O   UNL     1       5.240   5.494  19.828  0.00  0.00    +0.000 OA
ATOM      3  O   UNL     1       5.471   3.036  19.351  0.00  0.00    +0.000 OA
ENDROOT
BRANCH   1  11
ATOM      4  C   UNL     1       3.122   1.904  17.947  0.00  0.00    +0.000 C 
ATOM      5  C   UNL     1       2.577   3.330  18.033  0.00  0.00    +0.000 C 
ATOM      6  C   UNL     1       1.044   3.338  18.048  0.00  0.00    +0.000 C 
ATOM      7  C   UNL     1       0.464   3.039  19.419  0.00  0.00    +0.000 C 
ATOM      8  C   UNL     1       0.999   4.066  20.404  0.00  0.00    +0.000 C 
ATOM      9  C   UNL     1       2.529   4.028  20.513  0.00  0.00    +0.000 C 
ATOM     10  C   UNL     1       2.994   2.844  21.353  0.00  0.00    +0.000 C 
ATOM     11  N   UNL     1       3.169   4.138  19.163  0.00  0.00    +0.000 NA
ENDBRANCH   1  11
BRANCH   1  12
ATOM     12  C   UNL     1       5.222   4.683  17.354  0.00  0.00    +0.000 A 
ATOM     13  C   UNL     1       4.901   5.947  16.844  0.00  0.00    +0.000 A 
ATOM     14  C   UNL     1       5.182   6.249  15.511  0.00  0.00    +0.000 A 
ATOM     15  C   UNL     1       5.785   5.289  14.697  0.00  0.00    +0.000 A 
ATOM     16  C   UNL     1       6.116   4.032  15.214  0.00  0.00    +0.000 A 
ATOM     17  C   UNL     1       5.844   3.728  16.550  0.00  0.00    +0.000 A 
ENDBRANCH   1  12
TORSDOF 2
ENDMDL
MODEL 3
REMARK VINA RESULT:      -7.1      0.031      1.177
REMARK  Name = 
REMARK  4 active torsions:
REMARK  status: ('A' for Active; 'I' for Inactive)
REMARK    1  A    between atoms: C_1  and  C_2
REMARK    2  A    between atoms: C_6  and  C_7
REMARK    3  A    between atoms: N_8  and  S_9
REMARK    4  A    between atoms: S_9  and  C_12
REMARK                            x       y       z     vdW  Elec       q    Type
REMARK                         _______ _______ _______ _____ _____    ______ ____
ROOT
ATOM      1  S   UNL     1       7.167   5.104  16.395  0.00  0.00    +0.000 S 
ATOM      2  O   UNL     1       7.358   6.540  16.440  0.00  0.00    +0.000 OA
ATOM      3  O   UNL     1       8.174   4.213  16.931  0.00  0.00    +0.000 OA
ENDROOT
BRANCH   1  11
ATOM      4  C   UNL     1       6.519   5.419  19.500  0.00  0.00    +0.000 C 
ATOM      5  C   UNL     1       5.856   4.345  18.636  0.00  0.00    +0.000 C 
ATOM      6  C   UNL     1       4.546   3.857  19.266  0.00  0.00    +0.000 C 
ATOM      7  C   UNL     1       3.377   4.787  18.997  0.00  0.00    +0.000 C 
ATOM      8  C   UNL     1       3.208   4.929  17.493  0.00  0.00    +0.000 C 
ATOM      9  C   UNL     1       4.455   5.520  16.820  0.00  0.00    +0.000 C 
ATOM     10  C   UNL     1       4.543   7.025  17.045  0.00  0.00    +0.000 C 
ATOM     11  N   UNL     1       5.685   4.749  17.192  0.00  0.00    +0.000 NA
ENDBRANCH   1  11
BRANCH   1  12
ATOM     12  C   UNL     1       6.924   4.657  14.694  0.00  0.00    +0.000 A 
ATOM     13  C   UNL     1       5.900   3.763  14.362  0.00  0.00    +0.000 A 
ATOM     14  C   UNL     1       5.688   3.414  13.028  0.00  0.00    +0.000 A 
ATOM     15  C   UNL     1       6.498   3.964  12.033  0.00  0.00    +0.000 A 
ATOM     16  C   UNL     1       7.511   4.869  12.367  0.00  0.00    +0.000 A 
ATOM     17  C   UNL     1       7.721   5.227  13.701  0.00  0.00    +0.000 A 
ENDBRANCH   1  12
TORSDOF 2
ENDMDL
MODEL 4
REMARK VINA RESULT:      -7.0      2.812      6.000
REMARK  Name = 
REMARK  4 active torsions:
REMARK  status: ('A' for Active; 'I' for Inactive)
REMARK    1  A    between atoms: C_1  and  C_2
REMARK    2  A    between atoms: C_6  and  C_7
REMARK    3  A    between atoms: N_8  and  S_9
REMARK    4  A    between atoms: S_9  and  C_12
REMARK                            x       y       z     vdW  Elec       q    Type
REMARK                         _______ _______ _______ _____ _____    ______ ____
ROOT
ATOM      1  S   UNL     1       3.636   3.095  17.617  0.00  0.00    +0.000 S 
ATOM      2  O   UNL     1       2.790   3.773  16.655  0.00  0.00    +0.000 OA
ATOM      3  O   UNL     1       4.026   1.717  17.407  0.00  0.00    +0.000 OA
ENDROOT
BRANCH   1  11
ATOM      4  C   UNL     1       5.387   4.399  15.295  0.00  0.00    +0.000 C 
ATOM      5  C   UNL     1       6.006   3.918  16.608  0.00  0.00    +0.000 C 
ATOM      6  C   UNL     1       7.356   4.598  16.866  0.00  0.00    +0.000 C 
ATOM      7  C   UNL     1       7.214   5.992  17.450  0.00  0.00    +0.000 C 
ATOM      8  C   UNL     1       6.426   5.896  18.746  0.00  0.00    +0.000 C 
ATOM      9  C   UNL     1       5.018   5.322  18.530  0.00  0.00    +0.000 C 
ATOM     10  C   UNL     1       4.083   6.365  17.930  0.00  0.00    +0.000 C 
ATOM     11  N   UNL     1       5.075   4.020  17.791  0.00  0.00    +0.000 NA
ENDBRANCH   1  11
BRANCH   1  12
ATOM     12  C   UNL     1       2.814   3.172  19.189  0.00  0.00    +0.000 A 
ATOM     13  C   UNL     1       1.588   3.842  19.287  0.00  0.00    +0.000 A 
ATOM     14  C   UNL     1       0.923   3.897  20.513  0.00  0.00    +0.000 A 
ATOM     15  C   UNL     1       1.485   3.280  21.632  0.00  0.00    +0.000 A 
ATOM     16  C   UNL     1       2.703   2.601  21.526  0.00  0.00    +0.000 A 
ATOM     17  C   UNL     1       3.368   2.536  20.299  0.00  0.00    +0.000 A 
ENDBRANCH   1  12
TORSDOF 2
ENDMDL
MODEL 5
REMARK VINA RESULT:      -7.0      2.668      3.603
REMARK  Name = 
REMARK  4 active torsions:
REMARK  status: ('A' for Active; 'I' for Inactive)
REMARK    1  A    between atoms: C_1  and  C_2
REMARK    2  A    between atoms: C_6  and  C_7
REMARK    3  A    between atoms: N_8  and  S_9
REMARK    4  A    between atoms: S_9  and  C_12
REMARK                            x       y       z     vdW  Elec       q    Type
REMARK                         _______ _______ _______ _____ _____    ______ ____
ROOT
ATOM      1  S   UNL     1       4.266   5.438  18.848  0.00  0.00    +0.000 S 
ATOM      2  O   UNL     1       3.443   6.629  18.786  0.00  0.00    +0.000 OA
ATOM      3  O   UNL     1       5.379   5.362  19.771  0.00  0.00    +0.000 OA
ENDROOT
BRANCH   1  11
ATOM      4  C   UNL     1       1.826   5.340  20.895  0.00  0.00    +0.000 C 
ATOM      5  C   UNL     1       2.666   4.104  20.573  0.00  0.00    +0.000 C 
ATOM      6  C   UNL     1       1.901   2.814  20.895  0.00  0.00    +0.000 C 
ATOM      7  C   UNL     1       0.917   2.422  19.807  0.00  0.00    +0.000 C 
ATOM      8  C   UNL     1       1.678   2.262  18.501  0.00  0.00    +0.000 C 
ATOM      9  C   UNL     1       2.376   3.560  18.071  0.00  0.00    +0.000 C 
ATOM     10  C   UNL     1       1.381   4.551  17.477  0.00  0.00    +0.000 C 
ATOM     11  N   UNL     1       3.232   4.103  19.173  0.00  0.00    +0.000 NA
ENDBRANCH   1  11
BRANCH   1  12
ATOM     12  C   UNL     1       4.919   5.162  17.219  0.00  0.00    +0.000 A 
ATOM     13  C   UNL     1       4.919   6.215  16.296  0.00  0.00    +0.000 A 
ATOM     14  C   UNL     1       5.443   6.017  15.019  0.00  0.00    +0.000 A 
ATOM     15  C   UNL     1       5.966   4.771  14.671  0.00  0.00    +0.000 A 
ATOM     16  C   UNL     1       5.976   3.725  15.601  0.00  0.00    +0.000 A 
ATOM     17  C   UNL     1       5.461   3.922  16.884  0.00  0.00    +0.000 A 
ENDBRANCH   1  12
TORSDOF 2
ENDMDL
MODEL 6
REMARK VINA RESULT:      -7.0      2.614      3.921
REMARK  Name = 
REMARK  4 active torsions:
REMARK  status: ('A' for Active; 'I' for Inactive)
REMARK    1  A    between atoms: C_1  and  C_2
REMARK    2  A    between atoms: C_6  and  C_7
REMARK    3  A    between atoms: N_8  and  S_9
REMARK    4  A    between atoms: S_9  and  C_12
REMARK                            x       y       z     vdW  Elec       q    Type
REMARK                         _______ _______ _______ _____ _____    ______ ____
ROOT
ATOM      1  S   UNL     1       4.880   4.335  19.060  0.00  0.00    +0.000 S 
ATOM      2  O   UNL     1       5.234   5.498  19.849  0.00  0.00    +0.000 OA
ATOM      3  O   UNL     1       5.479   3.048  19.342  0.00  0.00    +0.000 OA
ENDROOT
BRANCH   1  11
ATOM      4  C   UNL     1       3.151   1.900  17.948  0.00  0.00    +0.000 C 
ATOM      5  C   UNL     1       2.598   3.324  18.018  0.00  0.00    +0.000 C 
ATOM      6  C   UNL     1       1.065   3.324  18.018  0.00  0.00    +0.000 C 
ATOM      7  C   UNL     1       0.472   3.033  19.384  0.00  0.00    +0.000 C 
ATOM      8  C   UNL     1       0.991   4.069  20.368  0.00  0.00    +0.000 C 
ATOM      9  C   UNL     1       2.521   4.040  20.492  0.00  0.00    +0.000 C 
ATOM     10  C   UNL     1       2.982   2.864  21.347  0.00  0.00    +0.000 C 
ATOM     11  N   UNL     1       3.173   4.143  19.148  0.00  0.00    +0.000 NA
ENDBRANCH   1  11
BRANCH   1  12
ATOM     12  C   UNL     1       5.239   4.719  17.364  0.00  0.00    +0.000 A 
ATOM     13  C   UNL     1       5.838   3.746  16.555  0.00  0.00    +0.000 A 
ATOM     14  C   UNL     1       6.111   4.029  15.216  0.00  0.00    +0.000 A 
ATOM     15  C   UNL     1       5.782   5.280  14.693  0.00  0.00    +0.000 A 
ATOM     16  C   UNL     1       5.171   6.245  15.501  0.00  0.00    +0.000 A 
ATOM     17  C   UNL     1       4.888   5.963  16.839  0.00  0.00    +0.000 A 
ENDBRANCH   1  12
TORSDOF 2
ENDMDL
MODEL 7
REMARK VINA RESULT:      -7.0      2.815      5.996
REMARK  Name = 
REMARK  4 active torsions:
REMARK  status: ('A' for Active; 'I' for Inactive)
REMARK    1  A    between atoms: C_1  and  C_2
REMARK    2  A    between atoms: C_6  and  C_7
REMARK    3  A    between atoms: N_8  and  S_9
REMARK    4  A    between atoms: S_9  and  C_12
REMARK                            x       y       z     vdW  Elec       q    Type
REMARK                         _______ _______ _______ _____ _____    ______ ____
ROOT
ATOM      1  S   UNL     1       3.628   3.090  17.636  0.00  0.00    +0.000 S 
ATOM      2  O   UNL     1       2.806   3.788  16.668  0.00  0.00    +0.000 OA
ATOM      3  O   UNL     1       4.011   1.711  17.416  0.00  0.00    +0.000 OA
ENDROOT
BRANCH   1  11
ATOM      4  C   UNL     1       5.408   4.447  15.367  0.00  0.00    +0.000 C 
ATOM      5  C   UNL     1       6.013   3.926  16.671  0.00  0.00    +0.000 C 
ATOM      6  C   UNL     1       7.365   4.589  16.960  0.00  0.00    +0.000 C 
ATOM      7  C   UNL     1       7.227   5.967  17.582  0.00  0.00    +0.000 C 
ATOM      8  C   UNL     1       6.426   5.839  18.868  0.00  0.00    +0.000 C 
ATOM      9  C   UNL     1       5.017   5.281  18.623  0.00  0.00    +0.000 C 
ATOM     10  C   UNL     1       4.093   6.347  18.045  0.00  0.00    +0.000 C 
ATOM     11  N   UNL     1       5.071   4.000  17.849  0.00  0.00    +0.000 NA
ENDBRANCH   1  11
BRANCH   1  12
ATOM     12  C   UNL     1       2.777   3.155  19.193  0.00  0.00    +0.000 A 
ATOM     13  C   UNL     1       3.348   2.531  20.310  0.00  0.00    +0.000 A 
ATOM     14  C   UNL     1       2.698   2.587  21.543  0.00  0.00    +0.000 A 
ATOM     15  C   UNL     1       1.485   3.269  21.655  0.00  0.00    +0.000 A 
ATOM     16  C   UNL     1       0.925   3.902  20.540  0.00  0.00    +0.000 A 
ATOM     17  C   UNL     1       1.577   3.855  19.306  0.00  0.00    +0.000 A 
ENDBRANCH   1  12
TORSDOF 2
ENDMDL
MODEL 8
REMARK VINA RESULT:      -7.0      2.665      3.684
REMARK  Name = 
REMARK  4 active torsions:
REMARK  status: ('A' for Active; 'I' for Inactive)
REMARK    1  A    between atoms: C_1  and  C_2
REMARK    2  A    between atoms: C_6  and  C_7
REMARK    3  A    between atoms: N_8  and  S_9
REMARK    4  A    between atoms: S_9  and  C_12
REMARK                            x       y       z     vdW  Elec       q    Type
REMARK                         _______ _______ _______ _____ _____    ______ ____
ROOT
ATOM      1  S   UNL     1       4.275   5.435  18.850  0.00  0.00    +0.000 S 
ATOM      2  O   UNL     1       3.448   6.623  18.800  0.00  0.00    +0.000 OA
ATOM      3  O   UNL     1       5.382   5.349  19.780  0.00  0.00    +0.000 OA
ENDROOT
BRANCH   1  11
ATOM      4  C   UNL     1       1.851   5.282  20.913  0.00  0.00    +0.000 C 
ATOM      5  C   UNL     1       2.689   4.055  20.552  0.00  0.00    +0.000 C 
ATOM      6  C   UNL     1       1.928   2.756  20.845  0.00  0.00    +0.000 C 
ATOM      7  C   UNL     1       0.935   2.393  19.756  0.00  0.00    +0.000 C 
ATOM      8  C   UNL     1       1.686   2.268  18.440  0.00  0.00    +0.000 C 
ATOM      9  C   UNL     1       2.380   3.577  18.038  0.00  0.00    +0.000 C 
ATOM     10  C   UNL     1       1.380   4.582  17.479  0.00  0.00    +0.000 C 
ATOM     11  N   UNL     1       3.244   4.091  19.148  0.00  0.00    +0.000 NA
ENDBRANCH   1  11
BRANCH   1  12
ATOM     12  C   UNL     1       4.940   5.186  17.223  0.00  0.00    +0.000 A 
ATOM     13  C   UNL     1       5.459   3.932  16.881  0.00  0.00    +0.000 A 
ATOM     14  C   UNL     1       5.971   3.717  15.600  0.00  0.00    +0.000 A 
ATOM     15  C   UNL     1       5.957   4.756  14.668  0.00  0.00    +0.000 A 
ATOM     16  C   UNL     1       5.425   6.004  15.009  0.00  0.00    +0.000 A 
ATOM     17  C   UNL     1       4.904   6.220  16.287  0.00  0.00    +0.000 A 
ENDBRANCH   1  12
TORSDOF 2
ENDMDL
MODEL 9
REMARK VINA RESULT:      -7.0      2.582      3.611
REMARK  Name = 
REMARK  4 active torsions:
REMARK  status: ('A' for Active; 'I' for Inactive)
REMARK    1  A    between atoms: C_1  and  C_2
REMARK    2  A    between atoms: C_6  and  C_7
REMARK    3  A    between atoms: N_8  and  S_9
REMARK    4  A    between atoms: S_9  and  C_12
REMARK                            x       y       z     vdW  Elec       q    Type
REMARK                         _______ _______ _______ _____ _____    ______ ____
ROOT
ATOM      1  S   UNL     1       4.163   5.582  18.590  0.00  0.00    +0.000 S 
ATOM      2  O   UNL     1       3.463   6.809  18.270  0.00  0.00    +0.000 OA
ATOM      3  O   UNL     1       4.901   5.460  19.830  0.00  0.00    +0.000 OA
ENDROOT
BRANCH   1  11
ATOM      4  C   UNL     1       4.516   2.635  19.751  0.00  0.00    +0.000 C 
ATOM      5  C   UNL     1       3.650   2.927  18.525  0.00  0.00    +0.000 C 
ATOM      6  C   UNL     1       2.622   1.814  18.293  0.00  0.00    +0.000 C 
ATOM      7  C   UNL     1       1.398   1.944  19.182  0.00  0.00    +0.000 C 
ATOM      8  C   UNL     1       0.760   3.300  18.929  0.00  0.00    +0.000 C 
ATOM      9  C   UNL     1       1.711   4.461  19.251  0.00  0.00    +0.000 C 
ATOM     10  C   UNL     1       1.816   4.688  20.755  0.00  0.00    +0.000 C 
ATOM     11  N   UNL     1       3.020   4.299  18.540  0.00  0.00    +0.000 NA
ENDBRANCH   1  11
BRANCH   1  12
ATOM     12  C   UNL     1       5.306   5.267  17.268  0.00  0.00    +0.000 A 
ATOM     13  C   UNL     1       6.598   4.824  17.573  0.00  0.00    +0.000 A 
ATOM     14  C   UNL     1       7.502   4.557  16.543  0.00  0.00    +0.000 A 
ATOM     15  C   UNL     1       7.108   4.732  15.216  0.00  0.00    +0.000 A 
ATOM     16  C   UNL     1       5.810   5.162  14.915  0.00  0.00    +0.000 A 
ATOM     17  C   UNL     1       4.900   5.421  15.942  0.00  0.00    +0.000 A 
ENDBRANCH   1  12
TORSDOF 2
ENDMDL
