MODEL 1
REMARK VINA RESULT:      -7.9      0.000      0.000
REMARK  Name = 
REMARK  4 active torsions:
REMARK  status: ('A' for Active; 'I' for Inactive)
REMARK    1  A    between atoms: C_1  and  C_2
REMARK    2  A    between atoms: C_8  and  C_10
REMARK    3  A    between atoms: C_10  and  S_11
REMARK    4  A    between atoms: S_11  and  C_12
REMARK                            x       y       z     vdW  Elec       q    Type
REMARK                         _______ _______ _______ _____ _____    ______ ____
ROOT
ATOM      1  C   UNL     1       6.776   5.253  17.341  0.00  0.00    +0.000 A 
ATOM      2  N   UNL     1       6.914   6.499  16.892  0.00  0.00    +0.000 NA
ATOM      3  C   UNL     1       7.654   7.276  17.661  0.00  0.00    +0.000 A 
ATOM      4  N   UNL     1       7.826   8.588  17.262  0.00  0.00    +0.000 N 
ATOM      5  N   UNL     1       8.196   6.918  18.813  0.00  0.00    +0.000 NA
ATOM      6  C   UNL     1       7.996   5.659  19.161  0.00  0.00    +0.000 A 
ATOM      7  N   UNL     1       8.535   5.234  20.359  0.00  0.00    +0.000 N 
ATOM      8  N   UNL     1       7.271   4.789  18.483  0.00  0.00    +0.000 NA
ATOM      9  H   UNL     1       7.064   8.886  16.670  0.00  0.00    +0.000 HD
ATOM     10  H   UNL     1       8.049   9.168  18.059  0.00  0.00    +0.000 HD
ATOM     11  H   UNL     1       8.685   6.010  20.986  0.00  0.00    +0.000 HD
ATOM     12  H   UNL     1       8.032   4.431  20.711  0.00  0.00    +0.000 HD
ENDROOT
BRANCH   1  13
ATOM     13  S   UNL     1       5.740   4.140  16.419  0.00  0.00    +0.000 S 
BRANCH  13  14
ATOM     14  C   UNL     1       4.131   4.954  16.672  0.00  0.00    +0.000 C 
BRANCH  14  22
ATOM     15  C   UNL     1       3.538   1.700  18.687  0.00  0.00    +0.000 C 
ATOM     16  C   UNL     1       2.656   2.852  18.192  0.00  0.00    +0.000 C 
ATOM     17  C   UNL     1       1.165   2.595  18.456  0.00  0.00    +0.000 C 
ATOM     18  C   UNL     1       0.798   2.728  19.931  0.00  0.00    +0.000 C 
ATOM     19  C   UNL     1       1.270   4.067  20.489  0.00  0.00    +0.000 C 
ATOM     20  C   UNL     1       2.751   4.308  20.212  0.00  0.00    +0.000 C 
ATOM     21  N   UNL     1       3.063   4.138  18.789  0.00  0.00    +0.000 N 
ATOM     22  C   UNL     1       3.795   5.142  18.151  0.00  0.00    +0.000 C 
ATOM     23  O   UNL     1       4.103   6.179  18.746  0.00  0.00    +0.000 OA
ENDBRANCH  14  22
ENDBRANCH  13  14
ENDBRANCH   1  13
TORSDOF 3
ENDMDL
MODEL 2
REMARK VINA RESULT:      -7.7      2.892      3.745
REMARK  Name = 
REMARK  4 active torsions:
REMARK  status: ('A' for Active; 'I' for Inactive)
REMARK    1  A    between atoms: C_1  and  C_2
REMARK    2  A    between atoms: C_8  and  C_10
REMARK    3  A    between atoms: C_10  and  S_11
REMARK    4  A    between atoms: S_11  and  C_12
REMARK                            x       y       z     vdW  Elec       q    Type
REMARK                         _______ _______ _______ _____ _____    ______ ____
ROOT
ATOM      1  C   UNL     1       6.694   4.503  15.008  0.00  0.00    +0.000 A 
ATOM      2  N   UNL     1       7.635   5.351  14.596  0.00  0.00    +0.000 NA
ATOM      3  C   UNL     1       7.888   5.296  13.302  0.00  0.00    +0.000 A 
ATOM      4  N   UNL     1       8.866   6.139  12.809  0.00  0.00    +0.000 N 
ATOM      5  N   UNL     1       7.324   4.457  12.448  0.00  0.00    +0.000 NA
ATOM      6  C   UNL     1       6.405   3.661  12.965  0.00  0.00    +0.000 A 
ATOM      7  N   UNL     1       5.789   2.762  12.118  0.00  0.00    +0.000 N 
ATOM      8  N   UNL     1       6.069   3.618  14.241  0.00  0.00    +0.000 NA
ATOM      9  H   UNL     1       9.520   6.394  13.534  0.00  0.00    +0.000 HD
ATOM     10  H   UNL     1       9.247   5.766  11.949  0.00  0.00    +0.000 HD
ATOM     11  H   UNL     1       6.368   2.564  11.316  0.00  0.00    +0.000 HD
ATOM     12  H   UNL     1       5.418   1.980  12.639  0.00  0.00    +0.000 HD
ENDROOT
BRANCH   1  13
ATOM     13  S   UNL     1       6.323   4.443  16.747  0.00  0.00    +0.000 S 
BRANCH  13  14
ATOM     14  C   UNL     1       4.512   4.274  16.659  0.00  0.00    +0.000 C 
BRANCH  14  22
ATOM     15  C   UNL     1       4.381   2.351  20.018  0.00  0.00    +0.000 C 
ATOM     16  C   UNL     1       3.358   2.745  18.946  0.00  0.00    +0.000 C 
ATOM     17  C   UNL     1       1.976   2.129  19.210  0.00  0.00    +0.000 C 
ATOM     18  C   UNL     1       1.252   2.788  20.380  0.00  0.00    +0.000 C 
ATOM     19  C   UNL     1       1.193   4.301  20.198  0.00  0.00    +0.000 C 
ATOM     20  C   UNL     1       2.574   4.895  19.932  0.00  0.00    +0.000 C 
ATOM     21  N   UNL     1       3.245   4.210  18.822  0.00  0.00    +0.000 N 
ATOM     22  C   UNL     1       3.801   4.991  17.806  0.00  0.00    +0.000 C 
ATOM     23  O   UNL     1       3.664   6.218  17.801  0.00  0.00    +0.000 OA
ENDBRANCH  14  22
ENDBRANCH  13  14
ENDBRANCH   1  13
TORSDOF 3
ENDMDL
MODEL 3
REMARK VINA RESULT:      -7.7      0.357      1.866
REMARK  Name = 
REMARK  4 active torsions:
REMARK  status: ('A' for Active; 'I' for Inactive)
REMARK    1  A    between atoms: C_1  and  C_2
REMARK    2  A    between atoms: C_8  and  C_10
REMARK    3  A    between atoms: C_10  and  S_11
REMARK    4  A    between atoms: S_11  and  C_12
REMARK                            x       y       z     vdW  Elec       q    Type
REMARK                         _______ _______ _______ _____ _____    ______ ____
ROOT
ATOM      1  C   UNL     1       6.592   5.137  17.514  0.00  0.00    +0.000 A 
ATOM      2  N   UNL     1       7.127   4.713  18.658  0.00  0.00    +0.000 NA
ATOM      3  C   UNL     1       7.861   5.614  19.283  0.00  0.00    +0.000 A 
ATOM      4  N   UNL     1       8.459   5.235  20.470  0.00  0.00    +0.000 N 
ATOM      5  N   UNL     1       8.120   6.832  18.836  0.00  0.00    +0.000 NA
ATOM      6  C   UNL     1       7.539   7.147  17.692  0.00  0.00    +0.000 A 
ATOM      7  N   UNL     1       7.782   8.405  17.177  0.00  0.00    +0.000 N 
ATOM      8  N   UNL     1       6.790   6.333  16.972  0.00  0.00    +0.000 NA
ATOM      9  H   UNL     1       8.586   4.235  20.506  0.00  0.00    +0.000 HD
ATOM     10  H   UNL     1       9.269   5.813  20.652  0.00  0.00    +0.000 HD
ATOM     11  H   UNL     1       8.649   8.780  17.529  0.00  0.00    +0.000 HD
ATOM     12  H   UNL     1       7.632   8.415  16.178  0.00  0.00    +0.000 HD
ENDROOT
BRANCH   1  13
ATOM     13  S   UNL     1       5.642   3.981  16.553  0.00  0.00    +0.000 S 
BRANCH  13  14
ATOM     14  C   UNL     1       4.016   4.798  16.628  0.00  0.00    +0.000 C 
BRANCH  14  22
ATOM     15  C   UNL     1       3.882   1.999  19.301  0.00  0.00    +0.000 C 
ATOM     16  C   UNL     1       2.847   2.885  18.596  0.00  0.00    +0.000 C 
ATOM     17  C   UNL     1       1.407   2.485  18.947  0.00  0.00    +0.000 C 
ATOM     18  C   UNL     1       1.018   2.876  20.370  0.00  0.00    +0.000 C 
ATOM     19  C   UNL     1       1.293   4.356  20.619  0.00  0.00    +0.000 C 
ATOM     20  C   UNL     1       2.726   4.736  20.259  0.00  0.00    +0.000 C 
ATOM     21  N   UNL     1       3.066   4.312  18.897  0.00  0.00    +0.000 N 
ATOM     22  C   UNL     1       3.651   5.248  18.041  0.00  0.00    +0.000 C 
ATOM     23  O   UNL     1       3.806   6.421  18.395  0.00  0.00    +0.000 OA
ENDBRANCH  14  22
ENDBRANCH  13  14
ENDBRANCH   1  13
TORSDOF 3
ENDMDL
MODEL 4
REMARK VINA RESULT:      -7.6      1.330      2.060
REMARK  Name = 
REMARK  4 active torsions:
REMARK  status: ('A' for Active; 'I' for Inactive)
REMARK    1  A    between atoms: C_1  and  C_2
REMARK    2  A    between atoms: C_8  and  C_10
REMARK    3  A    between atoms: C_10  and  S_11
REMARK    4  A    between atoms: S_11  and  C_12
REMARK                            x       y       z     vdW  Elec       q    Type
REMARK                         _______ _______ _______ _____ _____    ______ ____
ROOT
ATOM      1  C   UNL     1       6.426   5.232  17.632  0.00  0.00    +0.000 A 
ATOM      2  N   UNL     1       6.626   6.431  17.085  0.00  0.00    +0.000 NA
ATOM      3  C   UNL     1       7.517   7.175  17.714  0.00  0.00    +0.000 A 
ATOM      4  N   UNL     1       7.761   8.437  17.209  0.00  0.00    +0.000 N 
ATOM      5  N   UNL     1       8.150   6.833  18.824  0.00  0.00    +0.000 NA
ATOM      6  C   UNL     1       7.876   5.622  19.278  0.00  0.00    +0.000 A 
ATOM      7  N   UNL     1       8.506   5.218  20.438  0.00  0.00    +0.000 N 
ATOM      8  N   UNL     1       7.003   4.790  18.743  0.00  0.00    +0.000 NA
ATOM      9  H   UNL     1       6.969   8.774  16.683  0.00  0.00    +0.000 HD
ATOM     10  H   UNL     1       8.126   9.039  17.936  0.00  0.00    +0.000 HD
ATOM     11  H   UNL     1       8.797   6.011  20.989  0.00  0.00    +0.000 HD
ATOM     12  H   UNL     1       7.975   4.491  20.897  0.00  0.00    +0.000 HD
ENDROOT
BRANCH   1  13
ATOM     13  S   UNL     1       5.194   4.175  16.906  0.00  0.00    +0.000 S 
BRANCH  13  14
ATOM     14  C   UNL     1       3.696   5.092  17.386  0.00  0.00    +0.000 C 
BRANCH  14  22
ATOM     15  C   UNL     1       1.579   6.024  20.493  0.00  0.00    +0.000 C 
ATOM     16  C   UNL     1       2.556   4.897  20.137  0.00  0.00    +0.000 C 
ATOM     17  C   UNL     1       2.856   3.989  21.339  0.00  0.00    +0.000 C 
ATOM     18  C   UNL     1       1.682   3.083  21.699  0.00  0.00    +0.000 C 
ATOM     19  C   UNL     1       1.207   2.301  20.478  0.00  0.00    +0.000 C 
ATOM     20  C   UNL     1       0.919   3.218  19.293  0.00  0.00    +0.000 C 
ATOM     21  N   UNL     1       2.061   4.092  19.005  0.00  0.00    +0.000 N 
ATOM     22  C   UNL     1       2.516   4.169  17.686  0.00  0.00    +0.000 C 
ATOM     23  O   UNL     1       2.022   3.461  16.802  0.00  0.00    +0.000 OA
ENDBRANCH  14  22
ENDBRANCH  13  14
ENDBRANCH   1  13
TORSDOF 3
ENDMDL
MODEL 5
REMARK VINA RESULT:      -7.5      2.893      3.913
REMARK  Name = 
REMARK  4 active torsions:
REMARK  status: ('A' for Active; 'I' for Inactive)
REMARK    1  A    between atoms: C_1  and  C_2
REMARK    2  A    between atoms: C_8  and  C_10
REMARK    3  A    between atoms: C_10  and  S_11
REMARK    4  A    between atoms: S_11  and  C_12
REMARK                            x       y       z     vdW  Elec       q    Type
REMARK                         _______ _______ _______ _____ _____    ______ ____
ROOT
ATOM      1  C   UNL     1       6.748   4.488  15.014  0.00  0.00    +0.000 A 
ATOM      2  N   UNL     1       6.054   3.615  14.284  0.00  0.00    +0.000 NA
ATOM      3  C   UNL     1       6.342   3.632  12.996  0.00  0.00    +0.000 A 
ATOM      4  N   UNL     1       5.647   2.762  12.178  0.00  0.00    +0.000 N 
ATOM      5  N   UNL     1       7.198   4.457  12.415  0.00  0.00    +0.000 NA
ATOM      6  C   UNL     1       7.830   5.280  13.234  0.00  0.00    +0.000 A 
ATOM      7  N   UNL     1       8.731   6.166  12.678  0.00  0.00    +0.000 N 
ATOM      8  N   UNL     1       7.625   5.362  14.535  0.00  0.00    +0.000 NA
ATOM      9  H   UNL     1       4.758   2.517  12.586  0.00  0.00    +0.000 HD
ATOM     10  H   UNL     1       5.642   3.106  11.227  0.00  0.00    +0.000 HD
ATOM     11  H   UNL     1       8.522   6.334  11.706  0.00  0.00    +0.000 HD
ATOM     12  H   UNL     1       8.859   6.967  13.281  0.00  0.00    +0.000 HD
ENDROOT
BRANCH   1  13
ATOM     13  S   UNL     1       6.389   4.599  16.752  0.00  0.00    +0.000 S 
BRANCH  13  14
ATOM     14  C   UNL     1       4.588   4.335  16.701  0.00  0.00    +0.000 C 
BRANCH  14  22
ATOM     15  C   UNL     1       4.348   2.331  20.006  0.00  0.00    +0.000 C 
ATOM     16  C   UNL     1       3.357   2.768  18.921  0.00  0.00    +0.000 C 
ATOM     17  C   UNL     1       1.960   2.167  19.137  0.00  0.00    +0.000 C 
ATOM     18  C   UNL     1       1.218   2.808  20.307  0.00  0.00    +0.000 C 
ATOM     19  C   UNL     1       1.187   4.326  20.161  0.00  0.00    +0.000 C 
ATOM     20  C   UNL     1       2.581   4.905  19.942  0.00  0.00    +0.000 C 
ATOM     21  N   UNL     1       3.268   4.237  18.832  0.00  0.00    +0.000 N 
ATOM     22  C   UNL     1       3.860   5.034  17.849  0.00  0.00    +0.000 C 
ATOM     23  O   UNL     1       3.741   6.263  17.871  0.00  0.00    +0.000 OA
ENDBRANCH  14  22
ENDBRANCH  13  14
ENDBRANCH   1  13
TORSDOF 3
ENDMDL
MODEL 6
REMARK VINA RESULT:      -7.4      2.910      3.748
REMARK  Name = 
REMARK  4 active torsions:
REMARK  status: ('A' for Active; 'I' for Inactive)
REMARK    1  A    between atoms: C_1  and  C_2
REMARK    2  A    between atoms: C_8  and  C_10
REMARK    3  A    between atoms: C_10  and  S_11
REMARK    4  A    between atoms: S_11  and  C_12
REMARK                            x       y       z     vdW  Elec       q    Type
REMARK                         _______ _______ _______ _____ _____    ______ ____
ROOT
ATOM      1  C   UNL     1       6.990   4.607  15.020  0.00  0.00    +0.000 A 
ATOM      2  N   UNL     1       7.799   5.484  14.427  0.00  0.00    +0.000 NA
ATOM      3  C   UNL     1       7.813   5.407  13.109  0.00  0.00    +0.000 A 
ATOM      4  N   UNL     1       8.643   6.278  12.430  0.00  0.00    +0.000 N 
ATOM      5  N   UNL     1       7.142   4.523  12.389  0.00  0.00    +0.000 NA
ATOM      6  C   UNL     1       6.371   3.702  13.080  0.00  0.00    +0.000 A 
ATOM      7  N   UNL     1       5.653   2.755  12.376  0.00  0.00    +0.000 N 
ATOM      8  N   UNL     1       6.277   3.677  14.396  0.00  0.00    +0.000 NA
ATOM      9  H   UNL     1       9.407   6.578  13.018  0.00  0.00    +0.000 HD
ATOM     10  H   UNL     1       8.877   5.899  11.522  0.00  0.00    +0.000 HD
ATOM     11  H   UNL     1       6.084   2.562  11.485  0.00  0.00    +0.000 HD
ATOM     12  H   UNL     1       5.420   1.972  12.970  0.00  0.00    +0.000 HD
ENDROOT
BRANCH   1  13
ATOM     13  S   UNL     1       6.948   4.576  16.798  0.00  0.00    +0.000 S 
BRANCH  13  14
ATOM     14  C   UNL     1       5.186   4.957  17.060  0.00  0.00    +0.000 C 
BRANCH  14  22
ATOM     15  C   UNL     1       3.116   1.840  18.062  0.00  0.00    +0.000 C 
ATOM     16  C   UNL     1       2.830   3.340  17.918  0.00  0.00    +0.000 C 
ATOM     17  C   UNL     1       1.340   3.665  18.100  0.00  0.00    +0.000 C 
ATOM     18  C   UNL     1       0.886   3.548  19.552  0.00  0.00    +0.000 C 
ATOM     19  C   UNL     1       1.782   4.376  20.468  0.00  0.00    +0.000 C 
ATOM     20  C   UNL     1       3.258   4.043  20.270  0.00  0.00    +0.000 C 
ATOM     21  N   UNL     1       3.641   4.136  18.857  0.00  0.00    +0.000 N 
ATOM     22  C   UNL     1       4.782   4.874  18.531  0.00  0.00    +0.000 C 
ATOM     23  O   UNL     1       5.404   5.496  19.397  0.00  0.00    +0.000 OA
ENDBRANCH  14  22
ENDBRANCH  13  14
ENDBRANCH   1  13
TORSDOF 3
ENDMDL
MODEL 7
REMARK VINA RESULT:      -7.4      1.949      2.474
REMARK  Name = 
REMARK  4 active torsions:
REMARK  status: ('A' for Active; 'I' for Inactive)
REMARK    1  A    between atoms: C_1  and  C_2
REMARK    2  A    between atoms: C_8  and  C_10
REMARK    3  A    between atoms: C_10  and  S_11
REMARK    4  A    between atoms: S_11  and  C_12
REMARK                            x       y       z     vdW  Elec       q    Type
REMARK                         _______ _______ _______ _____ _____    ______ ____
ROOT
ATOM      1  C   UNL     1       5.487   5.754  16.750  0.00  0.00    +0.000 A 
ATOM      2  N   UNL     1       5.690   5.771  15.433  0.00  0.00    +0.000 NA
ATOM      3  C   UNL     1       6.805   5.179  15.046  0.00  0.00    +0.000 A 
ATOM      4  N   UNL     1       7.085   5.173  13.693  0.00  0.00    +0.000 N 
ATOM      5  N   UNL     1       7.705   4.644  15.854  0.00  0.00    +0.000 NA
ATOM      6  C   UNL     1       7.402   4.683  17.140  0.00  0.00    +0.000 A 
ATOM      7  N   UNL     1       8.311   4.143  18.027  0.00  0.00    +0.000 N 
ATOM      8  N   UNL     1       6.324   5.250  17.649  0.00  0.00    +0.000 NA
ATOM      9  H   UNL     1       6.626   5.942  13.228  0.00  0.00    +0.000 HD
ATOM     10  H   UNL     1       8.080   5.068  13.544  0.00  0.00    +0.000 HD
ATOM     11  H   UNL     1       9.239   4.129  17.633  0.00  0.00    +0.000 HD
ATOM     12  H   UNL     1       8.193   4.545  18.947  0.00  0.00    +0.000 HD
ENDROOT
BRANCH   1  13
ATOM     13  S   UNL     1       4.050   6.586  17.387  0.00  0.00    +0.000 S 
BRANCH  13  14
ATOM     14  C   UNL     1       4.199   6.132  19.144  0.00  0.00    +0.000 C 
BRANCH  14  22
ATOM     15  C   UNL     1       4.202   2.400  20.179  0.00  0.00    +0.000 C 
ATOM     16  C   UNL     1       3.544   3.222  19.065  0.00  0.00    +0.000 C 
ATOM     17  C   UNL     1       2.808   2.336  18.049  0.00  0.00    +0.000 C 
ATOM     18  C   UNL     1       1.514   1.751  18.608  0.00  0.00    +0.000 C 
ATOM     19  C   UNL     1       0.625   2.850  19.181  0.00  0.00    +0.000 C 
ATOM     20  C   UNL     1       1.375   3.723  20.183  0.00  0.00    +0.000 C 
ATOM     21  N   UNL     1       2.625   4.236  19.614  0.00  0.00    +0.000 N 
ATOM     22  C   UNL     1       2.888   5.604  19.725  0.00  0.00    +0.000 C 
ATOM     23  O   UNL     1       2.056   6.372  20.218  0.00  0.00    +0.000 OA
ENDBRANCH  14  22
ENDBRANCH  13  14
ENDBRANCH   1  13
TORSDOF 3
ENDMDL
MODEL 8
REMARK VINA RESULT:      -7.4      1.363      2.131
REMARK  Name = 
REMARK  4 active torsions:
REMARK  status: ('A' for Active; 'I' for Inactive)
REMARK    1  A    between atoms: C_1  and  C_2
REMARK    2  A    between atoms: C_8  and  C_10
REMARK    3  A    between atoms: C_10  and  S_11
REMARK    4  A    between atoms: S_11  and  C_12
REMARK                            x       y       z     vdW  Elec       q    Type
REMARK                         _______ _______ _______ _____ _____    ______ ____
ROOT
ATOM      1  C   UNL     1       6.586   5.361  17.306  0.00  0.00    +0.000 A 
ATOM      2  N   UNL     1       6.774   6.602  16.861  0.00  0.00    +0.000 NA
ATOM      3  C   UNL     1       7.572   7.336  17.615  0.00  0.00    +0.000 A 
ATOM      4  N   UNL     1       7.798   8.640  17.219  0.00  0.00    +0.000 N 
ATOM      5  N   UNL     1       8.124   6.942  18.751  0.00  0.00    +0.000 NA
ATOM      6  C   UNL     1       7.870   5.692  19.097  0.00  0.00    +0.000 A 
ATOM      7  N   UNL     1       8.417   5.233  20.278  0.00  0.00    +0.000 N 
ATOM      8  N   UNL     1       7.086   4.865  18.432  0.00  0.00    +0.000 NA
ATOM      9  H   UNL     1       7.038   8.980  16.649  0.00  0.00    +0.000 HD
ATOM     10  H   UNL     1       8.071   9.203  18.014  0.00  0.00    +0.000 HD
ATOM     11  H   UNL     1       8.622   5.996  20.905  0.00  0.00    +0.000 HD
ATOM     12  H   UNL     1       7.884   4.454  20.638  0.00  0.00    +0.000 HD
ENDROOT
BRANCH   1  13
ATOM     13  S   UNL     1       5.471   4.308  16.405  0.00  0.00    +0.000 S 
BRANCH  13  14
ATOM     14  C   UNL     1       5.020   3.147  17.733  0.00  0.00    +0.000 C 
BRANCH  14  22
ATOM     15  C   UNL     1       2.845   6.308  18.261  0.00  0.00    +0.000 C 
ATOM     16  C   UNL     1       3.229   5.093  19.114  0.00  0.00    +0.000 C 
ATOM     17  C   UNL     1       2.729   5.220  20.561  0.00  0.00    +0.000 C 
ATOM     18  C   UNL     1       1.219   5.034  20.679  0.00  0.00    +0.000 C 
ATOM     19  C   UNL     1       0.780   3.730  20.019  0.00  0.00    +0.000 C 
ATOM     20  C   UNL     1       1.291   3.619  18.586  0.00  0.00    +0.000 C 
ATOM     21  N   UNL     1       2.739   3.838  18.516  0.00  0.00    +0.000 N 
ATOM     22  C   UNL     1       3.513   2.909  17.816  0.00  0.00    +0.000 C 
ATOM     23  O   UNL     1       3.003   1.891  17.336  0.00  0.00    +0.000 OA
ENDBRANCH  14  22
ENDBRANCH  13  14
ENDBRANCH   1  13
TORSDOF 3
ENDMDL
MODEL 9
REMARK VINA RESULT:      -7.4      1.365      2.631
REMARK  Name = 
REMARK  4 active torsions:
REMARK  status: ('A' for Active; 'I' for Inactive)
REMARK    1  A    between atoms: C_1  and  C_2
REMARK    2  A    between atoms: C_8  and  C_10
REMARK    3  A    between atoms: C_10  and  S_11
REMARK    4  A    between atoms: S_11  and  C_12
REMARK                            x       y       z     vdW  Elec       q    Type
REMARK                         _______ _______ _______ _____ _____    ______ ____
ROOT
ATOM      1  C   UNL     1       6.433   5.725  17.218  0.00  0.00    +0.000 A 
ATOM      2  N   UNL     1       6.916   5.101  18.291  0.00  0.00    +0.000 NA
ATOM      3  C   UNL     1       7.744   5.828  19.018  0.00  0.00    +0.000 A 
ATOM      4  N   UNL     1       8.295   5.237  20.138  0.00  0.00    +0.000 N 
ATOM      5  N   UNL     1       8.136   7.058  18.727  0.00  0.00    +0.000 NA
ATOM      6  C   UNL     1       7.594   7.580  17.640  0.00  0.00    +0.000 A 
ATOM      7  N   UNL     1       7.974   8.860  17.289  0.00  0.00    +0.000 N 
ATOM      8  N   UNL     1       6.762   6.952  16.831  0.00  0.00    +0.000 NA
ATOM      9  H   UNL     1       8.311   4.232  20.043  0.00  0.00    +0.000 HD
ATOM     10  H   UNL     1       9.163   5.694  20.383  0.00  0.00    +0.000 HD
ATOM     11  H   UNL     1       8.877   9.089  17.675  0.00  0.00    +0.000 HD
ATOM     12  H   UNL     1       7.828   9.015  16.301  0.00  0.00    +0.000 HD
ENDROOT
BRANCH   1  13
ATOM     13  S   UNL     1       5.364   4.813  16.128  0.00  0.00    +0.000 S 
BRANCH  13  14
ATOM     14  C   UNL     1       4.770   3.543  17.290  0.00  0.00    +0.000 C 
BRANCH  14  22
ATOM     15  C   UNL     1       3.098   5.654  20.074  0.00  0.00    +0.000 C 
ATOM     16  C   UNL     1       3.302   4.156  19.814  0.00  0.00    +0.000 C 
ATOM     17  C   UNL     1       2.836   3.295  20.997  0.00  0.00    +0.000 C 
ATOM     18  C   UNL     1       1.316   3.236  21.120  0.00  0.00    +0.000 C 
ATOM     19  C   UNL     1       0.682   2.811  19.799  0.00  0.00    +0.000 C 
ATOM     20  C   UNL     1       1.160   3.674  18.635  0.00  0.00    +0.000 C 
ATOM     21  N   UNL     1       2.624   3.728  18.577  0.00  0.00    +0.000 N 
ATOM     22  C   UNL     1       3.245   3.472  17.351  0.00  0.00    +0.000 C 
ATOM     23  O   UNL     1       2.584   3.133  16.364  0.00  0.00    +0.000 OA
ENDBRANCH  14  22
ENDBRANCH  13  14
ENDBRANCH   1  13
TORSDOF 3
ENDMDL
