MODEL 1
REMARK VINA RESULT:      -7.8      0.000      0.000
REMARK  Name = 
REMARK  6 active torsions:
REMARK  status: ('A' for Active; 'I' for Inactive)
REMARK    1  A    between atoms: C_2  and  C_20
REMARK    2  A    between atoms: N_3  and  C_4
REMARK    3  A    between atoms: C_4  and  C_5
REMARK    4  A    between atoms: C_9  and  C_10
REMARK    5  A    between atoms: C_10  and  N_11
REMARK    6  A    between atoms: C_12  and  C_14
REMARK                            x       y       z     vdW  Elec       q    Type
REMARK                         _______ _______ _______ _____ _____    ______ ____
ROOT
ATOM      1  C   UNL     1       2.686   6.349  19.207  0.00  0.00    +0.000 A 
ATOM      2  C   UNL     1       1.857   5.430  19.863  0.00  0.00    +0.000 A 
ATOM      3  C   UNL     1       2.314   4.141  20.141  0.00  0.00    +0.000 A 
ATOM      4  C   UNL     1       3.598   3.754  19.758  0.00  0.00    +0.000 A 
ATOM      5  C   UNL     1       4.432   4.643  19.069  0.00  0.00    +0.000 A 
ATOM      6  C   UNL     1       3.966   5.939  18.797  0.00  0.00    +0.000 A 
ENDROOT
BRANCH   1   7
ATOM      7  C   UNL     1       2.231   7.765  18.982  0.00  0.00    +0.000 C 
BRANCH   7  10
ATOM      8  O   UNL     1       0.353   9.764  18.868  0.00  0.00    +0.000 OA
ATOM      9  C   UNL     1       0.674   9.354  19.983  0.00  0.00    +0.000 C 
ATOM     10  N   UNL     1       1.617   8.358  20.142  0.00  0.00    +0.000 N 
ATOM     11  H   UNL     1       1.803   8.006  21.073  0.00  0.00    +0.000 HD
BRANCH   9  12
ATOM     12  C   UNL     1       0.092   9.865  21.205  0.00  0.00    +0.000 A 
ATOM     13  C   UNL     1      -0.319   9.195  22.344  0.00  0.00    +0.000 A 
ATOM     14  C   UNL     1      -0.840  10.168  23.227  0.00  0.00    +0.000 A 
ATOM     15  C   UNL     1      -0.718  11.374  22.575  0.00  0.00    +0.000 A 
ATOM     16  O   UNL     1      -0.145  11.206  21.353  0.00  0.00    +0.000 OA
ENDBRANCH   9  12
ENDBRANCH   7  10
ENDBRANCH   1   7
BRANCH   5  17
ATOM     17  C   UNL     1       5.828   4.234  18.676  0.00  0.00    +0.000 C 
BRANCH  17  18
ATOM     18  N   UNL     1       5.959   4.127  17.246  0.00  0.00    +0.000 N 
ATOM     19  C   UNL     1       6.866   4.887  16.541  0.00  0.00    +0.000 C 
ATOM     20  O   UNL     1       7.623   5.682  17.090  0.00  0.00    +0.000 OA
ATOM     21  H   UNL     1       5.382   3.476  16.727  0.00  0.00    +0.000 HD
BRANCH  19  22
ATOM     22  C   UNL     1       6.836   4.663  15.110  0.00  0.00    +0.000 A 
ATOM     23  C   UNL     1       6.037   3.846  14.330  0.00  0.00    +0.000 A 
ATOM     24  C   UNL     1       6.463   4.016  12.989  0.00  0.00    +0.000 A 
ATOM     25  C   UNL     1       7.494   4.923  13.029  0.00  0.00    +0.000 A 
ATOM     26  O   UNL     1       7.727   5.326  14.304  0.00  0.00    +0.000 OA
ENDBRANCH  19  22
ENDBRANCH  17  18
ENDBRANCH   5  17
TORSDOF 6
ENDMDL
MODEL 2
REMARK VINA RESULT:      -7.6      2.128      2.408
REMARK  Name = 
REMARK  6 active torsions:
REMARK  status: ('A' for Active; 'I' for Inactive)
REMARK    1  A    between atoms: C_2  and  C_20
REMARK    2  A    between atoms: N_3  and  C_4
REMARK    3  A    between atoms: C_4  and  C_5
REMARK    4  A    between atoms: C_9  and  C_10
REMARK    5  A    between atoms: C_10  and  N_11
REMARK    6  A    between atoms: C_12  and  C_14
REMARK                            x       y       z     vdW  Elec       q    Type
REMARK                         _______ _______ _______ _____ _____    ______ ____
ROOT
ATOM      1  C   UNL     1       2.840   7.159  18.076  0.00  0.00    +0.000 A 
ATOM      2  C   UNL     1       1.827   6.309  18.538  0.00  0.00    +0.000 A 
ATOM      3  C   UNL     1       2.083   4.954  18.749  0.00  0.00    +0.000 A 
ATOM      4  C   UNL     1       3.350   4.431  18.489  0.00  0.00    +0.000 A 
ATOM      5  C   UNL     1       4.369   5.252  17.991  0.00  0.00    +0.000 A 
ATOM      6  C   UNL     1       4.103   6.616  17.786  0.00  0.00    +0.000 A 
ENDROOT
BRANCH   1   7
ATOM      7  C   UNL     1       2.593   8.635  17.930  0.00  0.00    +0.000 C 
BRANCH   7  10
ATOM      8  O   UNL     1       1.345  10.716  19.213  0.00  0.00    +0.000 OA
ATOM      9  C   UNL     1       0.666  10.040  18.441  0.00  0.00    +0.000 C 
ATOM     10  N   UNL     1       1.203   8.967  17.757  0.00  0.00    +0.000 N 
ATOM     11  H   UNL     1       0.626   8.479  17.083  0.00  0.00    +0.000 HD
BRANCH   9  12
ATOM     12  C   UNL     1      -0.730  10.314  18.177  0.00  0.00    +0.000 A 
ATOM     13  C   UNL     1      -1.577   9.781  17.221  0.00  0.00    +0.000 A 
ATOM     14  C   UNL     1      -2.830  10.416  17.383  0.00  0.00    +0.000 A 
ATOM     15  C   UNL     1      -2.673  11.298  18.426  0.00  0.00    +0.000 A 
ATOM     16  O   UNL     1      -1.409  11.240  18.923  0.00  0.00    +0.000 OA
ENDBRANCH   9  12
ENDBRANCH   7  10
ENDBRANCH   1   7
BRANCH   5  17
ATOM     17  C   UNL     1       5.745   4.694  17.732  0.00  0.00    +0.000 C 
BRANCH  17  18
ATOM     18  N   UNL     1       5.936   4.398  16.336  0.00  0.00    +0.000 N 
ATOM     19  C   UNL     1       6.786   5.140  15.546  0.00  0.00    +0.000 C 
ATOM     20  O   UNL     1       7.441   6.079  15.990  0.00  0.00    +0.000 OA
ATOM     21  H   UNL     1       5.444   3.624  15.905  0.00  0.00    +0.000 HD
BRANCH  19  22
ATOM     22  C   UNL     1       6.829   4.712  14.163  0.00  0.00    +0.000 A 
ATOM     23  C   UNL     1       6.155   3.704  13.497  0.00  0.00    +0.000 A 
ATOM     24  C   UNL     1       6.602   3.730  12.153  0.00  0.00    +0.000 A 
ATOM     25  C   UNL     1       7.520   4.750  12.077  0.00  0.00    +0.000 A 
ATOM     26  O   UNL     1       7.664   5.356  13.283  0.00  0.00    +0.000 OA
ENDBRANCH  19  22
ENDBRANCH  17  18
ENDBRANCH   5  17
TORSDOF 6
ENDMDL
MODEL 3
REMARK VINA RESULT:      -7.6      1.448      1.795
REMARK  Name = 
REMARK  6 active torsions:
REMARK  status: ('A' for Active; 'I' for Inactive)
REMARK    1  A    between atoms: C_2  and  C_20
REMARK    2  A    between atoms: N_3  and  C_4
REMARK    3  A    between atoms: C_4  and  C_5
REMARK    4  A    between atoms: C_9  and  C_10
REMARK    5  A    between atoms: C_10  and  N_11
REMARK    6  A    between atoms: C_12  and  C_14
REMARK                            x       y       z     vdW  Elec       q    Type
REMARK                         _______ _______ _______ _____ _____    ______ ____
ROOT
ATOM      1  C   UNL     1       2.395   5.439  19.726  0.00  0.00    +0.000 A 
ATOM      2  C   UNL     1       1.530   4.592  19.021  0.00  0.00    +0.000 A 
ATOM      3  C   UNL     1       2.033   3.700  18.073  0.00  0.00    +0.000 A 
ATOM      4  C   UNL     1       3.402   3.653  17.811  0.00  0.00    +0.000 A 
ATOM      5  C   UNL     1       4.283   4.515  18.477  0.00  0.00    +0.000 A 
ATOM      6  C   UNL     1       3.768   5.406  19.432  0.00  0.00    +0.000 A 
ENDROOT
BRANCH   1   7
ATOM      7  C   UNL     1       1.868   6.339  20.809  0.00  0.00    +0.000 C 
BRANCH   7  10
ATOM      8  O   UNL     1      -0.119   8.095  21.521  0.00  0.00    +0.000 OA
ATOM      9  C   UNL     1       0.813   8.539  20.853  0.00  0.00    +0.000 C 
ATOM     10  N   UNL     1       1.854   7.731  20.438  0.00  0.00    +0.000 N 
ATOM     11  H   UNL     1       2.633   8.151  19.946  0.00  0.00    +0.000 HD
BRANCH   9  12
ATOM     12  C   UNL     1       0.905   9.928  20.457  0.00  0.00    +0.000 A 
ATOM     13  C   UNL     1       0.810  10.505  19.203  0.00  0.00    +0.000 A 
ATOM     14  C   UNL     1       1.001  11.895  19.377  0.00  0.00    +0.000 A 
ATOM     15  C   UNL     1       1.202  12.084  20.724  0.00  0.00    +0.000 A 
ATOM     16  O   UNL     1       1.137  10.901  21.393  0.00  0.00    +0.000 OA
ENDBRANCH   9  12
ENDBRANCH   7  10
ENDBRANCH   1   7
BRANCH   5  17
ATOM     17  C   UNL     1       5.765   4.450  18.212  0.00  0.00    +0.000 C 
BRANCH  17  18
ATOM     18  N   UNL     1       6.040   4.255  16.813  0.00  0.00    +0.000 N 
ATOM     19  C   UNL     1       6.674   5.215  16.056  0.00  0.00    +0.000 C 
ATOM     20  O   UNL     1       7.056   6.280  16.534  0.00  0.00    +0.000 OA
ATOM     21  H   UNL     1       5.772   3.392  16.354  0.00  0.00    +0.000 HD
BRANCH  19  22
ATOM     22  C   UNL     1       6.840   4.854  14.663  0.00  0.00    +0.000 A 
ATOM     23  C   UNL     1       6.204   3.905  13.884  0.00  0.00    +0.000 A 
ATOM     24  C   UNL     1       6.782   3.980  12.593  0.00  0.00    +0.000 A 
ATOM     25  C   UNL     1       7.735   4.968  12.659  0.00  0.00    +0.000 A 
ATOM     26  O   UNL     1       7.777   5.509  13.903  0.00  0.00    +0.000 OA
ENDBRANCH  19  22
ENDBRANCH  17  18
ENDBRANCH   5  17
TORSDOF 6
ENDMDL
MODEL 4
REMARK VINA RESULT:      -7.6      1.354      9.726
REMARK  Name = 
REMARK  6 active torsions:
REMARK  status: ('A' for Active; 'I' for Inactive)
REMARK    1  A    between atoms: C_2  and  C_20
REMARK    2  A    between atoms: N_3  and  C_4
REMARK    3  A    between atoms: C_4  and  C_5
REMARK    4  A    between atoms: C_9  and  C_10
REMARK    5  A    between atoms: C_10  and  N_11
REMARK    6  A    between atoms: C_12  and  C_14
REMARK                            x       y       z     vdW  Elec       q    Type
REMARK                         _______ _______ _______ _____ _____    ______ ____
ROOT
ATOM      1  C   UNL     1       4.549   6.506  17.510  0.00  0.00    +0.000 A 
ATOM      2  C   UNL     1       3.953   5.314  17.940  0.00  0.00    +0.000 A 
ATOM      3  C   UNL     1       2.637   5.309  18.404  0.00  0.00    +0.000 A 
ATOM      4  C   UNL     1       1.907   6.497  18.455  0.00  0.00    +0.000 A 
ATOM      5  C   UNL     1       2.493   7.708  18.065  0.00  0.00    +0.000 A 
ATOM      6  C   UNL     1       3.816   7.702  17.595  0.00  0.00    +0.000 A 
ENDROOT
BRANCH   1   7
ATOM      7  C   UNL     1       5.936   6.502  16.928  0.00  0.00    +0.000 C 
BRANCH   7  10
ATOM      8  O   UNL     1       7.796   4.669  16.082  0.00  0.00    +0.000 OA
ATOM      9  C   UNL     1       6.961   5.046  15.261  0.00  0.00    +0.000 C 
ATOM     10  N   UNL     1       5.991   5.973  15.590  0.00  0.00    +0.000 N 
ATOM     11  H   UNL     1       5.285   6.205  14.903  0.00  0.00    +0.000 HD
BRANCH   9  12
ATOM     12  C   UNL     1       6.916   4.551  13.902  0.00  0.00    +0.000 A 
ATOM     13  C   UNL     1       7.661   4.917  12.795  0.00  0.00    +0.000 A 
ATOM     14  C   UNL     1       7.194   4.139  11.710  0.00  0.00    +0.000 A 
ATOM     15  C   UNL     1       6.191   3.347  12.218  0.00  0.00    +0.000 A 
ATOM     16  O   UNL     1       6.018   3.578  13.547  0.00  0.00    +0.000 OA
ENDBRANCH   9  12
ENDBRANCH   7  10
ENDBRANCH   1   7
BRANCH   5  17
ATOM     17  C   UNL     1       1.698   8.988  18.097  0.00  0.00    +0.000 C 
BRANCH  17  18
ATOM     18  N   UNL     1       1.197   9.261  19.418  0.00  0.00    +0.000 N 
ATOM     19  C   UNL     1       0.019   9.945  19.621  0.00  0.00    +0.000 C 
ATOM     20  O   UNL     1      -0.678  10.341  18.691  0.00  0.00    +0.000 OA
ATOM     21  H   UNL     1       1.708   8.946  20.234  0.00  0.00    +0.000 HD
BRANCH  19  22
ATOM     22  C   UNL     1      -0.312  10.149  21.017  0.00  0.00    +0.000 A 
ATOM     23  C   UNL     1      -0.231   9.303  22.108  0.00  0.00    +0.000 A 
ATOM     24  C   UNL     1      -0.704  10.031  23.227  0.00  0.00    +0.000 A 
ATOM     25  C   UNL     1      -1.045  11.276  22.755  0.00  0.00    +0.000 A 
ATOM     26  O   UNL     1      -0.808  11.363  21.422  0.00  0.00    +0.000 OA
ENDBRANCH  19  22
ENDBRANCH  17  18
ENDBRANCH   5  17
TORSDOF 6
ENDMDL
MODEL 5
REMARK VINA RESULT:      -7.5      1.509      8.744
REMARK  Name = 
REMARK  6 active torsions:
REMARK  status: ('A' for Active; 'I' for Inactive)
REMARK    1  A    between atoms: C_2  and  C_20
REMARK    2  A    between atoms: N_3  and  C_4
REMARK    3  A    between atoms: C_4  and  C_5
REMARK    4  A    between atoms: C_9  and  C_10
REMARK    5  A    between atoms: C_10  and  N_11
REMARK    6  A    between atoms: C_12  and  C_14
REMARK                            x       y       z     vdW  Elec       q    Type
REMARK                         _______ _______ _______ _____ _____    ______ ____
ROOT
ATOM      1  C   UNL     1       4.274   4.386  18.390  0.00  0.00    +0.000 A 
ATOM      2  C   UNL     1       3.374   3.613  17.646  0.00  0.00    +0.000 A 
ATOM      3  C   UNL     1       2.003   3.683  17.901  0.00  0.00    +0.000 A 
ATOM      4  C   UNL     1       1.519   4.518  18.908  0.00  0.00    +0.000 A 
ATOM      5  C   UNL     1       2.402   5.274  19.690  0.00  0.00    +0.000 A 
ATOM      6  C   UNL     1       3.779   5.199  19.424  0.00  0.00    +0.000 A 
ENDROOT
BRANCH   1   7
ATOM      7  C   UNL     1       5.741   4.379  18.062  0.00  0.00    +0.000 C 
BRANCH   7  10
ATOM      8  O   UNL     1       6.692   6.308  16.356  0.00  0.00    +0.000 OA
ATOM      9  C   UNL     1       6.499   5.187  15.888  0.00  0.00    +0.000 C 
ATOM     10  N   UNL     1       6.013   4.154  16.666  0.00  0.00    +0.000 N 
ATOM     11  H   UNL     1       5.931   3.231  16.257  0.00  0.00    +0.000 HD
BRANCH   9  12
ATOM     12  C   UNL     1       6.770   4.854  14.506  0.00  0.00    +0.000 A 
ATOM     13  C   UNL     1       6.198   3.892  13.693  0.00  0.00    +0.000 A 
ATOM     14  C   UNL     1       6.851   3.972  12.441  0.00  0.00    +0.000 A 
ATOM     15  C   UNL     1       7.782   4.977  12.565  0.00  0.00    +0.000 A 
ATOM     16  O   UNL     1       7.738   5.526  13.808  0.00  0.00    +0.000 OA
ENDBRANCH   9  12
ENDBRANCH   7  10
ENDBRANCH   1   7
BRANCH   5  17
ATOM     17  C   UNL     1       1.880   6.194  20.763  0.00  0.00    +0.000 C 
BRANCH  17  18
ATOM     18  N   UNL     1       1.864   7.563  20.318  0.00  0.00    +0.000 N 
ATOM     19  C   UNL     1       0.902   8.453  20.742  0.00  0.00    +0.000 C 
ATOM     20  O   UNL     1       0.020   8.137  21.535  0.00  0.00    +0.000 OA
ATOM     21  H   UNL     1       2.573   7.901  19.678  0.00  0.00    +0.000 HD
BRANCH  19  22
ATOM     22  C   UNL     1       1.031   9.777  20.167  0.00  0.00    +0.000 A 
ATOM     23  C   UNL     1       1.180  10.193  18.856  0.00  0.00    +0.000 A 
ATOM     24  C   UNL     1       1.272  11.606  18.883  0.00  0.00    +0.000 A 
ATOM     25  C   UNL     1       1.175  11.970  20.205  0.00  0.00    +0.000 A 
ATOM     26  O   UNL     1       1.023  10.874  20.992  0.00  0.00    +0.000 OA
ENDBRANCH  19  22
ENDBRANCH  17  18
ENDBRANCH   5  17
TORSDOF 6
ENDMDL
MODEL 6
REMARK VINA RESULT:      -7.5      1.365      1.769
REMARK  Name = 
REMARK  6 active torsions:
REMARK  status: ('A' for Active; 'I' for Inactive)
REMARK    1  A    between atoms: C_2  and  C_20
REMARK    2  A    between atoms: N_3  and  C_4
REMARK    3  A    between atoms: C_4  and  C_5
REMARK    4  A    between atoms: C_9  and  C_10
REMARK    5  A    between atoms: C_10  and  N_11
REMARK    6  A    between atoms: C_12  and  C_14
REMARK                            x       y       z     vdW  Elec       q    Type
REMARK                         _______ _______ _______ _____ _____    ______ ____
ROOT
ATOM      1  C   UNL     1       2.450   7.753  18.057  0.00  0.00    +0.000 A 
ATOM      2  C   UNL     1       2.035   6.546  18.635  0.00  0.00    +0.000 A 
ATOM      3  C   UNL     1       2.897   5.450  18.678  0.00  0.00    +0.000 A 
ATOM      4  C   UNL     1       4.178   5.544  18.134  0.00  0.00    +0.000 A 
ATOM      5  C   UNL     1       4.604   6.728  17.519  0.00  0.00    +0.000 A 
ATOM      6  C   UNL     1       3.731   7.827  17.485  0.00  0.00    +0.000 A 
ENDROOT
BRANCH   1   7
ATOM      7  C   UNL     1       1.557   8.962  18.087  0.00  0.00    +0.000 C 
BRANCH   7  10
ATOM      8  O   UNL     1      -0.803  10.242  18.662  0.00  0.00    +0.000 OA
ATOM      9  C   UNL     1      -0.061   9.974  19.606  0.00  0.00    +0.000 C 
ATOM     10  N   UNL     1       1.151   9.341  19.415  0.00  0.00    +0.000 N 
ATOM     11  H   UNL     1       1.699   9.081  20.226  0.00  0.00    +0.000 HD
BRANCH   9  12
ATOM     12  C   UNL     1      -0.394  10.285  20.979  0.00  0.00    +0.000 A 
ATOM     13  C   UNL     1      -0.898  11.450  21.532  0.00  0.00    +0.000 A 
ATOM     14  C   UNL     1      -1.012  11.228  22.923  0.00  0.00    +0.000 A 
ATOM     15  C   UNL     1      -0.572   9.942  23.138  0.00  0.00    +0.000 A 
ATOM     16  O   UNL     1      -0.203   9.356  21.967  0.00  0.00    +0.000 OA
ENDBRANCH   9  12
ENDBRANCH   7  10
ENDBRANCH   1   7
BRANCH   5  17
ATOM     17  C   UNL     1       5.996   6.838  16.953  0.00  0.00    +0.000 C 
BRANCH  17  18
ATOM     18  N   UNL     1       6.084   6.222  15.655  0.00  0.00    +0.000 N 
ATOM     19  C   UNL     1       6.836   5.088  15.439  0.00  0.00    +0.000 C 
ATOM     20  O   UNL     1       7.454   4.529  16.341  0.00  0.00    +0.000 OA
ATOM     21  H   UNL     1       5.584   6.616  14.867  0.00  0.00    +0.000 HD
BRANCH  19  22
ATOM     22  C   UNL     1       6.827   4.628  14.065  0.00  0.00    +0.000 A 
ATOM     23  C   UNL     1       6.155   3.583  13.456  0.00  0.00    +0.000 A 
ATOM     24  C   UNL     1       6.537   3.590  12.092  0.00  0.00    +0.000 A 
ATOM     25  C   UNL     1       7.418   4.635  11.949  0.00  0.00    +0.000 A 
ATOM     26  O   UNL     1       7.599   5.274  13.132  0.00  0.00    +0.000 OA
ENDBRANCH  19  22
ENDBRANCH  17  18
ENDBRANCH   5  17
TORSDOF 6
ENDMDL
MODEL 7
REMARK VINA RESULT:      -7.5      1.426      8.955
REMARK  Name = 
REMARK  6 active torsions:
REMARK  status: ('A' for Active; 'I' for Inactive)
REMARK    1  A    between atoms: C_2  and  C_20
REMARK    2  A    between atoms: N_3  and  C_4
REMARK    3  A    between atoms: C_4  and  C_5
REMARK    4  A    between atoms: C_9  and  C_10
REMARK    5  A    between atoms: C_10  and  N_11
REMARK    6  A    between atoms: C_12  and  C_14
REMARK                            x       y       z     vdW  Elec       q    Type
REMARK                         _______ _______ _______ _____ _____    ______ ____
ROOT
ATOM      1  C   UNL     1       4.207   5.270  18.332  0.00  0.00    +0.000 A 
ATOM      2  C   UNL     1       3.621   4.152  17.724  0.00  0.00    +0.000 A 
ATOM      3  C   UNL     1       2.365   3.702  18.134  0.00  0.00    +0.000 A 
ATOM      4  C   UNL     1       1.688   4.357  19.163  0.00  0.00    +0.000 A 
ATOM      5  C   UNL     1       2.268   5.454  19.811  0.00  0.00    +0.000 A 
ATOM      6  C   UNL     1       3.531   5.902  19.388  0.00  0.00    +0.000 A 
ENDROOT
BRANCH   1   7
ATOM      7  C   UNL     1       5.520   5.810  17.835  0.00  0.00    +0.000 C 
BRANCH   7  10
ATOM      8  O   UNL     1       7.712   4.548  16.769  0.00  0.00    +0.000 OA
ATOM      9  C   UNL     1       6.856   4.953  15.983  0.00  0.00    +0.000 C 
ATOM     10  N   UNL     1       5.723   5.608  16.424  0.00  0.00    +0.000 N 
ATOM     11  H   UNL     1       5.014   5.865  15.749  0.00  0.00    +0.000 HD
BRANCH   9  12
ATOM     12  C   UNL     1       6.955   4.771  14.551  0.00  0.00    +0.000 A 
ATOM     13  C   UNL     1       6.290   3.889  13.717  0.00  0.00    +0.000 A 
ATOM     14  C   UNL     1       6.781   4.110  12.410  0.00  0.00    +0.000 A 
ATOM     15  C   UNL     1       7.716   5.113  12.524  0.00  0.00    +0.000 A 
ATOM     16  O   UNL     1       7.825   5.529  13.814  0.00  0.00    +0.000 OA
ENDBRANCH   9  12
ENDBRANCH   7  10
ENDBRANCH   1   7
BRANCH   5  17
ATOM     17  C   UNL     1       1.528   6.177  20.906  0.00  0.00    +0.000 C 
BRANCH  17  18
ATOM     18  N   UNL     1       1.531   7.600  20.690  0.00  0.00    +0.000 N 
ATOM     19  C   UNL     1       0.490   8.401  21.107  0.00  0.00    +0.000 C 
ATOM     20  O   UNL     1      -0.486   7.951  21.700  0.00  0.00    +0.000 OA
ATOM     21  H   UNL     1       2.314   8.045  20.226  0.00  0.00    +0.000 HD
BRANCH  19  22
ATOM     22  C   UNL     1       0.657   9.802  20.779  0.00  0.00    +0.000 A 
ATOM     23  C   UNL     1       0.413  10.947  21.516  0.00  0.00    +0.000 A 
ATOM     24  C   UNL     1       0.742  12.047  20.685  0.00  0.00    +0.000 A 
ATOM     25  C   UNL     1       1.166  11.510  19.493  0.00  0.00    +0.000 A 
ATOM     26  O   UNL     1       1.124  10.154  19.538  0.00  0.00    +0.000 OA
ENDBRANCH  19  22
ENDBRANCH  17  18
ENDBRANCH   5  17
TORSDOF 6
ENDMDL
MODEL 8
REMARK VINA RESULT:      -7.4      1.620      1.682
REMARK  Name = 
REMARK  6 active torsions:
REMARK  status: ('A' for Active; 'I' for Inactive)
REMARK    1  A    between atoms: C_2  and  C_20
REMARK    2  A    between atoms: N_3  and  C_4
REMARK    3  A    between atoms: C_4  and  C_5
REMARK    4  A    between atoms: C_9  and  C_10
REMARK    5  A    between atoms: C_10  and  N_11
REMARK    6  A    between atoms: C_12  and  C_14
REMARK                            x       y       z     vdW  Elec       q    Type
REMARK                         _______ _______ _______ _____ _____    ______ ____
ROOT
ATOM      1  C   UNL     1       2.988   6.969  18.422  0.00  0.00    +0.000 A 
ATOM      2  C   UNL     1       2.170   6.444  19.431  0.00  0.00    +0.000 A 
ATOM      3  C   UNL     1       2.552   5.294  20.124  0.00  0.00    +0.000 A 
ATOM      4  C   UNL     1       3.748   4.650  19.807  0.00  0.00    +0.000 A 
ATOM      5  C   UNL     1       4.565   5.134  18.778  0.00  0.00    +0.000 A 
ATOM      6  C   UNL     1       4.174   6.294  18.090  0.00  0.00    +0.000 A 
ENDROOT
BRANCH   1   7
ATOM      7  C   UNL     1       2.623   8.255  17.734  0.00  0.00    +0.000 C 
BRANCH   7  10
ATOM      8  O   UNL     1       2.433  10.988  17.907  0.00  0.00    +0.000 OA
ATOM      9  C   UNL     1       1.515  10.327  18.389  0.00  0.00    +0.000 C 
ATOM     10  N   UNL     1       1.526   8.946  18.360  0.00  0.00    +0.000 N 
ATOM     11  H   UNL     1       0.719   8.444  18.710  0.00  0.00    +0.000 HD
BRANCH   9  12
ATOM     12  C   UNL     1       0.355  10.929  19.012  0.00  0.00    +0.000 A 
ATOM     13  C   UNL     1      -0.987  10.617  18.884  0.00  0.00    +0.000 A 
ATOM     14  C   UNL     1      -1.699  11.536  19.689  0.00  0.00    +0.000 A 
ATOM     15  C   UNL     1      -0.751  12.353  20.259  0.00  0.00    +0.000 A 
ATOM     16  O   UNL     1       0.499  11.991  19.864  0.00  0.00    +0.000 OA
ENDBRANCH   9  12
ENDBRANCH   7  10
ENDBRANCH   1   7
BRANCH   5  17
ATOM     17  C   UNL     1       5.869   4.454  18.451  0.00  0.00    +0.000 C 
BRANCH  17  18
ATOM     18  N   UNL     1       6.025   4.274  17.031  0.00  0.00    +0.000 N 
ATOM     19  C   UNL     1       6.890   5.049  16.291  0.00  0.00    +0.000 C 
ATOM     20  O   UNL     1       7.588   5.922  16.801  0.00  0.00    +0.000 OA
ATOM     21  H   UNL     1       5.496   3.559  16.545  0.00  0.00    +0.000 HD
BRANCH  19  22
ATOM     22  C   UNL     1       6.892   4.743  14.875  0.00  0.00    +0.000 A 
ATOM     23  C   UNL     1       6.152   3.838  14.136  0.00  0.00    +0.000 A 
ATOM     24  C   UNL     1       6.586   3.955  12.792  0.00  0.00    +0.000 A 
ATOM     25  C   UNL     1       7.563   4.922  12.790  0.00  0.00    +0.000 A 
ATOM     26  O   UNL     1       7.755   5.410  14.042  0.00  0.00    +0.000 OA
ENDBRANCH  19  22
ENDBRANCH  17  18
ENDBRANCH   5  17
TORSDOF 6
ENDMDL
MODEL 9
REMARK VINA RESULT:      -7.4      1.198      1.984
REMARK  Name = 
REMARK  6 active torsions:
REMARK  status: ('A' for Active; 'I' for Inactive)
REMARK    1  A    between atoms: C_2  and  C_20
REMARK    2  A    between atoms: N_3  and  C_4
REMARK    3  A    between atoms: C_4  and  C_5
REMARK    4  A    between atoms: C_9  and  C_10
REMARK    5  A    between atoms: C_10  and  N_11
REMARK    6  A    between atoms: C_12  and  C_14
REMARK                            x       y       z     vdW  Elec       q    Type
REMARK                         _______ _______ _______ _____ _____    ______ ____
ROOT
ATOM      1  C   UNL     1       2.338   7.112  19.764  0.00  0.00    +0.000 A 
ATOM      2  C   UNL     1       2.159   8.073  18.761  0.00  0.00    +0.000 A 
ATOM      3  C   UNL     1       2.893   8.004  17.577  0.00  0.00    +0.000 A 
ATOM      4  C   UNL     1       3.822   6.981  17.387  0.00  0.00    +0.000 A 
ATOM      5  C   UNL     1       4.046   6.029  18.389  0.00  0.00    +0.000 A 
ATOM      6  C   UNL     1       3.298   6.104  19.576  0.00  0.00    +0.000 A 
ENDROOT
BRANCH   1   7
ATOM      7  C   UNL     1       1.487   7.132  21.003  0.00  0.00    +0.000 C 
BRANCH   7  10
ATOM      8  O   UNL     1       1.835   9.251  22.714  0.00  0.00    +0.000 OA
ATOM      9  C   UNL     1       0.865   9.289  21.958  0.00  0.00    +0.000 C 
ATOM     10  N   UNL     1       0.601   8.266  21.069  0.00  0.00    +0.000 N 
ATOM     11  H   UNL     1      -0.170   8.369  20.421  0.00  0.00    +0.000 HD
BRANCH   9  12
ATOM     12  C   UNL     1      -0.064  10.398  21.928  0.00  0.00    +0.000 A 
ATOM     13  C   UNL     1      -0.943  10.851  22.896  0.00  0.00    +0.000 A 
ATOM     14  C   UNL     1      -1.636  11.950  22.339  0.00  0.00    +0.000 A 
ATOM     15  C   UNL     1      -1.140  12.103  21.065  0.00  0.00    +0.000 A 
ATOM     16  O   UNL     1      -0.180  11.175  20.806  0.00  0.00    +0.000 OA
ENDBRANCH   9  12
ENDBRANCH   7  10
ENDBRANCH   1   7
BRANCH   5  17
ATOM     17  C   UNL     1       5.031   4.909  18.176  0.00  0.00    +0.000 C 
BRANCH  17  18
ATOM     18  N   UNL     1       5.363   4.761  16.783  0.00  0.00    +0.000 N 
ATOM     19  C   UNL     1       6.666   4.798  16.339  0.00  0.00    +0.000 C 
ATOM     20  O   UNL     1       7.616   4.940  17.104  0.00  0.00    +0.000 OA
ATOM     21  H   UNL     1       4.632   4.620  16.096  0.00  0.00    +0.000 HD
BRANCH  19  22
ATOM     22  C   UNL     1       6.804   4.659  14.903  0.00  0.00    +0.000 A 
ATOM     23  C   UNL     1       6.112   3.883  13.991  0.00  0.00    +0.000 A 
ATOM     24  C   UNL     1       6.686   4.135  12.720  0.00  0.00    +0.000 A 
ATOM     25  C   UNL     1       7.692   5.048  12.931  0.00  0.00    +0.000 A 
ATOM     26  O   UNL     1       7.771   5.377  14.245  0.00  0.00    +0.000 OA
ENDBRANCH  19  22
ENDBRANCH  17  18
ENDBRANCH   5  17
TORSDOF 6
ENDMDL
