MODEL 1
REMARK VINA RESULT:      -8.9      0.000      0.000
REMARK  Name = 
REMARK  8 active torsions:
REMARK  status: ('A' for Active; 'I' for Inactive)
REMARK    1  A    between atoms: N_1  and  S_2
REMARK    2  A    between atoms: S_2  and  C_5
REMARK    3  A    between atoms: C_8  and  C_9
REMARK    4  A    between atoms: C_9  and  C_10
REMARK    5  A    between atoms: C_10  and  N_11
REMARK    6  A    between atoms: C_12  and  C_14
REMARK    7  A    between atoms: N_18  and  S_19
REMARK    8  A    between atoms: S_19  and  C_22
REMARK                            x       y       z     vdW  Elec       q    Type
REMARK                         _______ _______ _______ _____ _____    ______ ____
ROOT
ATOM      1  N   UNL     1       8.178   7.532  18.176  0.00  0.00    +0.000 N 
ATOM      2  C   UNL     1       7.170   6.870  17.505  0.00  0.00    +0.000 C 
ATOM      3  O   UNL     1       6.516   7.422  16.623  0.00  0.00    +0.000 OA
ATOM      4  H   UNL     1       8.554   7.148  19.034  0.00  0.00    +0.000 HD
ENDROOT
BRANCH   2   5
ATOM      5  C   UNL     1       6.988   5.391  17.840  0.00  0.00    +0.000 C 
ATOM      6  C   UNL     1       7.103   4.528  16.577  0.00  0.00    +0.000 C 
ATOM      7  C   UNL     1       5.876   4.702  15.682  0.00  0.00    +0.000 C 
ATOM      8  C   UNL     1       4.568   4.453  16.435  0.00  0.00    +0.000 C 
ATOM      9  N   UNL     1       4.478   5.274  17.690  0.00  0.00    +0.000 NA
ATOM     10  C   UNL     1       5.679   5.098  18.564  0.00  0.00    +0.000 C 
BRANCH   9  11
ATOM     11  S   UNL     1       3.005   5.041  18.582  0.00  0.00    +0.000 S 
ATOM     12  O   UNL     1       2.023   4.478  17.681  0.00  0.00    +0.000 OA
ATOM     13  O   UNL     1       3.348   4.362  19.818  0.00  0.00    +0.000 OA
BRANCH  11  14
ATOM     14  C   UNL     1       2.464   6.658  19.035  0.00  0.00    +0.000 A 
ATOM     15  C   UNL     1       2.334   7.674  18.091  0.00  0.00    +0.000 A 
ATOM     16  C   UNL     1       1.773   8.891  18.478  0.00  0.00    +0.000 A 
ATOM     17  C   UNL     1       1.323   9.029  19.783  0.00  0.00    +0.000 A 
ATOM     18  N   UNL     1       1.401   8.045  20.707  0.00  0.00    +0.000 NA
ATOM     19  C   UNL     1       1.963   6.874  20.310  0.00  0.00    +0.000 A 
ENDBRANCH  11  14
ENDBRANCH   9  11
ENDBRANCH   2   5
BRANCH   1  20
ATOM     20  C   UNL     1       8.365   8.950  17.909  0.00  0.00    +0.000 C 
BRANCH  20  21
ATOM     21  C   UNL     1       8.931   9.719  19.100  0.00  0.00    +0.000 C 
BRANCH  21  25
ATOM     22  C   UNL     1      10.151  13.733  18.085  0.00  0.00    +0.000 A 
ATOM     23  C   UNL     1      10.900  12.984  18.993  0.00  0.00    +0.000 A 
ATOM     24  C   UNL     1      10.499  11.683  19.300  0.00  0.00    +0.000 A 
ATOM     25  C   UNL     1       9.358  11.118  18.718  0.00  0.00    +0.000 A 
ATOM     26  C   UNL     1       8.607  11.888  17.805  0.00  0.00    +0.000 A 
ATOM     27  C   UNL     1       9.005  13.191  17.496  0.00  0.00    +0.000 A 
BRANCH  22  28
ATOM     28  S   UNL     1      10.612  15.403  17.726  0.00  0.00    +0.000 S 
ATOM     29  O   UNL     1      11.719  15.790  18.565  0.00  0.00    +0.000 OA
ATOM     30  O   UNL     1       9.413  16.205  17.600  0.00  0.00    +0.000 OA
BRANCH  28  31
ATOM     31  N   UNL     1      11.221  15.262  16.167  0.00  0.00    +0.000 NA
ATOM     32  H   UNL     1      11.913  16.000  16.012  0.00  0.00    +0.000 HD
ATOM     33  H   UNL     1      10.465  15.269  15.483  0.00  0.00    +0.000 HD
ENDBRANCH  28  31
ENDBRANCH  22  28
ENDBRANCH  21  25
ENDBRANCH  20  21
ENDBRANCH   1  20
TORSDOF 8
ENDMDL
MODEL 2
REMARK VINA RESULT:      -8.7      5.428      6.982
REMARK  Name = 
REMARK  8 active torsions:
REMARK  status: ('A' for Active; 'I' for Inactive)
REMARK    1  A    between atoms: N_1  and  S_2
REMARK    2  A    between atoms: S_2  and  C_5
REMARK    3  A    between atoms: C_8  and  C_9
REMARK    4  A    between atoms: C_9  and  C_10
REMARK    5  A    between atoms: C_10  and  N_11
REMARK    6  A    between atoms: C_12  and  C_14
REMARK    7  A    between atoms: N_18  and  S_19
REMARK    8  A    between atoms: S_19  and  C_22
REMARK                            x       y       z     vdW  Elec       q    Type
REMARK                         _______ _______ _______ _____ _____    ______ ____
ROOT
ATOM      1  N   UNL     1       4.468   6.552  17.877  0.00  0.00    +0.000 N 
ATOM      2  C   UNL     1       5.806   6.476  17.547  0.00  0.00    +0.000 C 
ATOM      3  O   UNL     1       6.438   7.470  17.195  0.00  0.00    +0.000 OA
ATOM      4  H   UNL     1       3.915   5.708  17.949  0.00  0.00    +0.000 HD
ENDROOT
BRANCH   2   5
ATOM      5  C   UNL     1       6.479   5.120  17.747  0.00  0.00    +0.000 C 
ATOM      6  C   UNL     1       7.199   4.674  16.468  0.00  0.00    +0.000 C 
ATOM      7  C   UNL     1       6.195   4.264  15.390  0.00  0.00    +0.000 C 
ATOM      8  C   UNL     1       5.204   3.213  15.891  0.00  0.00    +0.000 C 
ATOM      9  N   UNL     1       4.529   3.639  17.164  0.00  0.00    +0.000 NA
ATOM     10  C   UNL     1       5.515   4.037  18.216  0.00  0.00    +0.000 C 
BRANCH   9  11
ATOM     11  S   UNL     1       3.379   2.488  17.774  0.00  0.00    +0.000 S 
ATOM     12  O   UNL     1       2.215   2.523  16.916  0.00  0.00    +0.000 OA
ATOM     13  O   UNL     1       4.090   1.244  18.002  0.00  0.00    +0.000 OA
BRANCH  11  14
ATOM     14  C   UNL     1       2.903   3.089  19.363  0.00  0.00    +0.000 A 
ATOM     15  C   UNL     1       1.998   4.138  19.504  0.00  0.00    +0.000 A 
ATOM     16  C   UNL     1       1.553   4.481  20.780  0.00  0.00    +0.000 A 
ATOM     17  C   UNL     1       1.995   3.733  21.861  0.00  0.00    +0.000 A 
ATOM     18  N   UNL     1       2.842   2.685  21.746  0.00  0.00    +0.000 NA
ATOM     19  C   UNL     1       3.272   2.378  20.495  0.00  0.00    +0.000 A 
ENDBRANCH  11  14
ENDBRANCH   9  11
ENDBRANCH   2   5
BRANCH   1  20
ATOM     20  C   UNL     1       3.781   7.818  17.673  0.00  0.00    +0.000 C 
BRANCH  20  21
ATOM     21  C   UNL     1       2.261   7.684  17.658  0.00  0.00    +0.000 C 
BRANCH  21  25
ATOM     22  C   UNL     1       0.422  10.426  20.440  0.00  0.00    +0.000 A 
ATOM     23  C   UNL     1       0.428  10.715  19.076  0.00  0.00    +0.000 A 
ATOM     24  C   UNL     1       1.015   9.812  18.188  0.00  0.00    +0.000 A 
ATOM     25  C   UNL     1       1.601   8.624  18.642  0.00  0.00    +0.000 A 
ATOM     26  C   UNL     1       1.591   8.346  20.025  0.00  0.00    +0.000 A 
ATOM     27  C   UNL     1       1.006   9.248  20.917  0.00  0.00    +0.000 A 
BRANCH  22  28
ATOM     28  S   UNL     1      -0.268  11.585  21.585  0.00  0.00    +0.000 S 
ATOM     29  O   UNL     1      -1.646  11.837  21.247  0.00  0.00    +0.000 OA
ATOM     30  O   UNL     1       0.687  12.651  21.807  0.00  0.00    +0.000 OA
BRANCH  28  31
ATOM     31  N   UNL     1      -0.280  10.693  23.009  0.00  0.00    +0.000 NA
ATOM     32  H   UNL     1      -0.615   9.747  22.805  0.00  0.00    +0.000 HD
ATOM     33  H   UNL     1      -0.827  11.168  23.726  0.00  0.00    +0.000 HD
ENDBRANCH  28  31
ENDBRANCH  22  28
ENDBRANCH  21  25
ENDBRANCH  20  21
ENDBRANCH   1  20
TORSDOF 8
ENDMDL
MODEL 3
REMARK VINA RESULT:      -8.7      0.939      1.168
REMARK  Name = 
REMARK  8 active torsions:
REMARK  status: ('A' for Active; 'I' for Inactive)
REMARK    1  A    between atoms: N_1  and  S_2
REMARK    2  A    between atoms: S_2  and  C_5
REMARK    3  A    between atoms: C_8  and  C_9
REMARK    4  A    between atoms: C_9  and  C_10
REMARK    5  A    between atoms: C_10  and  N_11
REMARK    6  A    between atoms: C_12  and  C_14
REMARK    7  A    between atoms: N_18  and  S_19
REMARK    8  A    between atoms: S_19  and  C_22
REMARK                            x       y       z     vdW  Elec       q    Type
REMARK                         _______ _______ _______ _____ _____    ______ ____
ROOT
ATOM      1  N   UNL     1       8.290   7.775  18.406  0.00  0.00    +0.000 N 
ATOM      2  C   UNL     1       7.310   7.127  17.681  0.00  0.00    +0.000 C 
ATOM      3  O   UNL     1       6.725   7.682  16.753  0.00  0.00    +0.000 OA
ATOM      4  H   UNL     1       8.603   7.394  19.290  0.00  0.00    +0.000 HD
ENDROOT
BRANCH   2   5
ATOM      5  C   UNL     1       7.074   5.657  18.021  0.00  0.00    +0.000 C 
ATOM      6  C   UNL     1       7.171   4.783  16.765  0.00  0.00    +0.000 C 
ATOM      7  C   UNL     1       5.960   4.996  15.856  0.00  0.00    +0.000 C 
ATOM      8  C   UNL     1       4.637   4.797  16.596  0.00  0.00    +0.000 C 
ATOM      9  N   UNL     1       4.563   5.627  17.846  0.00  0.00    +0.000 NA
ATOM     10  C   UNL     1       5.748   5.414  18.733  0.00  0.00    +0.000 C 
BRANCH   9  11
ATOM     11  S   UNL     1       3.073   5.451  18.724  0.00  0.00    +0.000 S 
ATOM     12  O   UNL     1       2.150   4.711  17.892  0.00  0.00    +0.000 OA
ATOM     13  O   UNL     1       3.406   4.980  20.055  0.00  0.00    +0.000 OA
BRANCH  11  14
ATOM     14  C   UNL     1       2.441   7.087  18.919  0.00  0.00    +0.000 A 
ATOM     15  C   UNL     1       2.240   7.925  17.825  0.00  0.00    +0.000 A 
ATOM     16  C   UNL     1       1.610   9.154  18.020  0.00  0.00    +0.000 A 
ATOM     17  C   UNL     1       1.167   9.478  19.294  0.00  0.00    +0.000 A 
ATOM     18  N   UNL     1       1.315   8.665  20.364  0.00  0.00    +0.000 NA
ATOM     19  C   UNL     1       1.942   7.479  20.152  0.00  0.00    +0.000 A 
ENDBRANCH  11  14
ENDBRANCH   9  11
ENDBRANCH   2   5
BRANCH   1  20
ATOM     20  C   UNL     1       8.527   9.185  18.134  0.00  0.00    +0.000 C 
BRANCH  20  21
ATOM     21  C   UNL     1       9.128   9.935  19.319  0.00  0.00    +0.000 C 
BRANCH  21  25
ATOM     22  C   UNL     1      10.526  13.859  18.184  0.00  0.00    +0.000 A 
ATOM     23  C   UNL     1       9.737  13.701  19.324  0.00  0.00    +0.000 A 
ATOM     24  C   UNL     1       9.304  12.424  19.684  0.00  0.00    +0.000 A 
ATOM     25  C   UNL     1       9.643  11.300  18.922  0.00  0.00    +0.000 A 
ATOM     26  C   UNL     1      10.437  11.474  17.769  0.00  0.00    +0.000 A 
ATOM     27  C   UNL     1      10.872  12.751  17.404  0.00  0.00    +0.000 A 
BRANCH  22  28
ATOM     28  S   UNL     1      11.036  15.476  17.681  0.00  0.00    +0.000 S 
ATOM     29  O   UNL     1       9.922  16.172  17.087  0.00  0.00    +0.000 OA
ATOM     30  O   UNL     1      12.329  15.381  17.035  0.00  0.00    +0.000 OA
BRANCH  28  31
ATOM     31  N   UNL     1      11.329  16.217  19.160  0.00  0.00    +0.000 NA
ATOM     32  H   UNL     1      10.507  16.767  19.425  0.00  0.00    +0.000 HD
ATOM     33  H   UNL     1      12.187  16.768  19.123  0.00  0.00    +0.000 HD
ENDBRANCH  28  31
ENDBRANCH  22  28
ENDBRANCH  21  25
ENDBRANCH  20  21
ENDBRANCH   1  20
TORSDOF 8
ENDMDL
MODEL 4
REMARK VINA RESULT:      -8.5      2.039      2.682
REMARK  Name = 
REMARK  8 active torsions:
REMARK  status: ('A' for Active; 'I' for Inactive)
REMARK    1  A    between atoms: N_1  and  S_2
REMARK    2  A    between atoms: S_2  and  C_5
REMARK    3  A    between atoms: C_8  and  C_9
REMARK    4  A    between atoms: C_9  and  C_10
REMARK    5  A    between atoms: C_10  and  N_11
REMARK    6  A    between atoms: C_12  and  C_14
REMARK    7  A    between atoms: N_18  and  S_19
REMARK    8  A    between atoms: S_19  and  C_22
REMARK                            x       y       z     vdW  Elec       q    Type
REMARK                         _______ _______ _______ _____ _____    ______ ____
ROOT
ATOM      1  N   UNL     1       8.241   7.949  18.799  0.00  0.00    +0.000 N 
ATOM      2  C   UNL     1       7.804   7.060  17.838  0.00  0.00    +0.000 C 
ATOM      3  O   UNL     1       7.811   7.351  16.644  0.00  0.00    +0.000 OA
ATOM      4  H   UNL     1       8.028   7.787  19.775  0.00  0.00    +0.000 HD
ENDROOT
BRANCH   2   5
ATOM      5  C   UNL     1       7.418   5.666  18.328  0.00  0.00    +0.000 C 
ATOM      6  C   UNL     1       7.558   4.634  17.202  0.00  0.00    +0.000 C 
ATOM      7  C   UNL     1       6.456   4.811  16.157  0.00  0.00    +0.000 C 
ATOM      8  C   UNL     1       5.060   4.801  16.779  0.00  0.00    +0.000 C 
ATOM      9  N   UNL     1       4.940   5.788  17.906  0.00  0.00    +0.000 NA
ATOM     10  C   UNL     1       6.018   5.609  18.927  0.00  0.00    +0.000 C 
BRANCH   9  11
ATOM     11  S   UNL     1       3.367   5.830  18.644  0.00  0.00    +0.000 S 
ATOM     12  O   UNL     1       3.537   6.193  20.034  0.00  0.00    +0.000 OA
ATOM     13  O   UNL     1       2.501   6.609  17.778  0.00  0.00    +0.000 OA
BRANCH  11  14
ATOM     14  C   UNL     1       2.770   4.171  18.583  0.00  0.00    +0.000 A 
ATOM     15  C   UNL     1       3.493   3.116  19.137  0.00  0.00    +0.000 A 
ATOM     16  C   UNL     1       2.912   1.849  19.183  0.00  0.00    +0.000 A 
ATOM     17  C   UNL     1       1.616   1.695  18.715  0.00  0.00    +0.000 A 
ATOM     18  N   UNL     1       0.879   2.710  18.210  0.00  0.00    +0.000 NA
ATOM     19  C   UNL     1       1.470   3.932  18.163  0.00  0.00    +0.000 A 
ENDBRANCH  11  14
ENDBRANCH   9  11
ENDBRANCH   2   5
BRANCH   1  20
ATOM     20  C   UNL     1       8.590   9.298  18.379  0.00  0.00    +0.000 C 
BRANCH  20  21
ATOM     21  C   UNL     1       9.483  10.029  19.377  0.00  0.00    +0.000 C 
BRANCH  21  25
ATOM     22  C   UNL     1      10.428  14.053  18.131  0.00  0.00    +0.000 A 
ATOM     23  C   UNL     1      11.099  13.481  19.213  0.00  0.00    +0.000 A 
ATOM     24  C   UNL     1      10.791  12.174  19.594  0.00  0.00    +0.000 A 
ATOM     25  C   UNL     1       9.819  11.429  18.916  0.00  0.00    +0.000 A 
ATOM     26  C   UNL     1       9.145  12.022  17.827  0.00  0.00    +0.000 A 
ATOM     27  C   UNL     1       9.450  13.329  17.442  0.00  0.00    +0.000 A 
BRANCH  22  28
ATOM     28  S   UNL     1      10.766  15.727  17.669  0.00  0.00    +0.000 S 
ATOM     29  O   UNL     1      12.077  16.102  18.135  0.00  0.00    +0.000 OA
ATOM     30  O   UNL     1       9.588  16.532  17.925  0.00  0.00    +0.000 OA
BRANCH  28  31
ATOM     31  N   UNL     1      10.869  15.605  15.997  0.00  0.00    +0.000 NA
ATOM     32  H   UNL     1      10.241  16.295  15.574  0.00  0.00    +0.000 HD
ATOM     33  H   UNL     1      10.680  14.650  15.693  0.00  0.00    +0.000 HD
ENDBRANCH  28  31
ENDBRANCH  22  28
ENDBRANCH  21  25
ENDBRANCH  20  21
ENDBRANCH   1  20
TORSDOF 8
ENDMDL
MODEL 5
REMARK VINA RESULT:      -8.4      1.004      1.443
REMARK  Name = 
REMARK  8 active torsions:
REMARK  status: ('A' for Active; 'I' for Inactive)
REMARK    1  A    between atoms: N_1  and  S_2
REMARK    2  A    between atoms: S_2  and  C_5
REMARK    3  A    between atoms: C_8  and  C_9
REMARK    4  A    between atoms: C_9  and  C_10
REMARK    5  A    between atoms: C_10  and  N_11
REMARK    6  A    between atoms: C_12  and  C_14
REMARK    7  A    between atoms: N_18  and  S_19
REMARK    8  A    between atoms: S_19  and  C_22
REMARK                            x       y       z     vdW  Elec       q    Type
REMARK                         _______ _______ _______ _____ _____    ______ ____
ROOT
ATOM      1  N   UNL     1       7.513   7.114  18.199  0.00  0.00    +0.000 N 
ATOM      2  C   UNL     1       7.351   6.249  17.136  0.00  0.00    +0.000 C 
ATOM      3  O   UNL     1       7.637   6.581  15.988  0.00  0.00    +0.000 OA
ATOM      4  H   UNL     1       7.075   6.911  19.089  0.00  0.00    +0.000 HD
ENDROOT
BRANCH   2   5
ATOM      5  C   UNL     1       6.903   4.829  17.478  0.00  0.00    +0.000 C 
ATOM      6  C   UNL     1       6.625   4.022  16.203  0.00  0.00    +0.000 C 
ATOM      7  C   UNL     1       5.341   4.499  15.524  0.00  0.00    +0.000 C 
ATOM      8  C   UNL     1       4.146   4.501  16.478  0.00  0.00    +0.000 C 
ATOM      9  N   UNL     1       4.437   5.261  17.741  0.00  0.00    +0.000 NA
ATOM     10  C   UNL     1       5.693   4.789  18.403  0.00  0.00    +0.000 C 
BRANCH   9  11
ATOM     11  S   UNL     1       3.109   5.308  18.859  0.00  0.00    +0.000 S 
ATOM     12  O   UNL     1       2.035   4.509  18.310  0.00  0.00    +0.000 OA
ATOM     13  O   UNL     1       3.641   5.022  20.179  0.00  0.00    +0.000 OA
BRANCH  11  14
ATOM     14  C   UNL     1       2.575   6.990  18.892  0.00  0.00    +0.000 A 
ATOM     15  C   UNL     1       2.563   7.772  17.740  0.00  0.00    +0.000 A 
ATOM     16  C   UNL     1       2.003   9.049  17.794  0.00  0.00    +0.000 A 
ATOM     17  C   UNL     1       1.437   9.475  18.986  0.00  0.00    +0.000 A 
ATOM     18  N   UNL     1       1.400   8.720  20.107  0.00  0.00    +0.000 NA
ATOM     19  C   UNL     1       1.963   7.486  20.033  0.00  0.00    +0.000 A 
ENDBRANCH  11  14
ENDBRANCH   9  11
ENDBRANCH   2   5
BRANCH   1  20
ATOM     20  C   UNL     1       7.909   8.485  17.915  0.00  0.00    +0.000 C 
BRANCH  20  21
ATOM     21  C   UNL     1       8.932   9.035  18.904  0.00  0.00    +0.000 C 
BRANCH  21  25
ATOM     22  C   UNL     1       9.557  13.268  18.327  0.00  0.00    +0.000 A 
ATOM     23  C   UNL     1       8.627  12.585  17.542  0.00  0.00    +0.000 A 
ATOM     24  C   UNL     1       8.428  11.220  17.750  0.00  0.00    +0.000 A 
ATOM     25  C   UNL     1       9.145  10.522  18.728  0.00  0.00    +0.000 A 
ATOM     26  C   UNL     1      10.085  11.223  19.513  0.00  0.00    +0.000 A 
ATOM     27  C   UNL     1      10.289  12.590  19.307  0.00  0.00    +0.000 A 
BRANCH  22  28
ATOM     28  S   UNL     1       9.863  14.986  18.040  0.00  0.00    +0.000 S 
ATOM     29  O   UNL     1       8.611  15.698  17.984  0.00  0.00    +0.000 OA
ATOM     30  O   UNL     1      10.880  15.118  17.017  0.00  0.00    +0.000 OA
BRANCH  28  31
ATOM     31  N   UNL     1      10.610  15.444  19.473  0.00  0.00    +0.000 NA
ATOM     32  H   UNL     1      10.171  16.303  19.817  0.00  0.00    +0.000 HD
ATOM     33  H   UNL     1      11.617  15.532  19.342  0.00  0.00    +0.000 HD
ENDBRANCH  28  31
ENDBRANCH  22  28
ENDBRANCH  21  25
ENDBRANCH  20  21
ENDBRANCH   1  20
TORSDOF 8
ENDMDL
MODEL 6
REMARK VINA RESULT:      -8.3      1.711      2.256
REMARK  Name = 
REMARK  8 active torsions:
REMARK  status: ('A' for Active; 'I' for Inactive)
REMARK    1  A    between atoms: N_1  and  S_2
REMARK    2  A    between atoms: S_2  and  C_5
REMARK    3  A    between atoms: C_8  and  C_9
REMARK    4  A    between atoms: C_9  and  C_10
REMARK    5  A    between atoms: C_10  and  N_11
REMARK    6  A    between atoms: C_12  and  C_14
REMARK    7  A    between atoms: N_18  and  S_19
REMARK    8  A    between atoms: S_19  and  C_22
REMARK                            x       y       z     vdW  Elec       q    Type
REMARK                         _______ _______ _______ _____ _____    ______ ____
ROOT
ATOM      1  N   UNL     1       8.064   7.640  17.083  0.00  0.00    +0.000 N 
ATOM      2  C   UNL     1       7.132   6.697  17.468  0.00  0.00    +0.000 C 
ATOM      3  O   UNL     1       6.121   7.011  18.093  0.00  0.00    +0.000 OA
ATOM      4  H   UNL     1       8.981   7.349  16.771  0.00  0.00    +0.000 HD
ENDROOT
BRANCH   2   5
ATOM      5  C   UNL     1       7.372   5.269  16.983  0.00  0.00    +0.000 C 
ATOM      6  C   UNL     1       7.057   5.141  15.487  0.00  0.00    +0.000 C 
ATOM      7  C   UNL     1       5.550   5.206  15.239  0.00  0.00    +0.000 C 
ATOM      8  C   UNL     1       4.778   4.190  16.080  0.00  0.00    +0.000 C 
ATOM      9  N   UNL     1       5.118   4.296  17.540  0.00  0.00    +0.000 NA
ATOM     10  C   UNL     1       6.593   4.228  17.779  0.00  0.00    +0.000 C 
BRANCH   9  11
ATOM     11  S   UNL     1       4.259   3.172  18.548  0.00  0.00    +0.000 S 
ATOM     12  O   UNL     1       3.658   2.173  17.691  0.00  0.00    +0.000 OA
ATOM     13  O   UNL     1       5.153   2.781  19.623  0.00  0.00    +0.000 OA
BRANCH  11  14
ATOM     14  C   UNL     1       2.959   4.102  19.296  0.00  0.00    +0.000 A 
ATOM     15  C   UNL     1       1.911   3.477  19.967  0.00  0.00    +0.000 A 
ATOM     16  C   UNL     1       0.986   4.262  20.656  0.00  0.00    +0.000 A 
ATOM     17  C   UNL     1       1.170   5.636  20.683  0.00  0.00    +0.000 A 
ATOM     18  N   UNL     1       2.202   6.262  20.073  0.00  0.00    +0.000 NA
ATOM     19  C   UNL     1       3.082   5.479  19.398  0.00  0.00    +0.000 A 
ENDBRANCH  11  14
ENDBRANCH   9  11
ENDBRANCH   2   5
BRANCH   1  20
ATOM     20  C   UNL     1       7.889   9.008  17.549  0.00  0.00    +0.000 C 
BRANCH  20  21
ATOM     21  C   UNL     1       8.774   9.356  18.743  0.00  0.00    +0.000 C 
BRANCH  21  25
ATOM     22  C   UNL     1      10.326  13.371  18.410  0.00  0.00    +0.000 A 
ATOM     23  C   UNL     1       9.218  12.986  17.656  0.00  0.00    +0.000 A 
ATOM     24  C   UNL     1       8.721  11.688  17.785  0.00  0.00    +0.000 A 
ATOM     25  C   UNL     1       9.315  10.765  18.653  0.00  0.00    +0.000 A 
ATOM     26  C   UNL     1      10.438  11.166  19.407  0.00  0.00    +0.000 A 
ATOM     27  C   UNL     1      10.940  12.464  19.280  0.00  0.00    +0.000 A 
BRANCH  22  28
ATOM     28  S   UNL     1      11.004  14.993  18.218  0.00  0.00    +0.000 S 
ATOM     29  O   UNL     1      11.345  15.214  16.835  0.00  0.00    +0.000 OA
ATOM     30  O   UNL     1      11.935  15.245  19.299  0.00  0.00    +0.000 OA
BRANCH  28  31
ATOM     31  N   UNL     1       9.670  15.961  18.543  0.00  0.00    +0.000 NA
ATOM     32  H   UNL     1       9.569  16.059  19.557  0.00  0.00    +0.000 HD
ATOM     33  H   UNL     1       8.836  15.588  18.089  0.00  0.00    +0.000 HD
ENDBRANCH  28  31
ENDBRANCH  22  28
ENDBRANCH  21  25
ENDBRANCH  20  21
ENDBRANCH   1  20
TORSDOF 8
ENDMDL
MODEL 7
REMARK VINA RESULT:      -8.3      1.044      1.057
REMARK  Name = 
REMARK  8 active torsions:
REMARK  status: ('A' for Active; 'I' for Inactive)
REMARK    1  A    between atoms: N_1  and  S_2
REMARK    2  A    between atoms: S_2  and  C_5
REMARK    3  A    between atoms: C_8  and  C_9
REMARK    4  A    between atoms: C_9  and  C_10
REMARK    5  A    between atoms: C_10  and  N_11
REMARK    6  A    between atoms: C_12  and  C_14
REMARK    7  A    between atoms: N_18  and  S_19
REMARK    8  A    between atoms: S_19  and  C_22
REMARK                            x       y       z     vdW  Elec       q    Type
REMARK                         _______ _______ _______ _____ _____    ______ ____
ROOT
ATOM      1  N   UNL     1       7.092   7.154  18.048  0.00  0.00    +0.000 N 
ATOM      2  C   UNL     1       7.270   6.192  17.074  0.00  0.00    +0.000 C 
ATOM      3  O   UNL     1       7.850   6.444  16.021  0.00  0.00    +0.000 OA
ATOM      4  H   UNL     1       6.432   6.998  18.800  0.00  0.00    +0.000 HD
ENDROOT
BRANCH   2   5
ATOM      5  C   UNL     1       6.806   4.779  17.423  0.00  0.00    +0.000 C 
ATOM      6  C   UNL     1       6.486   3.981  16.153  0.00  0.00    +0.000 C 
ATOM      7  C   UNL     1       5.195   4.481  15.503  0.00  0.00    +0.000 C 
ATOM      8  C   UNL     1       4.022   4.501  16.483  0.00  0.00    +0.000 C 
ATOM      9  N   UNL     1       4.354   5.252  17.741  0.00  0.00    +0.000 NA
ATOM     10  C   UNL     1       5.616   4.757  18.375  0.00  0.00    +0.000 C 
BRANCH   9  11
ATOM     11  S   UNL     1       3.051   5.319  18.889  0.00  0.00    +0.000 S 
ATOM     12  O   UNL     1       1.963   4.516  18.376  0.00  0.00    +0.000 OA
ATOM     13  O   UNL     1       3.612   5.049  20.200  0.00  0.00    +0.000 OA
BRANCH  11  14
ATOM     14  C   UNL     1       2.523   7.002  18.911  0.00  0.00    +0.000 A 
ATOM     15  C   UNL     1       2.501   7.773  17.751  0.00  0.00    +0.000 A 
ATOM     16  C   UNL     1       1.946   9.052  17.799  0.00  0.00    +0.000 A 
ATOM     17  C   UNL     1       1.395   9.492  18.993  0.00  0.00    +0.000 A 
ATOM     18  N   UNL     1       1.369   8.748  20.122  0.00  0.00    +0.000 NA
ATOM     19  C   UNL     1       1.926   7.512  20.054  0.00  0.00    +0.000 A 
ENDBRANCH  11  14
ENDBRANCH   9  11
ENDBRANCH   2   5
BRANCH   1  20
ATOM     20  C   UNL     1       7.492   8.520  17.746  0.00  0.00    +0.000 C 
BRANCH  20  21
ATOM     21  C   UNL     1       8.796   8.930  18.423  0.00  0.00    +0.000 C 
BRANCH  21  25
ATOM     22  C   UNL     1       9.229  13.220  18.649  0.00  0.00    +0.000 A 
ATOM     23  C   UNL     1       9.863  12.403  19.586  0.00  0.00    +0.000 A 
ATOM     24  C   UNL     1       9.723  11.018  19.491  0.00  0.00    +0.000 A 
ATOM     25  C   UNL     1       8.957  10.433  18.476  0.00  0.00    +0.000 A 
ATOM     26  C   UNL     1       8.318  11.270  17.538  0.00  0.00    +0.000 A 
ATOM     27  C   UNL     1       8.454  12.657  17.630  0.00  0.00    +0.000 A 
BRANCH  22  28
ATOM     28  S   UNL     1       9.349  14.979  18.787  0.00  0.00    +0.000 S 
ATOM     29  O   UNL     1      10.487  15.324  19.602  0.00  0.00    +0.000 OA
ATOM     30  O   UNL     1       8.027  15.523  19.025  0.00  0.00    +0.000 OA
BRANCH  28  31
ATOM     31  N   UNL     1       9.737  15.420  17.213  0.00  0.00    +0.000 NA
ATOM     32  H   UNL     1      10.124  16.367  17.219  0.00  0.00    +0.000 HD
ATOM     33  H   UNL     1       8.927  15.320  16.602  0.00  0.00    +0.000 HD
ENDBRANCH  28  31
ENDBRANCH  22  28
ENDBRANCH  21  25
ENDBRANCH  20  21
ENDBRANCH   1  20
TORSDOF 8
ENDMDL
MODEL 8
REMARK VINA RESULT:      -8.0      1.314      1.538
REMARK  Name = 
REMARK  8 active torsions:
REMARK  status: ('A' for Active; 'I' for Inactive)
REMARK    1  A    between atoms: N_1  and  S_2
REMARK    2  A    between atoms: S_2  and  C_5
REMARK    3  A    between atoms: C_8  and  C_9
REMARK    4  A    between atoms: C_9  and  C_10
REMARK    5  A    between atoms: C_10  and  N_11
REMARK    6  A    between atoms: C_12  and  C_14
REMARK    7  A    between atoms: N_18  and  S_19
REMARK    8  A    between atoms: S_19  and  C_22
REMARK                            x       y       z     vdW  Elec       q    Type
REMARK                         _______ _______ _______ _____ _____    ______ ____
ROOT
ATOM      1  N   UNL     1       7.145   6.881  18.018  0.00  0.00    +0.000 N 
ATOM      2  C   UNL     1       7.272   5.984  16.976  0.00  0.00    +0.000 C 
ATOM      3  O   UNL     1       7.798   6.305  15.914  0.00  0.00    +0.000 OA
ATOM      4  H   UNL     1       6.524   6.676  18.791  0.00  0.00    +0.000 HD
ENDROOT
BRANCH   2   5
ATOM      5  C   UNL     1       6.825   4.551  17.256  0.00  0.00    +0.000 C 
ATOM      6  C   UNL     1       6.406   3.847  15.960  0.00  0.00    +0.000 C 
ATOM      7  C   UNL     1       5.074   4.395  15.446  0.00  0.00    +0.000 C 
ATOM      8  C   UNL     1       3.977   4.347  16.509  0.00  0.00    +0.000 C 
ATOM      9  N   UNL     1       4.407   5.005  17.789  0.00  0.00    +0.000 NA
ATOM     10  C   UNL     1       5.708   4.463  18.290  0.00  0.00    +0.000 C 
BRANCH   9  11
ATOM     11  S   UNL     1       3.193   4.992  19.033  0.00  0.00    +0.000 S 
ATOM     12  O   UNL     1       2.184   4.024  18.660  0.00  0.00    +0.000 OA
ATOM     13  O   UNL     1       3.878   4.889  20.308  0.00  0.00    +0.000 OA
BRANCH  11  14
ATOM     14  C   UNL     1       2.454   6.593  18.992  0.00  0.00    +0.000 A 
ATOM     15  C   UNL     1       1.965   7.199  20.147  0.00  0.00    +0.000 A 
ATOM     16  C   UNL     1       1.517   8.519  20.082  0.00  0.00    +0.000 A 
ATOM     17  C   UNL     1       1.617   9.194  18.874  0.00  0.00    +0.000 A 
ATOM     18  N   UNL     1       2.124   8.642  17.750  0.00  0.00    +0.000 NA
ATOM     19  C   UNL     1       2.541   7.352  17.834  0.00  0.00    +0.000 A 
ENDBRANCH  11  14
ENDBRANCH   9  11
ENDBRANCH   2   5
BRANCH   1  20
ATOM     20  C   UNL     1       7.531   8.264  17.784  0.00  0.00    +0.000 C 
BRANCH  20  21
ATOM     21  C   UNL     1       8.755   8.693  18.589  0.00  0.00    +0.000 C 
BRANCH  21  25
ATOM     22  C   UNL     1       9.179  12.987  18.735  0.00  0.00    +0.000 A 
ATOM     23  C   UNL     1       9.707  12.198  19.757  0.00  0.00    +0.000 A 
ATOM     24  C   UNL     1       9.573  10.810  19.688  0.00  0.00    +0.000 A 
ATOM     25  C   UNL     1       8.915  10.197  18.615  0.00  0.00    +0.000 A 
ATOM     26  C   UNL     1       8.382  11.007  17.591  0.00  0.00    +0.000 A 
ATOM     27  C   UNL     1       8.513  12.396  17.657  0.00  0.00    +0.000 A 
BRANCH  22  28
ATOM     28  S   UNL     1       9.291  14.750  18.834  0.00  0.00    +0.000 S 
ATOM     29  O   UNL     1      10.645  15.164  18.567  0.00  0.00    +0.000 OA
ATOM     30  O   UNL     1       8.553  15.203  19.995  0.00  0.00    +0.000 OA
BRANCH  28  31
ATOM     31  N   UNL     1       8.374  15.225  17.509  0.00  0.00    +0.000 NA
ATOM     32  H   UNL     1       7.663  14.512  17.324  0.00  0.00    +0.000 HD
ATOM     33  H   UNL     1       8.974  15.413  16.706  0.00  0.00    +0.000 HD
ENDBRANCH  28  31
ENDBRANCH  22  28
ENDBRANCH  21  25
ENDBRANCH  20  21
ENDBRANCH   1  20
TORSDOF 8
ENDMDL
MODEL 9
REMARK VINA RESULT:      -8.0      5.319      6.695
REMARK  Name = 
REMARK  8 active torsions:
REMARK  status: ('A' for Active; 'I' for Inactive)
REMARK    1  A    between atoms: N_1  and  S_2
REMARK    2  A    between atoms: S_2  and  C_5
REMARK    3  A    between atoms: C_8  and  C_9
REMARK    4  A    between atoms: C_9  and  C_10
REMARK    5  A    between atoms: C_10  and  N_11
REMARK    6  A    between atoms: C_12  and  C_14
REMARK    7  A    between atoms: N_18  and  S_19
REMARK    8  A    between atoms: S_19  and  C_22
REMARK                            x       y       z     vdW  Elec       q    Type
REMARK                         _______ _______ _______ _____ _____    ______ ____
ROOT
ATOM      1  N   UNL     1       4.533   6.539  17.550  0.00  0.00    +0.000 N 
ATOM      2  C   UNL     1       5.867   6.707  17.237  0.00  0.00    +0.000 C 
ATOM      3  O   UNL     1       6.354   7.825  17.081  0.00  0.00    +0.000 OA
ATOM      4  H   UNL     1       4.102   5.627  17.460  0.00  0.00    +0.000 HD
ENDROOT
BRANCH   2   5
ATOM      5  C   UNL     1       6.722   5.442  17.205  0.00  0.00    +0.000 C 
ATOM      6  C   UNL     1       6.886   4.931  15.768  0.00  0.00    +0.000 C 
ATOM      7  C   UNL     1       5.580   4.326  15.252  0.00  0.00    +0.000 C 
ATOM      8  C   UNL     1       5.027   3.251  16.188  0.00  0.00    +0.000 C 
ATOM      9  N   UNL     1       4.904   3.746  17.601  0.00  0.00    +0.000 NA
ATOM     10  C   UNL     1       6.185   4.334  18.103  0.00  0.00    +0.000 C 
BRANCH   9  11
ATOM     11  S   UNL     1       4.269   2.569  18.709  0.00  0.00    +0.000 S 
ATOM     12  O   UNL     1       3.751   1.462  17.935  0.00  0.00    +0.000 OA
ATOM     13  O   UNL     1       5.273   2.347  19.732  0.00  0.00    +0.000 OA
BRANCH  11  14
ATOM     14  C   UNL     1       2.908   3.357  19.510  0.00  0.00    +0.000 A 
ATOM     15  C   UNL     1       3.085   4.490  20.300  0.00  0.00    +0.000 A 
ATOM     16  C   UNL     1       1.962   5.152  20.797  0.00  0.00    +0.000 A 
ATOM     17  C   UNL     1       0.706   4.681  20.446  0.00  0.00    +0.000 A 
ATOM     18  N   UNL     1       0.507   3.608  19.648  0.00  0.00    +0.000 NA
ATOM     19  C   UNL     1       1.615   2.972  19.188  0.00  0.00    +0.000 A 
ENDBRANCH  11  14
ENDBRANCH   9  11
ENDBRANCH   2   5
BRANCH   1  20
ATOM     20  C   UNL     1       3.677   7.715  17.563  0.00  0.00    +0.000 C 
BRANCH  20  21
ATOM     21  C   UNL     1       2.284   7.441  18.122  0.00  0.00    +0.000 C 
BRANCH  21  25
ATOM     22  C   UNL     1       0.688  10.762  20.373  0.00  0.00    +0.000 A 
ATOM     23  C   UNL     1       0.877   9.525  20.991  0.00  0.00    +0.000 A 
ATOM     24  C   UNL     1       1.406   8.465  20.252  0.00  0.00    +0.000 A 
ATOM     25  C   UNL     1       1.747   8.619  18.904  0.00  0.00    +0.000 A 
ATOM     26  C   UNL     1       1.547   9.874  18.289  0.00  0.00    +0.000 A 
ATOM     27  C   UNL     1       1.017  10.936  19.025  0.00  0.00    +0.000 A 
BRANCH  22  28
ATOM     28  S   UNL     1      -0.033  12.100  21.278  0.00  0.00    +0.000 S 
ATOM     29  O   UNL     1      -1.291  12.467  20.677  0.00  0.00    +0.000 OA
ATOM     30  O   UNL     1       0.998  13.071  21.582  0.00  0.00    +0.000 OA
BRANCH  28  31
ATOM     31  N   UNL     1      -0.399  11.363  22.743  0.00  0.00    +0.000 NA
ATOM     32  H   UNL     1      -1.164  11.875  23.190  0.00  0.00    +0.000 HD
ATOM     33  H   UNL     1       0.433  11.292  23.327  0.00  0.00    +0.000 HD
ENDBRANCH  28  31
ENDBRANCH  22  28
ENDBRANCH  21  25
ENDBRANCH  20  21
ENDBRANCH   1  20
TORSDOF 8
ENDMDL
