MODEL 1
REMARK VINA RESULT:      -7.5      0.000      0.000
REMARK  Name = 
REMARK  5 active torsions:
REMARK  status: ('A' for Active; 'I' for Inactive)
REMARK    1  A    between atoms: C_1  and  C_2
REMARK    2  A    between atoms: C_2  and  C_3
REMARK    3  A    between atoms: C_3  and  N_4
REMARK    4  A    between atoms: C_7  and  O_8
REMARK    5  A    between atoms: O_8  and  C_9
REMARK                            x       y       z     vdW  Elec       q    Type
REMARK                         _______ _______ _______ _____ _____    ______ ____
ROOT
ATOM      1  N   UNL     1       0.475   9.431  22.273  0.00  0.00    +0.000 N 
ATOM      2  C   UNL     1       0.667   9.321  20.905  0.00  0.00    +0.000 A 
ATOM      3  N   UNL     1      -0.028  10.070  20.067  0.00  0.00    +0.000 NA
ATOM      4  C   UNL     1       0.268   9.877  18.788  0.00  0.00    +0.000 A 
ATOM      5  N   UNL     1       1.159   9.019  18.315  0.00  0.00    +0.000 NA
ATOM      6  C   UNL     1       1.802   8.305  19.222  0.00  0.00    +0.000 A 
ATOM      7  N   UNL     1       2.690   7.341  18.795  0.00  0.00    +0.000 N 
ATOM      8  C   UNL     1       3.419   6.539  19.769  0.00  0.00    +0.000 C 
ATOM      9  C   UNL     1       3.658   5.099  19.222  0.00  0.00    +0.000 C 
ATOM     10  C   UNL     1       3.402   4.981  17.719  0.00  0.00    +0.000 C 
ATOM     11  C   UNL     1       4.084   6.196  17.083  0.00  0.00    +0.000 C 
ATOM     12  C   UNL     1       3.145   7.389  17.402  0.00  0.00    +0.000 C 
ATOM     13  C   UNL     1       5.522   6.407  17.598  0.00  0.00    +0.000 A 
ATOM     14  C   UNL     1       6.310   7.372  17.090  0.00  0.00    +0.000 A 
ATOM     15  C   UNL     1       7.613   7.635  17.644  0.00  0.00    +0.000 A 
ATOM     16  C   UNL     1       8.112   6.868  18.618  0.00  0.00    +0.000 A 
ATOM     17  C   UNL     1       7.305   5.754  19.169  0.00  0.00    +0.000 A 
ATOM     18  O   UNL     1       7.783   5.048  20.056  0.00  0.00    +0.000 OA
ATOM     19  N   UNL     1       6.007   5.631  18.670  0.00  0.00    +0.000 N 
ATOM     20  C   UNL     1       5.125   4.716  19.392  0.00  0.00    +0.000 C 
ATOM     21  N   UNL     1       1.571   8.431  20.533  0.00  0.00    +0.000 NA
ATOM     22  H   UNL     1       0.866   8.591  22.689  0.00  0.00    +0.000 HD
ENDROOT
BRANCH   4  23
ATOM     23  O   UNL     1      -0.445  10.545  17.817  0.00  0.00    +0.000 OA
ATOM     24  C   UNL     1      -1.550  11.263  18.348  0.00  0.00    +0.000 C 
ENDBRANCH   4  23
BRANCH   1  25
ATOM     25  C   UNL     1      -0.872   9.772  22.701  0.00  0.00    +0.000 C 
BRANCH  25  27
ATOM     26  C   UNL     1      -2.121  11.955  22.475  0.00  0.00    +0.000 C 
ATOM     27  C   UNL     1      -0.918  11.253  23.084  0.00  0.00    +0.000 C 
ENDBRANCH  25  27
ENDBRANCH   1  25
TORSDOF 3
ENDMDL
MODEL 2
REMARK VINA RESULT:      -6.6      4.512     10.801
REMARK  Name = 
REMARK  5 active torsions:
REMARK  status: ('A' for Active; 'I' for Inactive)
REMARK    1  A    between atoms: C_1  and  C_2
REMARK    2  A    between atoms: C_2  and  C_3
REMARK    3  A    between atoms: C_3  and  N_4
REMARK    4  A    between atoms: C_7  and  O_8
REMARK    5  A    between atoms: O_8  and  C_9
REMARK                            x       y       z     vdW  Elec       q    Type
REMARK                         _______ _______ _______ _____ _____    ______ ____
ROOT
ATOM      1  N   UNL     1       0.633  11.418  18.121  0.00  0.00    +0.000 N 
ATOM      2  C   UNL     1      -0.229  11.584  19.193  0.00  0.00    +0.000 A 
ATOM      3  N   UNL     1       0.222  11.512  20.434  0.00  0.00    +0.000 NA
ATOM      4  C   UNL     1      -0.703  11.708  21.363  0.00  0.00    +0.000 A 
ATOM      5  N   UNL     1      -1.988  11.945  21.147  0.00  0.00    +0.000 NA
ATOM      6  C   UNL     1      -2.354  11.992  19.878  0.00  0.00    +0.000 A 
ATOM      7  N   UNL     1      -3.689  12.163  19.582  0.00  0.00    +0.000 N 
ATOM      8  C   UNL     1      -4.126  12.223  18.193  0.00  0.00    +0.000 C 
ATOM      9  C   UNL     1      -5.545  11.597  18.039  0.00  0.00    +0.000 C 
ATOM     10  C   UNL     1      -6.261  11.405  19.376  0.00  0.00    +0.000 C 
ATOM     11  C   UNL     1      -6.048  12.706  20.155  0.00  0.00    +0.000 C 
ATOM     12  C   UNL     1      -4.579  12.634  20.648  0.00  0.00    +0.000 C 
ATOM     13  C   UNL     1      -6.339  13.960  19.307  0.00  0.00    +0.000 A 
ATOM     14  C   UNL     1      -6.290  15.192  19.846  0.00  0.00    +0.000 A 
ATOM     15  C   UNL     1      -6.459  16.367  19.029  0.00  0.00    +0.000 A 
ATOM     16  C   UNL     1      -6.759  16.262  17.731  0.00  0.00    +0.000 A 
ATOM     17  C   UNL     1      -6.882  14.925  17.105  0.00  0.00    +0.000 A 
ATOM     18  O   UNL     1      -7.172  14.844  15.913  0.00  0.00    +0.000 OA
ATOM     19  N   UNL     1      -6.589  13.834  17.926  0.00  0.00    +0.000 N 
ATOM     20  C   UNL     1      -6.448  12.544  17.253  0.00  0.00    +0.000 C 
ATOM     21  N   UNL     1      -1.491  11.808  18.873  0.00  0.00    +0.000 NA
ATOM     22  H   UNL     1       0.053  11.215  17.312  0.00  0.00    +0.000 HD
ENDROOT
BRANCH   4  23
ATOM     23  O   UNL     1      -0.368  11.580  22.694  0.00  0.00    +0.000 OA
ATOM     24  C   UNL     1      -0.692  10.300  23.218  0.00  0.00    +0.000 C 
ENDBRANCH   4  23
BRANCH   1  25
ATOM     25  C   UNL     1       1.748  10.510  18.334  0.00  0.00    +0.000 C 
BRANCH  25  27
ATOM     26  C   UNL     1       2.228   8.031  18.313  0.00  0.00    +0.000 C 
ATOM     27  C   UNL     1       1.428   9.161  17.687  0.00  0.00    +0.000 C 
ENDBRANCH  25  27
ENDBRANCH   1  25
TORSDOF 3
ENDMDL
MODEL 3
REMARK VINA RESULT:      -6.5      2.479      7.811
REMARK  Name = 
REMARK  5 active torsions:
REMARK  status: ('A' for Active; 'I' for Inactive)
REMARK    1  A    between atoms: C_1  and  C_2
REMARK    2  A    between atoms: C_2  and  C_3
REMARK    3  A    between atoms: C_3  and  N_4
REMARK    4  A    between atoms: C_7  and  O_8
REMARK    5  A    between atoms: O_8  and  C_9
REMARK                            x       y       z     vdW  Elec       q    Type
REMARK                         _______ _______ _______ _____ _____    ______ ____
ROOT
ATOM      1  N   UNL     1       1.845   5.292  20.984  0.00  0.00    +0.000 N 
ATOM      2  C   UNL     1       2.114   6.248  20.017  0.00  0.00    +0.000 A 
ATOM      3  N   UNL     1       2.865   5.951  18.971  0.00  0.00    +0.000 NA
ATOM      4  C   UNL     1       3.027   6.951  18.114  0.00  0.00    +0.000 A 
ATOM      5  N   UNL     1       2.525   8.171  18.235  0.00  0.00    +0.000 NA
ATOM      6  C   UNL     1       1.794   8.382  19.315  0.00  0.00    +0.000 A 
ATOM      7  N   UNL     1       1.302   9.650  19.541  0.00  0.00    +0.000 N 
ATOM      8  C   UNL     1       0.490   9.917  20.720  0.00  0.00    +0.000 C 
ATOM      9  C   UNL     1       0.736  11.368  21.236  0.00  0.00    +0.000 C 
ATOM     10  C   UNL     1       1.464  12.248  20.220  0.00  0.00    +0.000 C 
ATOM     11  C   UNL     1       0.778  11.989  18.875  0.00  0.00    +0.000 C 
ATOM     12  C   UNL     1       1.304  10.601  18.424  0.00  0.00    +0.000 C 
ATOM     13  C   UNL     1      -0.760  12.048  18.973  0.00  0.00    +0.000 A 
ATOM     14  C   UNL     1      -1.533  11.932  17.877  0.00  0.00    +0.000 A 
ATOM     15  C   UNL     1      -2.968  11.883  17.984  0.00  0.00    +0.000 A 
ATOM     16  C   UNL     1      -3.575  12.043  19.163  0.00  0.00    +0.000 A 
ATOM     17  C   UNL     1      -2.767  12.234  20.390  0.00  0.00    +0.000 A 
ATOM     18  O   UNL     1      -3.340  12.393  21.467  0.00  0.00    +0.000 OA
ATOM     19  N   UNL     1      -1.382  12.151  20.233  0.00  0.00    +0.000 N 
ATOM     20  C   UNL     1      -0.600  12.071  21.464  0.00  0.00    +0.000 C 
ATOM     21  N   UNL     1       1.575   7.436  20.234  0.00  0.00    +0.000 NA
ATOM     22  H   UNL     1       1.526   5.795  21.808  0.00  0.00    +0.000 HD
ENDROOT
BRANCH   4  23
ATOM     23  O   UNL     1       3.852   6.784  17.023  0.00  0.00    +0.000 OA
ATOM     24  C   UNL     1       4.563   5.555  17.060  0.00  0.00    +0.000 C 
ENDBRANCH   4  23
BRANCH   1  25
ATOM     25  C   UNL     1       2.891   4.310  21.217  0.00  0.00    +0.000 C 
BRANCH  25  27
ATOM     26  C   UNL     1       1.206   2.590  20.458  0.00  0.00    +0.000 C 
ATOM     27  C   UNL     1       2.249   2.951  21.502  0.00  0.00    +0.000 C 
ENDBRANCH  25  27
ENDBRANCH   1  25
TORSDOF 3
ENDMDL
MODEL 4
REMARK VINA RESULT:      -6.5      0.952      1.189
REMARK  Name = 
REMARK  5 active torsions:
REMARK  status: ('A' for Active; 'I' for Inactive)
REMARK    1  A    between atoms: C_1  and  C_2
REMARK    2  A    between atoms: C_2  and  C_3
REMARK    3  A    between atoms: C_3  and  N_4
REMARK    4  A    between atoms: C_7  and  O_8
REMARK    5  A    between atoms: O_8  and  C_9
REMARK                            x       y       z     vdW  Elec       q    Type
REMARK                         _______ _______ _______ _____ _____    ______ ____
ROOT
ATOM      1  N   UNL     1       0.688  10.905  21.588  0.00  0.00    +0.000 N 
ATOM      2  C   UNL     1       0.628  10.325  20.330  0.00  0.00    +0.000 A 
ATOM      3  N   UNL     1      -0.154  10.833  19.393  0.00  0.00    +0.000 NA
ATOM      4  C   UNL     1      -0.101  10.193  18.233  0.00  0.00    +0.000 A 
ATOM      5  N   UNL     1       0.635   9.125  17.963  0.00  0.00    +0.000 NA
ATOM      6  C   UNL     1       1.380   8.680  18.960  0.00  0.00    +0.000 A 
ATOM      7  N   UNL     1       2.114   7.528  18.771  0.00  0.00    +0.000 N 
ATOM      8  C   UNL     1       2.950   7.012  19.847  0.00  0.00    +0.000 C 
ATOM      9  C   UNL     1       2.994   5.454  19.805  0.00  0.00    +0.000 C 
ATOM     10  C   UNL     1       2.470   4.877  18.489  0.00  0.00    +0.000 C 
ATOM     11  C   UNL     1       3.107   5.720  17.381  0.00  0.00    +0.000 C 
ATOM     12  C   UNL     1       2.318   7.056  17.397  0.00  0.00    +0.000 C 
ATOM     13  C   UNL     1       4.624   5.913  17.579  0.00  0.00    +0.000 A 
ATOM     14  C   UNL     1       5.371   6.553  16.660  0.00  0.00    +0.000 A 
ATOM     15  C   UNL     1       6.766   6.824  16.896  0.00  0.00    +0.000 A 
ATOM     16  C   UNL     1       7.377   6.368  17.992  0.00  0.00    +0.000 A 
ATOM     17  C   UNL     1       6.610   5.606  19.005  0.00  0.00    +0.000 A 
ATOM     18  O   UNL     1       7.189   5.182  20.003  0.00  0.00    +0.000 OA
ATOM     19  N   UNL     1       5.239   5.484  18.771  0.00  0.00    +0.000 N 
ATOM     20  C   UNL     1       4.441   4.974  19.885  0.00  0.00    +0.000 C 
ATOM     21  N   UNL     1       1.393   9.259  20.165  0.00  0.00    +0.000 NA
ATOM     22  H   UNL     1       1.091  10.209  22.209  0.00  0.00    +0.000 HD
ENDROOT
BRANCH   4  23
ATOM     23  O   UNL     1      -0.929  10.583  17.203  0.00  0.00    +0.000 OA
ATOM     24  C   UNL     1      -1.974  11.442  17.639  0.00  0.00    +0.000 C 
ENDBRANCH   4  23
BRANCH   1  25
ATOM     25  C   UNL     1      -0.538  11.529  22.060  0.00  0.00    +0.000 C 
BRANCH  25  27
ATOM     26  C   UNL     1      -0.247   9.493  23.524  0.00  0.00    +0.000 C 
ATOM     27  C   UNL     1      -1.139  10.673  23.176  0.00  0.00    +0.000 C 
ENDBRANCH  25  27
ENDBRANCH   1  25
TORSDOF 3
ENDMDL
MODEL 5
REMARK VINA RESULT:      -6.4      5.282     11.315
REMARK  Name = 
REMARK  5 active torsions:
REMARK  status: ('A' for Active; 'I' for Inactive)
REMARK    1  A    between atoms: C_1  and  C_2
REMARK    2  A    between atoms: C_2  and  C_3
REMARK    3  A    between atoms: C_3  and  N_4
REMARK    4  A    between atoms: C_7  and  O_8
REMARK    5  A    between atoms: O_8  and  C_9
REMARK                            x       y       z     vdW  Elec       q    Type
REMARK                         _______ _______ _______ _____ _____    ______ ____
ROOT
ATOM      1  N   UNL     1      -2.687  12.005  17.682  0.00  0.00    +0.000 N 
ATOM      2  C   UNL     1      -2.122  11.975  18.947  0.00  0.00    +0.000 A 
ATOM      3  N   UNL     1      -0.906  11.489  19.127  0.00  0.00    +0.000 NA
ATOM      4  C   UNL     1      -0.480  11.537  20.382  0.00  0.00    +0.000 A 
ATOM      5  N   UNL     1      -1.159  12.004  21.420  0.00  0.00    +0.000 NA
ATOM      6  C   UNL     1      -2.368  12.463  21.150  0.00  0.00    +0.000 A 
ATOM      7  N   UNL     1      -3.158  12.896  22.194  0.00  0.00    +0.000 N 
ATOM      8  C   UNL     1      -4.495  13.411  21.931  0.00  0.00    +0.000 C 
ATOM      9  C   UNL     1      -5.457  13.060  23.106  0.00  0.00    +0.000 C 
ATOM     10  C   UNL     1      -4.719  12.595  24.363  0.00  0.00    +0.000 C 
ATOM     11  C   UNL     1      -3.558  13.575  24.553  0.00  0.00    +0.000 C 
ATOM     12  C   UNL     1      -2.513  13.161  23.484  0.00  0.00    +0.000 C 
ATOM     13  C   UNL     1      -3.998  15.047  24.427  0.00  0.00    +0.000 A 
ATOM     14  C   UNL     1      -3.134  16.055  24.650  0.00  0.00    +0.000 A 
ATOM     15  C   UNL     1      -3.519  17.425  24.430  0.00  0.00    +0.000 A 
ATOM     16  C   UNL     1      -4.771  17.740  24.088  0.00  0.00    +0.000 A 
ATOM     17  C   UNL     1      -5.775  16.668  23.889  0.00  0.00    +0.000 A 
ATOM     18  O   UNL     1      -6.927  16.974  23.586  0.00  0.00    +0.000 OA
ATOM     19  N   UNL     1      -5.305  15.358  24.001  0.00  0.00    +0.000 N 
ATOM     20  C   UNL     1      -6.215  14.309  23.548  0.00  0.00    +0.000 C 
ATOM     21  N   UNL     1      -2.883  12.455  19.915  0.00  0.00    +0.000 NA
ATOM     22  H   UNL     1      -3.687  12.125  17.814  0.00  0.00    +0.000 HD
ENDROOT
BRANCH   4  23
ATOM     23  O   UNL     1       0.742  10.989  20.707  0.00  0.00    +0.000 OA
ATOM     24  C   UNL     1       0.783   9.585  20.495  0.00  0.00    +0.000 C 
ENDBRANCH   4  23
BRANCH   1  25
ATOM     25  C   UNL     1      -2.300  10.927  16.786  0.00  0.00    +0.000 C 
BRANCH  25  27
ATOM     26  C   UNL     1      -3.140  10.114  14.548  0.00  0.00    +0.000 C 
ATOM     27  C   UNL     1      -3.519  10.491  15.970  0.00  0.00    +0.000 C 
ENDBRANCH  25  27
ENDBRANCH   1  25
TORSDOF 3
ENDMDL
MODEL 6
REMARK VINA RESULT:      -6.3      2.699      4.597
REMARK  Name = 
REMARK  5 active torsions:
REMARK  status: ('A' for Active; 'I' for Inactive)
REMARK    1  A    between atoms: C_1  and  C_2
REMARK    2  A    between atoms: C_2  and  C_3
REMARK    3  A    between atoms: C_3  and  N_4
REMARK    4  A    between atoms: C_7  and  O_8
REMARK    5  A    between atoms: O_8  and  C_9
REMARK                            x       y       z     vdW  Elec       q    Type
REMARK                         _______ _______ _______ _____ _____    ______ ____
ROOT
ATOM      1  N   UNL     1       0.011  11.112  18.194  0.00  0.00    +0.000 N 
ATOM      2  C   UNL     1       0.395  10.374  19.302  0.00  0.00    +0.000 A 
ATOM      3  N   UNL     1       0.134  10.810  20.522  0.00  0.00    +0.000 NA
ATOM      4  C   UNL     1       0.539   9.998  21.489  0.00  0.00    +0.000 A 
ATOM      5  N   UNL     1       1.168   8.843  21.327  0.00  0.00    +0.000 NA
ATOM      6  C   UNL     1       1.395   8.489  20.075  0.00  0.00    +0.000 A 
ATOM      7  N   UNL     1       2.110   7.335  19.836  0.00  0.00    +0.000 N 
ATOM      8  C   UNL     1       2.375   6.913  18.467  0.00  0.00    +0.000 C 
ATOM      9  C   UNL     1       3.758   6.199  18.373  0.00  0.00    +0.000 C 
ATOM     10  C   UNL     1       4.322   5.808  19.739  0.00  0.00    +0.000 C 
ATOM     11  C   UNL     1       3.156   5.181  20.508  0.00  0.00    +0.000 C 
ATOM     12  C   UNL     1       2.275   6.382  20.939  0.00  0.00    +0.000 C 
ATOM     13  C   UNL     1       2.387   4.138  19.673  0.00  0.00    +0.000 A 
ATOM     14  C   UNL     1       1.384   3.417  20.209  0.00  0.00    +0.000 A 
ATOM     15  C   UNL     1       0.600   2.521  19.399  0.00  0.00    +0.000 A 
ATOM     16  C   UNL     1       0.904   2.311  18.116  0.00  0.00    +0.000 A 
ATOM     17  C   UNL     1       2.038   3.036  17.496  0.00  0.00    +0.000 A 
ATOM     18  O   UNL     1       2.314   2.823  16.316  0.00  0.00    +0.000 OA
ATOM     19  N   UNL     1       2.679   3.978  18.304  0.00  0.00    +0.000 N 
ATOM     20  C   UNL     1       3.611   4.877  17.626  0.00  0.00    +0.000 C 
ATOM     21  N   UNL     1       1.023   9.242  19.034  0.00  0.00    +0.000 NA
ATOM     22  H   UNL     1       0.555  10.763  17.410  0.00  0.00    +0.000 HD
ENDROOT
BRANCH   4  23
ATOM     23  O   UNL     1       0.392  10.382  22.805  0.00  0.00    +0.000 OA
ATOM     24  C   UNL     1      -0.893  10.923  23.074  0.00  0.00    +0.000 C 
ENDBRANCH   4  23
BRANCH   1  25
ATOM     25  C   UNL     1       0.010  12.556  18.359  0.00  0.00    +0.000 C 
BRANCH  25  27
ATOM     26  C   UNL     1       1.807  14.049  19.318  0.00  0.00    +0.000 C 
ATOM     27  C   UNL     1       1.439  13.080  18.206  0.00  0.00    +0.000 C 
ENDBRANCH  25  27
ENDBRANCH   1  25
TORSDOF 3
ENDMDL
MODEL 7
REMARK VINA RESULT:      -6.2      6.401      8.066
REMARK  Name = 
REMARK  5 active torsions:
REMARK  status: ('A' for Active; 'I' for Inactive)
REMARK    1  A    between atoms: C_1  and  C_2
REMARK    2  A    between atoms: C_2  and  C_3
REMARK    3  A    between atoms: C_3  and  N_4
REMARK    4  A    between atoms: C_7  and  O_8
REMARK    5  A    between atoms: O_8  and  C_9
REMARK                            x       y       z     vdW  Elec       q    Type
REMARK                         _______ _______ _______ _____ _____    ______ ____
ROOT
ATOM      1  N   UNL     1      -5.882  11.937  18.956  0.00  0.00    +0.000 N 
ATOM      2  C   UNL     1      -4.655  11.543  18.446  0.00  0.00    +0.000 A 
ATOM      3  N   UNL     1      -4.590  10.753  17.388  0.00  0.00    +0.000 NA
ATOM      4  C   UNL     1      -3.357  10.470  16.993  0.00  0.00    +0.000 A 
ATOM      5  N   UNL     1      -2.238  10.891  17.564  0.00  0.00    +0.000 NA
ATOM      6  C   UNL     1      -2.396  11.669  18.620  0.00  0.00    +0.000 A 
ATOM      7  N   UNL     1      -1.274  12.085  19.307  0.00  0.00    +0.000 N 
ATOM      8  C   UNL     1      -1.412  12.947  20.473  0.00  0.00    +0.000 C 
ATOM      9  C   UNL     1      -0.300  12.632  21.520  0.00  0.00    +0.000 C 
ATOM     10  C   UNL     1       0.836  11.783  20.947  0.00  0.00    +0.000 C 
ATOM     11  C   UNL     1       1.176  12.402  19.588  0.00  0.00    +0.000 C 
ATOM     12  C   UNL     1       0.029  11.948  18.648  0.00  0.00    +0.000 C 
ATOM     13  C   UNL     1       1.329  13.935  19.657  0.00  0.00    +0.000 A 
ATOM     14  C   UNL     1       1.713  14.646  18.580  0.00  0.00    +0.000 A 
ATOM     15  C   UNL     1       1.753  16.086  18.617  0.00  0.00    +0.000 A 
ATOM     16  C   UNL     1       1.499  16.750  19.748  0.00  0.00    +0.000 A 
ATOM     17  C   UNL     1       1.130  16.007  20.976  0.00  0.00    +0.000 A 
ATOM     18  O   UNL     1       0.912  16.632  22.013  0.00  0.00    +0.000 OA
ATOM     19  N   UNL     1       0.993  14.625  20.839  0.00  0.00    +0.000 N 
ATOM     20  C   UNL     1       0.376  13.926  21.964  0.00  0.00    +0.000 C 
ATOM     21  N   UNL     1      -3.600  12.010  19.091  0.00  0.00    +0.000 NA
ATOM     22  H   UNL     1      -5.709  12.270  19.901  0.00  0.00    +0.000 HD
ENDROOT
BRANCH   4  23
ATOM     23  O   UNL     1      -3.162   9.593  15.948  0.00  0.00    +0.000 OA
ATOM     24  C   UNL     1      -3.052  10.253  14.695  0.00  0.00    +0.000 C 
ENDBRANCH   4  23
BRANCH   1  25
ATOM     25  C   UNL     1      -6.966  10.978  18.819  0.00  0.00    +0.000 C 
BRANCH  25  27
ATOM     26  C   UNL     1      -7.166   8.777  20.039  0.00  0.00    +0.000 C 
ATOM     27  C   UNL     1      -7.201  10.291  20.166  0.00  0.00    +0.000 C 
ENDBRANCH  25  27
ENDBRANCH   1  25
TORSDOF 3
ENDMDL
MODEL 8
REMARK VINA RESULT:      -6.2      4.555     10.964
REMARK  Name = 
REMARK  5 active torsions:
REMARK  status: ('A' for Active; 'I' for Inactive)
REMARK    1  A    between atoms: C_1  and  C_2
REMARK    2  A    between atoms: C_2  and  C_3
REMARK    3  A    between atoms: C_3  and  N_4
REMARK    4  A    between atoms: C_7  and  O_8
REMARK    5  A    between atoms: O_8  and  C_9
REMARK                            x       y       z     vdW  Elec       q    Type
REMARK                         _______ _______ _______ _____ _____    ______ ____
ROOT
ATOM      1  N   UNL     1      -0.257  10.787  19.016  0.00  0.00    +0.000 N 
ATOM      2  C   UNL     1      -0.521  12.094  19.394  0.00  0.00    +0.000 A 
ATOM      3  N   UNL     1       0.076  13.102  18.782  0.00  0.00    +0.000 NA
ATOM      4  C   UNL     1      -0.281  14.299  19.228  0.00  0.00    +0.000 A 
ATOM      5  N   UNL     1      -1.142  14.543  20.205  0.00  0.00    +0.000 NA
ATOM      6  C   UNL     1      -1.684  13.477  20.766  0.00  0.00    +0.000 A 
ATOM      7  N   UNL     1      -2.533  13.655  21.837  0.00  0.00    +0.000 N 
ATOM      8  C   UNL     1      -3.152  12.502  22.477  0.00  0.00    +0.000 C 
ATOM      9  C   UNL     1      -3.331  12.755  24.005  0.00  0.00    +0.000 C 
ATOM     10  C   UNL     1      -3.156  14.224  24.391  0.00  0.00    +0.000 C 
ATOM     11  C   UNL     1      -3.949  15.026  23.355  0.00  0.00    +0.000 C 
ATOM     12  C   UNL     1      -3.070  14.999  22.078  0.00  0.00    +0.000 C 
ATOM     13  C   UNL     1      -5.365  14.461  23.125  0.00  0.00    +0.000 A 
ATOM     14  C   UNL     1      -6.241  15.084  22.315  0.00  0.00    +0.000 A 
ATOM     15  C   UNL     1      -7.524  14.500  22.019  0.00  0.00    +0.000 A 
ATOM     16  C   UNL     1      -7.916  13.369  22.612  0.00  0.00    +0.000 A 
ATOM     17  C   UNL     1      -7.010  12.678  23.559  0.00  0.00    +0.000 A 
ATOM     18  O   UNL     1      -7.390  11.645  24.108  0.00  0.00    +0.000 OA
ATOM     19  N   UNL     1      -5.737  13.233  23.707  0.00  0.00    +0.000 N 
ATOM     20  C   UNL     1      -4.760  12.416  24.423  0.00  0.00    +0.000 C 
ATOM     21  N   UNL     1      -1.387  12.231  20.383  0.00  0.00    +0.000 NA
ATOM     22  H   UNL     1      -0.570  10.196  19.782  0.00  0.00    +0.000 HD
ENDROOT
BRANCH   4  23
ATOM     23  O   UNL     1       0.332  15.424  18.720  0.00  0.00    +0.000 OA
ATOM     24  C   UNL     1       1.715  15.483  19.039  0.00  0.00    +0.000 C 
ENDBRANCH   4  23
BRANCH   1  25
ATOM     25  C   UNL     1       1.089  10.522  18.533  0.00  0.00    +0.000 C 
BRANCH  25  27
ATOM     26  C   UNL     1       2.605   8.653  17.770  0.00  0.00    +0.000 C 
ATOM     27  C   UNL     1       1.171   9.076  18.042  0.00  0.00    +0.000 C 
ENDBRANCH  25  27
ENDBRANCH   1  25
TORSDOF 3
ENDMDL
MODEL 9
REMARK VINA RESULT:      -6.2      5.631      7.201
REMARK  Name = 
REMARK  5 active torsions:
REMARK  status: ('A' for Active; 'I' for Inactive)
REMARK    1  A    between atoms: C_1  and  C_2
REMARK    2  A    between atoms: C_2  and  C_3
REMARK    3  A    between atoms: C_3  and  N_4
REMARK    4  A    between atoms: C_7  and  O_8
REMARK    5  A    between atoms: O_8  and  C_9
REMARK                            x       y       z     vdW  Elec       q    Type
REMARK                         _______ _______ _______ _____ _____    ______ ____
ROOT
ATOM      1  N   UNL     1      -5.529  12.523  18.045  0.00  0.00    +0.000 N 
ATOM      2  C   UNL     1      -4.430  11.787  17.631  0.00  0.00    +0.000 A 
ATOM      3  N   UNL     1      -4.514  10.989  16.581  0.00  0.00    +0.000 NA
ATOM      4  C   UNL     1      -3.386  10.358  16.283  0.00  0.00    +0.000 A 
ATOM      5  N   UNL     1      -2.240  10.457  16.940  0.00  0.00    +0.000 NA
ATOM      6  C   UNL     1      -2.248  11.270  17.981  0.00  0.00    +0.000 A 
ATOM      7  N   UNL     1      -1.110  11.365  18.753  0.00  0.00    +0.000 N 
ATOM      8  C   UNL     1      -1.083  12.255  19.906  0.00  0.00    +0.000 C 
ATOM      9  C   UNL     1      -0.189  11.659  21.036  0.00  0.00    +0.000 C 
ATOM     10  C   UNL     1       0.698  10.511  20.552  0.00  0.00    +0.000 C 
ATOM     11  C   UNL     1       1.301  10.980  19.225  0.00  0.00    +0.000 C 
ATOM     12  C   UNL     1       0.146  10.850  18.198  0.00  0.00    +0.000 C 
ATOM     13  C   UNL     1       1.879  12.407  19.307  0.00  0.00    +0.000 A 
ATOM     14  C   UNL     1       2.528  12.957  18.264  0.00  0.00    +0.000 A 
ATOM     15  C   UNL     1       2.974  14.326  18.306  0.00  0.00    +0.000 A 
ATOM     16  C   UNL     1       2.835  15.060  19.414  0.00  0.00    +0.000 A 
ATOM     17  C   UNL     1       2.179  14.478  20.609  0.00  0.00    +0.000 A 
ATOM     18  O   UNL     1       2.071  15.161  21.626  0.00  0.00    +0.000 OA
ATOM     19  N   UNL     1       1.665  13.188  20.460  0.00  0.00    +0.000 N 
ATOM     20  C   UNL     1       0.792  12.718  21.533  0.00  0.00    +0.000 C 
ATOM     21  N   UNL     1      -3.338  11.948  18.357  0.00  0.00    +0.000 NA
ATOM     22  H   UNL     1      -5.340  12.813  19.000  0.00  0.00    +0.000 HD
ENDROOT
BRANCH   4  23
ATOM     23  O   UNL     1      -3.372   9.440  15.255  0.00  0.00    +0.000 OA
ATOM     24  C   UNL     1      -3.771  10.005  14.014  0.00  0.00    +0.000 C 
ENDBRANCH   4  23
BRANCH   1  25
ATOM     25  C   UNL     1      -6.828  11.909  17.823  0.00  0.00    +0.000 C 
BRANCH  25  27
ATOM     26  C   UNL     1      -6.858  11.682  20.338  0.00  0.00    +0.000 C 
ATOM     27  C   UNL     1      -7.166  11.007  19.012  0.00  0.00    +0.000 C 
ENDBRANCH  25  27
ENDBRANCH   1  25
TORSDOF 3
ENDMDL
