MODEL 1
REMARK VINA RESULT:      -7.7      0.000      0.000
REMARK  Name = 
REMARK  2 active torsions:
REMARK  status: ('A' for Active; 'I' for Inactive)
REMARK    1  A    between atoms: C_1  and  N_2
REMARK    2  A    between atoms: C_13  and  N_14
REMARK                            x       y       z     vdW  Elec       q    Type
REMARK                         _______ _______ _______ _____ _____    ______ ____
ROOT
ATOM      1  C   UNL     1       2.696   8.494  17.420  0.00  0.00    +0.000 C 
ATOM      2  N   UNL     1       2.051   8.376  18.741  0.00  0.00    +0.000 N 
ATOM      3  C   UNL     1       1.433   9.445  19.394  0.00  0.00    +0.000 A 
ATOM      4  C   UNL     1       1.299  10.736  18.816  0.00  0.00    +0.000 A 
ATOM      5  C   UNL     1       0.648  11.770  19.494  0.00  0.00    +0.000 A 
ATOM      6  C   UNL     1       0.124  11.563  20.765  0.00  0.00    +0.000 A 
ATOM      7  C   UNL     1       0.238  10.316  21.372  0.00  0.00    +0.000 A 
ATOM      8  C   UNL     1       0.874   9.258  20.706  0.00  0.00    +0.000 A 
ATOM      9  C   UNL     1       0.945   8.007  21.329  0.00  0.00    +0.000 A 
ATOM     10  C   UNL     1       1.529   6.970  20.632  0.00  0.00    +0.000 A 
ATOM     11  N   UNL     1       1.641   5.698  21.061  0.00  0.00    +0.000 NA
ATOM     12  C   UNL     1       2.234   5.038  20.041  0.00  0.00    +0.000 A 
ATOM     13  C   UNL     1       2.537   3.658  20.005  0.00  0.00    +0.000 A 
ATOM     14  C   UNL     1       3.129   3.164  18.803  0.00  0.00    +0.000 A 
ATOM     15 CL   UNL     1       3.560   1.475  18.548  0.00  0.00    +0.000 Cl
ATOM     16  C   UNL     1       3.395   4.038  17.732  0.00  0.00    +0.000 A 
ATOM     17  C   UNL     1       3.093   5.402  17.809  0.00  0.00    +0.000 A 
ATOM     18  C   UNL     1       2.506   5.889  18.980  0.00  0.00    +0.000 A 
ATOM     19  C   UNL     1       2.055   7.150  19.375  0.00  0.00    +0.000 A 
ENDROOT
BRANCH  13  20
ATOM     20  N   UNL     1       2.243   2.811  21.129  0.00  0.00    +0.000 N 
ATOM     21  O   UNL     1       1.114   2.534  21.401  0.00  0.00    +0.000 OA
ATOM     22  O   UNL     1       3.200   2.337  21.898  0.00  0.00    +0.000 OA
ENDBRANCH  13  20
TORSDOF 1
ENDMDL
MODEL 2
REMARK VINA RESULT:      -7.5      1.900      2.292
REMARK  Name = 
REMARK  2 active torsions:
REMARK  status: ('A' for Active; 'I' for Inactive)
REMARK    1  A    between atoms: C_1  and  N_2
REMARK    2  A    between atoms: C_13  and  N_14
REMARK                            x       y       z     vdW  Elec       q    Type
REMARK                         _______ _______ _______ _____ _____    ______ ____
ROOT
ATOM      1  C   UNL     1       2.324   9.756  17.832  0.00  0.00    +0.000 C 
ATOM      2  N   UNL     1       1.922   8.890  18.956  0.00  0.00    +0.000 N 
ATOM      3  C   UNL     1       1.038   9.294  19.960  0.00  0.00    +0.000 A 
ATOM      4  C   UNL     1       0.378  10.552  19.955  0.00  0.00    +0.000 A 
ATOM      5  C   UNL     1      -0.521  10.903  20.965  0.00  0.00    +0.000 A 
ATOM      6  C   UNL     1      -0.785  10.029  22.013  0.00  0.00    +0.000 A 
ATOM      7  C   UNL     1      -0.157   8.788  22.061  0.00  0.00    +0.000 A 
ATOM      8  C   UNL     1       0.739   8.406  21.051  0.00  0.00    +0.000 A 
ATOM      9  C   UNL     1       1.330   7.140  21.110  0.00  0.00    +0.000 A 
ATOM     10  C   UNL     1       2.167   6.768  20.078  0.00  0.00    +0.000 A 
ATOM     11  N   UNL     1       2.782   5.576  19.954  0.00  0.00    +0.000 NA
ATOM     12  C   UNL     1       3.453   5.651  18.783  0.00  0.00    +0.000 A 
ATOM     13  C   UNL     1       4.229   4.625  18.199  0.00  0.00    +0.000 A 
ATOM     14  C   UNL     1       4.818   4.911  16.930  0.00  0.00    +0.000 A 
ATOM     15 CL   UNL     1       5.801   3.761  16.026  0.00  0.00    +0.000 Cl
ATOM     16  C   UNL     1       4.624   6.168  16.324  0.00  0.00    +0.000 A 
ATOM     17  C   UNL     1       3.859   7.164  16.939  0.00  0.00    +0.000 A 
ATOM     18  C   UNL     1       3.274   6.886  18.177  0.00  0.00    +0.000 A 
ATOM     19  C   UNL     1       2.444   7.614  19.032  0.00  0.00    +0.000 A 
ENDROOT
BRANCH  13  20
ATOM     20  N   UNL     1       4.393   3.360  18.862  0.00  0.00    +0.000 N 
ATOM     21  O   UNL     1       5.251   3.209  19.679  0.00  0.00    +0.000 OA
ATOM     22  O   UNL     1       3.624   2.331  18.574  0.00  0.00    +0.000 OA
ENDBRANCH  13  20
TORSDOF 1
ENDMDL
MODEL 3
REMARK VINA RESULT:      -7.2      4.129      7.008
REMARK  Name = 
REMARK  2 active torsions:
REMARK  status: ('A' for Active; 'I' for Inactive)
REMARK    1  A    between atoms: C_1  and  N_2
REMARK    2  A    between atoms: C_13  and  N_14
REMARK                            x       y       z     vdW  Elec       q    Type
REMARK                         _______ _______ _______ _____ _____    ______ ____
ROOT
ATOM      1  C   UNL     1       2.181   5.165  20.960  0.00  0.00    +0.000 C 
ATOM      2  N   UNL     1       2.600   5.878  19.738  0.00  0.00    +0.000 N 
ATOM      3  C   UNL     1       3.383   5.296  18.738  0.00  0.00    +0.000 A 
ATOM      4  C   UNL     1       3.790   3.934  18.763  0.00  0.00    +0.000 A 
ATOM      5  C   UNL     1       4.550   3.386  17.727  0.00  0.00    +0.000 A 
ATOM      6  C   UNL     1       4.940   4.167  16.645  0.00  0.00    +0.000 A 
ATOM      7  C   UNL     1       4.568   5.507  16.582  0.00  0.00    +0.000 A 
ATOM      8  C   UNL     1       3.792   6.077  17.602  0.00  0.00    +0.000 A 
ATOM      9  C   UNL     1       3.408   7.418  17.495  0.00  0.00    +0.000 A 
ATOM     10  C   UNL     1       2.603   7.941  18.486  0.00  0.00    +0.000 A 
ATOM     11  N   UNL     1       2.107   9.193  18.518  0.00  0.00    +0.000 NA
ATOM     12  C   UNL     1       1.350   9.238  19.637  0.00  0.00    +0.000 A 
ATOM     13  C   UNL     1       0.593  10.343  20.088  0.00  0.00    +0.000 A 
ATOM     14  C   UNL     1      -0.169  10.154  21.280  0.00  0.00    +0.000 A 
ATOM     15 CL   UNL     1      -1.194  11.397  21.994  0.00  0.00    +0.000 Cl
ATOM     16  C   UNL     1      -0.135   8.918  21.955  0.00  0.00    +0.000 A 
ATOM     17  C   UNL     1       0.637   7.850  21.486  0.00  0.00    +0.000 A 
ATOM     18  C   UNL     1       1.378   8.028  20.314  0.00  0.00    +0.000 A 
ATOM     19  C   UNL     1       2.205   7.189  19.565  0.00  0.00    +0.000 A 
ENDROOT
BRANCH  13  20
ATOM     20  N   UNL     1       0.595  11.582  19.358  0.00  0.00    +0.000 N 
ATOM     21  O   UNL     1       1.442  12.400  19.554  0.00  0.00    +0.000 OA
ATOM     22  O   UNL     1      -0.342  11.859  18.476  0.00  0.00    +0.000 OA
ENDBRANCH  13  20
TORSDOF 1
ENDMDL
MODEL 4
REMARK VINA RESULT:      -7.2      1.657      2.597
REMARK  Name = 
REMARK  2 active torsions:
REMARK  status: ('A' for Active; 'I' for Inactive)
REMARK    1  A    between atoms: C_1  and  N_2
REMARK    2  A    between atoms: C_13  and  N_14
REMARK                            x       y       z     vdW  Elec       q    Type
REMARK                         _______ _______ _______ _____ _____    ______ ____
ROOT
ATOM      1  C   UNL     1       1.450  11.140  18.784  0.00  0.00    +0.000 C 
ATOM      2  N   UNL     1       0.972  10.349  19.933  0.00  0.00    +0.000 N 
ATOM      3  C   UNL     1       0.169  10.875  20.948  0.00  0.00    +0.000 A 
ATOM      4  C   UNL     1      -0.330  12.206  20.934  0.00  0.00    +0.000 A 
ATOM      5  C   UNL     1      -1.155  12.681  21.957  0.00  0.00    +0.000 A 
ATOM      6  C   UNL     1      -1.499  11.864  23.027  0.00  0.00    +0.000 A 
ATOM      7  C   UNL     1      -1.028  10.555  23.084  0.00  0.00    +0.000 A 
ATOM      8  C   UNL     1      -0.211  10.049  22.062  0.00  0.00    +0.000 A 
ATOM      9  C   UNL     1       0.221   8.720  22.133  0.00  0.00    +0.000 A 
ATOM     10  C   UNL     1       0.980   8.231  21.089  0.00  0.00    +0.000 A 
ATOM     11  N   UNL     1       1.440   6.971  20.975  0.00  0.00    +0.000 NA
ATOM     12  C   UNL     1       2.086   6.943  19.788  0.00  0.00    +0.000 A 
ATOM     13  C   UNL     1       2.715   5.819  19.207  0.00  0.00    +0.000 A 
ATOM     14  C   UNL     1       3.304   6.010  17.920  0.00  0.00    +0.000 A 
ATOM     15 CL   UNL     1       4.115   4.732  17.016  0.00  0.00    +0.000 Cl
ATOM     16  C   UNL     1       3.252   7.271  17.295  0.00  0.00    +0.000 A 
ATOM     17  C   UNL     1       2.631   8.364  17.907  0.00  0.00    +0.000 A 
ATOM     18  C   UNL     1       2.046   8.181  19.163  0.00  0.00    +0.000 A 
ATOM     19  C   UNL     1       1.333   9.020  20.022  0.00  0.00    +0.000 A 
ENDROOT
BRANCH  13  20
ATOM     20  N   UNL     1       2.738   4.554  19.890  0.00  0.00    +0.000 N 
ATOM     21  O   UNL     1       3.762   4.114  20.317  0.00  0.00    +0.000 OA
ATOM     22  O   UNL     1       1.643   3.840  20.043  0.00  0.00    +0.000 OA
ENDBRANCH  13  20
TORSDOF 1
ENDMDL
MODEL 5
REMARK VINA RESULT:      -6.9      2.347      3.190
REMARK  Name = 
REMARK  2 active torsions:
REMARK  status: ('A' for Active; 'I' for Inactive)
REMARK    1  A    between atoms: C_1  and  N_2
REMARK    2  A    between atoms: C_13  and  N_14
REMARK                            x       y       z     vdW  Elec       q    Type
REMARK                         _______ _______ _______ _____ _____    ______ ____
ROOT
ATOM      1  C   UNL     1       0.322   8.210  21.589  0.00  0.00    +0.000 C 
ATOM      2  N   UNL     1       0.966   8.755  20.379  0.00  0.00    +0.000 N 
ATOM      3  C   UNL     1       0.813  10.078  19.956  0.00  0.00    +0.000 A 
ATOM      4  C   UNL     1       0.081  11.050  20.691  0.00  0.00    +0.000 A 
ATOM      5  C   UNL     1      -0.023  12.369  20.243  0.00  0.00    +0.000 A 
ATOM      6  C   UNL     1       0.580  12.763  19.054  0.00  0.00    +0.000 A 
ATOM      7  C   UNL     1       1.302  11.842  18.300  0.00  0.00    +0.000 A 
ATOM      8  C   UNL     1       1.433  10.516  18.735  0.00  0.00    +0.000 A 
ATOM      9  C   UNL     1       2.191   9.622  17.970  0.00  0.00    +0.000 A 
ATOM     10  C   UNL     1       2.348   8.336  18.446  0.00  0.00    +0.000 A 
ATOM     11  N   UNL     1       3.077   7.365  17.864  0.00  0.00    +0.000 NA
ATOM     12  C   UNL     1       2.975   6.306  18.698  0.00  0.00    +0.000 A 
ATOM     13  C   UNL     1       3.600   5.050  18.530  0.00  0.00    +0.000 A 
ATOM     14  C   UNL     1       3.386   4.086  19.561  0.00  0.00    +0.000 A 
ATOM     15 CL   UNL     1       4.092   2.471  19.554  0.00  0.00    +0.000 Cl
ATOM     16  C   UNL     1       2.577   4.401  20.671  0.00  0.00    +0.000 A 
ATOM     17  C   UNL     1       1.964   5.652  20.795  0.00  0.00    +0.000 A 
ATOM     18  C   UNL     1       2.177   6.602  19.793  0.00  0.00    +0.000 A 
ATOM     19  C   UNL     1       1.762   7.923  19.618  0.00  0.00    +0.000 A 
ENDROOT
BRANCH  13  20
ATOM     20  N   UNL     1       4.416   4.782  17.377  0.00  0.00    +0.000 N 
ATOM     21  O   UNL     1       3.996   4.121  16.476  0.00  0.00    +0.000 OA
ATOM     22  O   UNL     1       5.649   5.236  17.291  0.00  0.00    +0.000 OA
ENDBRANCH  13  20
TORSDOF 1
ENDMDL
MODEL 6
REMARK VINA RESULT:      -6.9      4.009      6.924
REMARK  Name = 
REMARK  2 active torsions:
REMARK  status: ('A' for Active; 'I' for Inactive)
REMARK    1  A    between atoms: C_1  and  N_2
REMARK    2  A    between atoms: C_13  and  N_14
REMARK                            x       y       z     vdW  Elec       q    Type
REMARK                         _______ _______ _______ _____ _____    ______ ____
ROOT
ATOM      1  C   UNL     1       3.244   4.813  19.994  0.00  0.00    +0.000 C 
ATOM      2  N   UNL     1       3.479   5.685  18.828  0.00  0.00    +0.000 N 
ATOM      3  C   UNL     1       4.254   5.307  17.729  0.00  0.00    +0.000 A 
ATOM      4  C   UNL     1       4.830   4.015  17.591  0.00  0.00    +0.000 A 
ATOM      5  C   UNL     1       5.576   3.671  16.461  0.00  0.00    +0.000 A 
ATOM      6  C   UNL     1       5.784   4.593  15.441  0.00  0.00    +0.000 A 
ATOM      7  C   UNL     1       5.242   5.871  15.537  0.00  0.00    +0.000 A 
ATOM      8  C   UNL     1       4.478   6.237  16.655  0.00  0.00    +0.000 A 
ATOM      9  C   UNL     1       3.921   7.519  16.708  0.00  0.00    +0.000 A 
ATOM     10  C   UNL     1       3.130   7.837  17.793  0.00  0.00    +0.000 A 
ATOM     11  N   UNL     1       2.484   9.003  17.981  0.00  0.00    +0.000 NA
ATOM     12  C   UNL     1       1.811   8.844  19.143  0.00  0.00    +0.000 A 
ATOM     13  C   UNL     1       0.956   9.793  19.748  0.00  0.00    +0.000 A 
ATOM     14  C   UNL     1       0.314   9.395  20.959  0.00  0.00    +0.000 A 
ATOM     15 CL   UNL     1      -0.805  10.419  21.856  0.00  0.00    +0.000 Cl
ATOM     16  C   UNL     1       0.552   8.117  21.503  0.00  0.00    +0.000 A 
ATOM     17  C   UNL     1       1.417   7.209  20.882  0.00  0.00    +0.000 A 
ATOM     18  C   UNL     1       2.041   7.591  19.692  0.00  0.00    +0.000 A 
ATOM     19  C   UNL     1       2.911   6.943  18.813  0.00  0.00    +0.000 A 
ENDROOT
BRANCH  13  20
ATOM     20  N   UNL     1       0.749  11.084  19.149  0.00  0.00    +0.000 N 
ATOM     21  O   UNL     1       1.532  11.967  19.324  0.00  0.00    +0.000 OA
ATOM     22  O   UNL     1      -0.315  11.334  18.414  0.00  0.00    +0.000 OA
ENDBRANCH  13  20
TORSDOF 1
ENDMDL
MODEL 7
REMARK VINA RESULT:      -6.9      3.793      6.451
REMARK  Name = 
REMARK  2 active torsions:
REMARK  status: ('A' for Active; 'I' for Inactive)
REMARK    1  A    between atoms: C_1  and  N_2
REMARK    2  A    between atoms: C_13  and  N_14
REMARK                            x       y       z     vdW  Elec       q    Type
REMARK                         _______ _______ _______ _____ _____    ______ ____
ROOT
ATOM      1  C   UNL     1       3.715   6.009  17.370  0.00  0.00    +0.000 C 
ATOM      2  N   UNL     1       3.120   5.744  18.694  0.00  0.00    +0.000 N 
ATOM      3  C   UNL     1       3.253   4.527  19.367  0.00  0.00    +0.000 A 
ATOM      4  C   UNL     1       4.038   3.449  18.877  0.00  0.00    +0.000 A 
ATOM      5  C   UNL     1       4.164   2.258  19.598  0.00  0.00    +0.000 A 
ATOM      6  C   UNL     1       3.512   2.094  20.814  0.00  0.00    +0.000 A 
ATOM      7  C   UNL     1       2.728   3.122  21.328  0.00  0.00    +0.000 A 
ATOM      8  C   UNL     1       2.596   4.332  20.631  0.00  0.00    +0.000 A 
ATOM      9  C   UNL     1       1.826   5.358  21.190  0.00  0.00    +0.000 A 
ATOM     10  C   UNL     1       1.755   6.557  20.510  0.00  0.00    +0.000 A 
ATOM     11  N   UNL     1       1.099   7.658  20.923  0.00  0.00    +0.000 NA
ATOM     12  C   UNL     1       1.341   8.584  19.969  0.00  0.00    +0.000 A 
ATOM     13  C   UNL     1       0.886   9.923  19.972  0.00  0.00    +0.000 A 
ATOM     14  C   UNL     1       1.298  10.741  18.877  0.00  0.00    +0.000 A 
ATOM     15 CL   UNL     1       0.860  12.439  18.706  0.00  0.00    +0.000 Cl
ATOM     16  C   UNL     1       2.107  10.206  17.856  0.00  0.00    +0.000 A 
ATOM     17  C   UNL     1       2.527   8.871  17.880  0.00  0.00    +0.000 A 
ATOM     18  C   UNL     1       2.133   8.069  18.954  0.00  0.00    +0.000 A 
ATOM     19  C   UNL     1       2.391   6.743  19.306  0.00  0.00    +0.000 A 
ENDROOT
BRANCH  13  20
ATOM     20  N   UNL     1       0.062  10.417  21.042  0.00  0.00    +0.000 N 
ATOM     21  O   UNL     1      -1.097  10.639  20.862  0.00  0.00    +0.000 OA
ATOM     22  O   UNL     1       0.563  10.658  22.235  0.00  0.00    +0.000 OA
ENDBRANCH  13  20
TORSDOF 1
ENDMDL
MODEL 8
REMARK VINA RESULT:      -6.8      1.019      1.203
REMARK  Name = 
REMARK  2 active torsions:
REMARK  status: ('A' for Active; 'I' for Inactive)
REMARK    1  A    between atoms: C_1  and  N_2
REMARK    2  A    between atoms: C_13  and  N_14
REMARK                            x       y       z     vdW  Elec       q    Type
REMARK                         _______ _______ _______ _____ _____    ______ ____
ROOT
ATOM      1  C   UNL     1       2.298   9.789  18.153  0.00  0.00    +0.000 C 
ATOM      2  N   UNL     1       1.645   9.253  19.362  0.00  0.00    +0.000 N 
ATOM      3  C   UNL     1       0.868  10.030  20.225  0.00  0.00    +0.000 A 
ATOM      4  C   UNL     1       0.566  11.397  19.981  0.00  0.00    +0.000 A 
ATOM      5  C   UNL     1      -0.239  12.129  20.858  0.00  0.00    +0.000 A 
ATOM      6  C   UNL     1      -0.759  11.537  22.003  0.00  0.00    +0.000 A 
ATOM      7  C   UNL     1      -0.485  10.201  22.284  0.00  0.00    +0.000 A 
ATOM      8  C   UNL     1       0.309   9.441  21.412  0.00  0.00    +0.000 A 
ATOM      9  C   UNL     1       0.541   8.093  21.706  0.00  0.00    +0.000 A 
ATOM     10  C   UNL     1       1.282   7.354  20.806  0.00  0.00    +0.000 A 
ATOM     11  N   UNL     1       1.562   6.041  20.909  0.00  0.00    +0.000 NA
ATOM     12  C   UNL     1       2.266   5.747  19.793  0.00  0.00    +0.000 A 
ATOM     13  C   UNL     1       2.760   4.474  19.430  0.00  0.00    +0.000 A 
ATOM     14  C   UNL     1       3.444   4.386  18.180  0.00  0.00    +0.000 A 
ATOM     15 CL   UNL     1       4.115   2.889  17.535  0.00  0.00    +0.000 Cl
ATOM     16  C   UNL     1       3.610   5.532  17.379  0.00  0.00    +0.000 A 
ATOM     17  C   UNL     1       3.118   6.779  17.778  0.00  0.00    +0.000 A 
ATOM     18  C   UNL     1       2.440   6.869  18.997  0.00  0.00    +0.000 A 
ATOM     19  C   UNL     1       1.806   7.917  19.668  0.00  0.00    +0.000 A 
ENDROOT
BRANCH  13  20
ATOM     20  N   UNL     1       2.561   3.336  20.286  0.00  0.00    +0.000 N 
ATOM     21  O   UNL     1       1.479   2.847  20.403  0.00  0.00    +0.000 OA
ATOM     22  O   UNL     1       3.555   2.819  20.978  0.00  0.00    +0.000 OA
ENDBRANCH  13  20
TORSDOF 1
ENDMDL
MODEL 9
REMARK VINA RESULT:      -6.8      3.846      6.767
REMARK  Name = 
REMARK  2 active torsions:
REMARK  status: ('A' for Active; 'I' for Inactive)
REMARK    1  A    between atoms: C_1  and  N_2
REMARK    2  A    between atoms: C_13  and  N_14
REMARK                            x       y       z     vdW  Elec       q    Type
REMARK                         _______ _______ _______ _____ _____    ______ ____
ROOT
ATOM      1  C   UNL     1       3.889   4.035  19.305  0.00  0.00    +0.000 C 
ATOM      2  N   UNL     1       4.025   5.081  18.273  0.00  0.00    +0.000 N 
ATOM      3  C   UNL     1       4.784   4.921  17.111  0.00  0.00    +0.000 A 
ATOM      4  C   UNL     1       5.440   3.707  16.771  0.00  0.00    +0.000 A 
ATOM      5  C   UNL     1       6.167   3.584  15.584  0.00  0.00    +0.000 A 
ATOM      6  C   UNL     1       6.276   4.657  14.706  0.00  0.00    +0.000 A 
ATOM      7  C   UNL     1       5.655   5.866  15.003  0.00  0.00    +0.000 A 
ATOM      8  C   UNL     1       4.908   6.011  16.181  0.00  0.00    +0.000 A 
ATOM      9  C   UNL     1       4.269   7.229  16.435  0.00  0.00    +0.000 A 
ATOM     10  C   UNL     1       3.498   7.329  17.575  0.00  0.00    +0.000 A 
ATOM     11  N   UNL     1       2.783   8.408  17.948  0.00  0.00    +0.000 NA
ATOM     12  C   UNL     1       2.163   8.035  19.091  0.00  0.00    +0.000 A 
ATOM     13  C   UNL     1       1.269   8.823  19.850  0.00  0.00    +0.000 A 
ATOM     14  C   UNL     1       0.697   8.209  21.005  0.00  0.00    +0.000 A 
ATOM     15 CL   UNL     1      -0.455   9.011  22.070  0.00  0.00    +0.000 Cl
ATOM     16  C   UNL     1       1.039   6.886  21.349  0.00  0.00    +0.000 A 
ATOM     17  C   UNL     1       1.939   6.142  20.580  0.00  0.00    +0.000 A 
ATOM     18  C   UNL     1       2.495   6.735  19.443  0.00  0.00    +0.000 A 
ATOM     19  C   UNL     1       3.374   6.284  18.457  0.00  0.00    +0.000 A 
ENDROOT
BRANCH  13  20
ATOM     20  N   UNL     1       0.955  10.169  19.452  0.00  0.00    +0.000 N 
ATOM     21  O   UNL     1       1.421  11.099  20.037  0.00  0.00    +0.000 OA
ATOM     22  O   UNL     1       0.133  10.413  18.453  0.00  0.00    +0.000 OA
ENDBRANCH  13  20
TORSDOF 1
ENDMDL
