MODEL 1
REMARK VINA RESULT:      -8.0      0.000      0.000
REMARK  Name = 
REMARK  7 active torsions:
REMARK  status: ('A' for Active; 'I' for Inactive)
REMARK    1  A    between atoms: C_1  and  O_2
REMARK    2  A    between atoms: O_2  and  C_3
REMARK    3  A    between atoms: C_6  and  C_7
REMARK    4  A    between atoms: C_9  and  C_10
REMARK    5  A    between atoms: N_12  and  C_13
REMARK    6  A    between atoms: C_17  and  C_18
REMARK    7  A    between atoms: C_18  and  C_19
REMARK                            x       y       z     vdW  Elec       q    Type
REMARK                         _______ _______ _______ _____ _____    ______ ____
ROOT
ATOM      1  C   UNL     1       2.841   6.728  18.993  0.00  0.00    +0.000 A 
ATOM      2  C   UNL     1       3.316   6.465  17.733  0.00  0.00    +0.000 A 
ATOM      3  C   UNL     1       4.048   5.256  17.859  0.00  0.00    +0.000 A 
ATOM      4  N   UNL     1       4.041   4.821  19.129  0.00  0.00    +0.000 NA
ATOM      5  O   UNL     1       3.293   5.750  19.834  0.00  0.00    +0.000 OA
ENDROOT
BRANCH   1   9
ATOM      6  C   UNL     1       0.415   9.789  20.745  0.00  0.00    +0.000 A 
ATOM      7  C   UNL     1       0.737   8.643  21.471  0.00  0.00    +0.000 A 
ATOM      8  C   UNL     1       1.517   7.634  20.897  0.00  0.00    +0.000 A 
ATOM      9  C   UNL     1       1.978   7.748  19.575  0.00  0.00    +0.000 A 
ATOM     10  C   UNL     1       1.608   8.884  18.844  0.00  0.00    +0.000 A 
ATOM     11  C   UNL     1       0.834   9.896  19.421  0.00  0.00    +0.000 A 
BRANCH   6  13
ATOM     12  C   UNL     1      -0.643  10.398  22.762  0.00  0.00    +0.000 C 
ATOM     13  O   UNL     1      -0.332  10.721  21.410  0.00  0.00    +0.000 OA
ENDBRANCH   6  13
ENDBRANCH   1   9
BRANCH   3  14
ATOM     14  C   UNL     1       4.723   4.538  16.777  0.00  0.00    +0.000 C 
ATOM     15  O   UNL     1       4.818   3.315  16.821  0.00  0.00    +0.000 OA
ATOM     16  N   UNL     1       5.247   5.359  15.790  0.00  0.00    +0.000 N 
ATOM     17  H   UNL     1       5.201   6.356  15.979  0.00  0.00    +0.000 HD
BRANCH  16  18
ATOM     18  C   UNL     1       5.926   4.932  14.629  0.00  0.00    +0.000 A 
ATOM     19  C   UNL     1       7.216   5.363  14.312  0.00  0.00    +0.000 A 
ATOM     20  C   UNL     1       7.842   4.942  13.143  0.00  0.00    +0.000 A 
ATOM     21  C   UNL     1       7.185   4.086  12.265  0.00  0.00    +0.000 A 
ATOM     22  C   UNL     1       5.897   3.630  12.561  0.00  0.00    +0.000 A 
ATOM     23  C   UNL     1       5.281   4.043  13.759  0.00  0.00    +0.000 A 
BRANCH  22  24
ATOM     24  C   UNL     1       5.126   2.735  11.640  0.00  0.00    +0.000 C 
ATOM     25  C   UNL     1       3.809   3.170  11.042  0.00  0.00    +0.000 C 
ATOM     26  O   UNL     1       5.572   1.615  11.384  0.00  0.00    +0.000 OA
ENDBRANCH  22  24
ENDBRANCH  16  18
ENDBRANCH   3  14
TORSDOF 5
ENDMDL
MODEL 2
REMARK VINA RESULT:      -7.9      2.314      3.513
REMARK  Name = 
REMARK  7 active torsions:
REMARK  status: ('A' for Active; 'I' for Inactive)
REMARK    1  A    between atoms: C_1  and  O_2
REMARK    2  A    between atoms: O_2  and  C_3
REMARK    3  A    between atoms: C_6  and  C_7
REMARK    4  A    between atoms: C_9  and  C_10
REMARK    5  A    between atoms: N_12  and  C_13
REMARK    6  A    between atoms: C_17  and  C_18
REMARK    7  A    between atoms: C_18  and  C_19
REMARK                            x       y       z     vdW  Elec       q    Type
REMARK                         _______ _______ _______ _____ _____    ______ ____
ROOT
ATOM      1  C   UNL     1       1.073   9.232  19.610  0.00  0.00    +0.000 A 
ATOM      2  C   UNL     1       1.712   8.020  19.686  0.00  0.00    +0.000 A 
ATOM      3  C   UNL     1       2.340   7.853  18.425  0.00  0.00    +0.000 A 
ATOM      4  N   UNL     1       2.077   8.893  17.617  0.00  0.00    +0.000 NA
ATOM      5  O   UNL     1       1.278   9.747  18.361  0.00  0.00    +0.000 OA
ENDROOT
BRANCH   1   9
ATOM      6  C   UNL     1      -1.074  11.697  22.373  0.00  0.00    +0.000 A 
ATOM      7  C   UNL     1      -0.563  10.465  22.778  0.00  0.00    +0.000 A 
ATOM      8  C   UNL     1       0.127   9.650  21.874  0.00  0.00    +0.000 A 
ATOM      9  C   UNL     1       0.303  10.049  20.539  0.00  0.00    +0.000 A 
ATOM     10  C   UNL     1      -0.256  11.269  20.136  0.00  0.00    +0.000 A 
ATOM     11  C   UNL     1      -0.939  12.086  21.043  0.00  0.00    +0.000 A 
BRANCH   6  13
ATOM     12  C   UNL     1      -3.107  12.614  23.140  0.00  0.00    +0.000 C 
ATOM     13  O   UNL     1      -1.710  12.422  23.343  0.00  0.00    +0.000 OA
ENDBRANCH   6  13
ENDBRANCH   1   9
BRANCH   3  14
ATOM     14  C   UNL     1       3.180   6.726  18.020  0.00  0.00    +0.000 C 
ATOM     15  O   UNL     1       2.690   5.605  17.916  0.00  0.00    +0.000 OA
ATOM     16  N   UNL     1       4.515   7.050  17.831  0.00  0.00    +0.000 N 
ATOM     17  H   UNL     1       4.778   7.995  18.095  0.00  0.00    +0.000 HD
BRANCH  16  18
ATOM     18  C   UNL     1       5.535   6.164  17.422  0.00  0.00    +0.000 A 
ATOM     19  C   UNL     1       6.420   5.572  18.323  0.00  0.00    +0.000 A 
ATOM     20  C   UNL     1       7.432   4.725  17.879  0.00  0.00    +0.000 A 
ATOM     21  C   UNL     1       7.579   4.462  16.521  0.00  0.00    +0.000 A 
ATOM     22  C   UNL     1       6.700   5.032  15.596  0.00  0.00    +0.000 A 
ATOM     23  C   UNL     1       5.664   5.868  16.058  0.00  0.00    +0.000 A 
BRANCH  22  24
ATOM     24  C   UNL     1       6.827   4.814  14.119  0.00  0.00    +0.000 C 
ATOM     25  C   UNL     1       5.976   3.794  13.400  0.00  0.00    +0.000 C 
ATOM     26  O   UNL     1       7.658   5.470  13.488  0.00  0.00    +0.000 OA
ENDBRANCH  22  24
ENDBRANCH  16  18
ENDBRANCH   3  14
TORSDOF 5
ENDMDL
MODEL 3
REMARK VINA RESULT:      -7.8      6.176      8.032
REMARK  Name = 
REMARK  7 active torsions:
REMARK  status: ('A' for Active; 'I' for Inactive)
REMARK    1  A    between atoms: C_1  and  O_2
REMARK    2  A    between atoms: O_2  and  C_3
REMARK    3  A    between atoms: C_6  and  C_7
REMARK    4  A    between atoms: C_9  and  C_10
REMARK    5  A    between atoms: N_12  and  C_13
REMARK    6  A    between atoms: C_17  and  C_18
REMARK    7  A    between atoms: C_18  and  C_19
REMARK                            x       y       z     vdW  Elec       q    Type
REMARK                         _______ _______ _______ _____ _____    ______ ____
ROOT
ATOM      1  C   UNL     1       8.708   9.298  18.466  0.00  0.00    +0.000 A 
ATOM      2  C   UNL     1       8.507   8.020  18.924  0.00  0.00    +0.000 A 
ATOM      3  C   UNL     1       7.578   7.445  18.019  0.00  0.00    +0.000 A 
ATOM      4  N   UNL     1       7.215   8.331  17.078  0.00  0.00    +0.000 NA
ATOM      5  O   UNL     1       7.918   9.489  17.368  0.00  0.00    +0.000 OA
ENDROOT
BRANCH   1   9
ATOM      6  C   UNL     1      11.119  12.643  19.617  0.00  0.00    +0.000 A 
ATOM      7  C   UNL     1      11.010  12.281  18.275  0.00  0.00    +0.000 A 
ATOM      8  C   UNL     1      10.236  11.180  17.896  0.00  0.00    +0.000 A 
ATOM      9  C   UNL     1       9.566  10.409  18.860  0.00  0.00    +0.000 A 
ATOM     10  C   UNL     1       9.722  10.757  20.208  0.00  0.00    +0.000 A 
ATOM     11  C   UNL     1      10.491  11.863  20.585  0.00  0.00    +0.000 A 
BRANCH   6  13
ATOM     12  C   UNL     1      11.541  14.909  19.121  0.00  0.00    +0.000 C 
ATOM     13  O   UNL     1      11.883  13.748  19.872  0.00  0.00    +0.000 OA
ENDBRANCH   6  13
ENDBRANCH   1   9
BRANCH   3  14
ATOM     14  C   UNL     1       7.068   6.075  18.059  0.00  0.00    +0.000 C 
ATOM     15  O   UNL     1       7.853   5.131  18.078  0.00  0.00    +0.000 OA
ATOM     16  N   UNL     1       5.685   5.980  18.024  0.00  0.00    +0.000 N 
ATOM     17  H   UNL     1       5.190   6.854  17.868  0.00  0.00    +0.000 HD
BRANCH  16  18
ATOM     18  C   UNL     1       4.932   4.787  18.070  0.00  0.00    +0.000 A 
ATOM     19  C   UNL     1       4.396   4.193  16.927  0.00  0.00    +0.000 A 
ATOM     20  C   UNL     1       3.635   3.031  17.016  0.00  0.00    +0.000 A 
ATOM     21  C   UNL     1       3.391   2.446  18.255  0.00  0.00    +0.000 A 
ATOM     22  C   UNL     1       3.925   3.014  19.416  0.00  0.00    +0.000 A 
ATOM     23  C   UNL     1       4.714   4.176  19.312  0.00  0.00    +0.000 A 
BRANCH  22  24
ATOM     24  C   UNL     1       3.670   2.450  20.781  0.00  0.00    +0.000 C 
ATOM     25  C   UNL     1       2.367   2.700  21.503  0.00  0.00    +0.000 C 
ATOM     26  O   UNL     1       4.552   1.785  21.326  0.00  0.00    +0.000 OA
ENDBRANCH  22  24
ENDBRANCH  16  18
ENDBRANCH   3  14
TORSDOF 5
ENDMDL
MODEL 4
REMARK VINA RESULT:      -7.7      0.975      1.516
REMARK  Name = 
REMARK  7 active torsions:
REMARK  status: ('A' for Active; 'I' for Inactive)
REMARK    1  A    between atoms: C_1  and  O_2
REMARK    2  A    between atoms: O_2  and  C_3
REMARK    3  A    between atoms: C_6  and  C_7
REMARK    4  A    between atoms: C_9  and  C_10
REMARK    5  A    between atoms: N_12  and  C_13
REMARK    6  A    between atoms: C_17  and  C_18
REMARK    7  A    between atoms: C_18  and  C_19
REMARK                            x       y       z     vdW  Elec       q    Type
REMARK                         _______ _______ _______ _____ _____    ______ ____
ROOT
ATOM      1  C   UNL     1       3.251   6.859  18.715  0.00  0.00    +0.000 A 
ATOM      2  C   UNL     1       3.956   6.685  17.550  0.00  0.00    +0.000 A 
ATOM      3  C   UNL     1       4.654   5.462  17.721  0.00  0.00    +0.000 A 
ATOM      4  N   UNL     1       4.409   4.934  18.931  0.00  0.00    +0.000 NA
ATOM      5  O   UNL     1       3.538   5.816  19.550  0.00  0.00    +0.000 OA
ENDROOT
BRANCH   1   9
ATOM      6  C   UNL     1       0.329   9.668  20.094  0.00  0.00    +0.000 A 
ATOM      7  C   UNL     1       0.867   9.782  18.813  0.00  0.00    +0.000 A 
ATOM      8  C   UNL     1       1.833   8.875  18.364  0.00  0.00    +0.000 A 
ATOM      9  C   UNL     1       2.290   7.843  19.199  0.00  0.00    +0.000 A 
ATOM     10  C   UNL     1       1.773   7.768  20.499  0.00  0.00    +0.000 A 
ATOM     11  C   UNL     1       0.802   8.671  20.944  0.00  0.00    +0.000 A 
BRANCH   6  13
ATOM     12  C   UNL     1      -1.172  11.313  19.322  0.00  0.00    +0.000 C 
ATOM     13  O   UNL     1      -0.623  10.592  20.421  0.00  0.00    +0.000 OA
ENDBRANCH   6  13
ENDBRANCH   1   9
BRANCH   3  14
ATOM     14  C   UNL     1       5.523   4.819  16.735  0.00  0.00    +0.000 C 
ATOM     15  O   UNL     1       6.336   3.973  17.095  0.00  0.00    +0.000 OA
ATOM     16  N   UNL     1       5.359   5.289  15.440  0.00  0.00    +0.000 N 
ATOM     17  H   UNL     1       4.742   6.090  15.339  0.00  0.00    +0.000 HD
BRANCH  16  18
ATOM     18  C   UNL     1       6.050   4.832  14.297  0.00  0.00    +0.000 A 
ATOM     19  C   UNL     1       7.298   5.335  13.924  0.00  0.00    +0.000 A 
ATOM     20  C   UNL     1       7.936   4.880  12.774  0.00  0.00    +0.000 A 
ATOM     21  C   UNL     1       7.332   3.917  11.971  0.00  0.00    +0.000 A 
ATOM     22  C   UNL     1       6.087   3.387  12.327  0.00  0.00    +0.000 A 
ATOM     23  C   UNL     1       5.461   3.837  13.506  0.00  0.00    +0.000 A 
BRANCH  22  24
ATOM     24  C   UNL     1       5.372   2.373  11.487  0.00  0.00    +0.000 C 
ATOM     25  C   UNL     1       6.038   1.080  11.079  0.00  0.00    +0.000 C 
ATOM     26  O   UNL     1       4.223   2.614  11.111  0.00  0.00    +0.000 OA
ENDBRANCH  22  24
ENDBRANCH  16  18
ENDBRANCH   3  14
TORSDOF 5
ENDMDL
MODEL 5
REMARK VINA RESULT:      -7.7      0.454      1.062
REMARK  Name = 
REMARK  7 active torsions:
REMARK  status: ('A' for Active; 'I' for Inactive)
REMARK    1  A    between atoms: C_1  and  O_2
REMARK    2  A    between atoms: O_2  and  C_3
REMARK    3  A    between atoms: C_6  and  C_7
REMARK    4  A    between atoms: C_9  and  C_10
REMARK    5  A    between atoms: N_12  and  C_13
REMARK    6  A    between atoms: C_17  and  C_18
REMARK    7  A    between atoms: C_18  and  C_19
REMARK                            x       y       z     vdW  Elec       q    Type
REMARK                         _______ _______ _______ _____ _____    ______ ____
ROOT
ATOM      1  C   UNL     1       2.614   6.857  19.101  0.00  0.00    +0.000 A 
ATOM      2  C   UNL     1       3.517   6.722  18.076  0.00  0.00    +0.000 A 
ATOM      3  C   UNL     1       3.841   5.342  18.049  0.00  0.00    +0.000 A 
ATOM      4  N   UNL     1       3.192   4.677  19.019  0.00  0.00    +0.000 NA
ATOM      5  O   UNL     1       2.434   5.631  19.678  0.00  0.00    +0.000 OA
ENDROOT
BRANCH   1   9
ATOM      6  C   UNL     1       0.194  10.028  20.655  0.00  0.00    +0.000 A 
ATOM      7  C   UNL     1       0.638  10.062  19.334  0.00  0.00    +0.000 A 
ATOM      8  C   UNL     1       1.441   9.036  18.826  0.00  0.00    +0.000 A 
ATOM      9  C   UNL     1       1.829   7.960  19.642  0.00  0.00    +0.000 A 
ATOM     10  C   UNL     1       1.413   7.962  20.979  0.00  0.00    +0.000 A 
ATOM     11  C   UNL     1       0.603   8.986  21.483  0.00  0.00    +0.000 A 
BRANCH   6  13
ATOM     12  C   UNL     1      -0.926  11.107  22.427  0.00  0.00    +0.000 C 
ATOM     13  O   UNL     1      -0.604  11.070  21.040  0.00  0.00    +0.000 OA
ENDBRANCH   6  13
ENDBRANCH   1   9
BRANCH   3  14
ATOM     14  C   UNL     1       4.743   4.685  17.103  0.00  0.00    +0.000 C 
ATOM     15  O   UNL     1       5.335   3.661  17.432  0.00  0.00    +0.000 OA
ATOM     16  N   UNL     1       4.874   5.344  15.890  0.00  0.00    +0.000 N 
ATOM     17  H   UNL     1       4.421   6.252  15.834  0.00  0.00    +0.000 HD
BRANCH  16  18
ATOM     18  C   UNL     1       5.659   4.923  14.795  0.00  0.00    +0.000 A 
ATOM     19  C   UNL     1       6.980   5.335  14.617  0.00  0.00    +0.000 A 
ATOM     20  C   UNL     1       7.714   4.921  13.509  0.00  0.00    +0.000 A 
ATOM     21  C   UNL     1       7.135   4.090  12.555  0.00  0.00    +0.000 A 
ATOM     22  C   UNL     1       5.816   3.652  12.714  0.00  0.00    +0.000 A 
ATOM     23  C   UNL     1       5.091   4.058  13.851  0.00  0.00    +0.000 A 
BRANCH  22  24
ATOM     24  C   UNL     1       5.127   2.784  11.706  0.00  0.00    +0.000 C 
ATOM     25  C   UNL     1       3.812   3.193  11.085  0.00  0.00    +0.000 C 
ATOM     26  O   UNL     1       5.641   1.708  11.395  0.00  0.00    +0.000 OA
ENDBRANCH  22  24
ENDBRANCH  16  18
ENDBRANCH   3  14
TORSDOF 5
ENDMDL
MODEL 6
REMARK VINA RESULT:      -7.7      2.463      3.882
REMARK  Name = 
REMARK  7 active torsions:
REMARK  status: ('A' for Active; 'I' for Inactive)
REMARK    1  A    between atoms: C_1  and  O_2
REMARK    2  A    between atoms: O_2  and  C_3
REMARK    3  A    between atoms: C_6  and  C_7
REMARK    4  A    between atoms: C_9  and  C_10
REMARK    5  A    between atoms: N_12  and  C_13
REMARK    6  A    between atoms: C_17  and  C_18
REMARK    7  A    between atoms: C_18  and  C_19
REMARK                            x       y       z     vdW  Elec       q    Type
REMARK                         _______ _______ _______ _____ _____    ______ ____
ROOT
ATOM      1  C   UNL     1       0.873   9.587  19.285  0.00  0.00    +0.000 A 
ATOM      2  C   UNL     1       1.484   8.388  19.555  0.00  0.00    +0.000 A 
ATOM      3  C   UNL     1       2.248   8.094  18.397  0.00  0.00    +0.000 A 
ATOM      4  N   UNL     1       2.092   9.047  17.464  0.00  0.00    +0.000 NA
ATOM      5  O   UNL     1       1.225   9.973  18.023  0.00  0.00    +0.000 OA
ENDROOT
BRANCH   1   9
ATOM      6  C   UNL     1      -1.749  12.162  21.481  0.00  0.00    +0.000 A 
ATOM      7  C   UNL     1      -1.680  12.245  20.091  0.00  0.00    +0.000 A 
ATOM      8  C   UNL     1      -0.814  11.416  19.370  0.00  0.00    +0.000 A 
ATOM      9  C   UNL     1       0.014  10.495  20.034  0.00  0.00    +0.000 A 
ATOM     10  C   UNL     1      -0.034  10.455  21.434  0.00  0.00    +0.000 A 
ATOM     11  C   UNL     1      -0.906  11.280  22.152  0.00  0.00    +0.000 A 
BRANCH   6  13
ATOM     12  C   UNL     1      -2.905  12.731  23.455  0.00  0.00    +0.000 C 
ATOM     13  O   UNL     1      -2.645  13.002  22.081  0.00  0.00    +0.000 OA
ENDBRANCH   6  13
ENDBRANCH   1   9
BRANCH   3  14
ATOM     14  C   UNL     1       3.114   6.930  18.207  0.00  0.00    +0.000 C 
ATOM     15  O   UNL     1       2.705   5.809  18.497  0.00  0.00    +0.000 OA
ATOM     16  N   UNL     1       4.382   7.234  17.736  0.00  0.00    +0.000 N 
ATOM     17  H   UNL     1       4.602   8.225  17.680  0.00  0.00    +0.000 HD
BRANCH  16  18
ATOM     18  C   UNL     1       5.406   6.307  17.446  0.00  0.00    +0.000 A 
ATOM     19  C   UNL     1       6.182   5.711  18.441  0.00  0.00    +0.000 A 
ATOM     20  C   UNL     1       7.202   4.822  18.115  0.00  0.00    +0.000 A 
ATOM     21  C   UNL     1       7.468   4.519  16.782  0.00  0.00    +0.000 A 
ATOM     22  C   UNL     1       6.700   5.094  15.765  0.00  0.00    +0.000 A 
ATOM     23  C   UNL     1       5.654   5.973  16.108  0.00  0.00    +0.000 A 
BRANCH  22  24
ATOM     24  C   UNL     1       6.959   4.834  14.313  0.00  0.00    +0.000 C 
ATOM     25  C   UNL     1       6.159   3.809  13.543  0.00  0.00    +0.000 C 
ATOM     26  O   UNL     1       7.856   5.460  13.746  0.00  0.00    +0.000 OA
ENDBRANCH  22  24
ENDBRANCH  16  18
ENDBRANCH   3  14
TORSDOF 5
ENDMDL
MODEL 7
REMARK VINA RESULT:      -7.6      4.444     11.716
REMARK  Name = 
REMARK  7 active torsions:
REMARK  status: ('A' for Active; 'I' for Inactive)
REMARK    1  A    between atoms: C_1  and  O_2
REMARK    2  A    between atoms: O_2  and  C_3
REMARK    3  A    between atoms: C_6  and  C_7
REMARK    4  A    between atoms: C_9  and  C_10
REMARK    5  A    between atoms: N_12  and  C_13
REMARK    6  A    between atoms: C_17  and  C_18
REMARK    7  A    between atoms: C_18  and  C_19
REMARK                            x       y       z     vdW  Elec       q    Type
REMARK                         _______ _______ _______ _____ _____    ______ ____
ROOT
ATOM      1  C   UNL     1       1.556   8.047  20.288  0.00  0.00    +0.000 A 
ATOM      2  C   UNL     1       1.074   8.400  21.524  0.00  0.00    +0.000 A 
ATOM      3  C   UNL     1       0.548   9.707  21.356  0.00  0.00    +0.000 A 
ATOM      4  N   UNL     1       0.723  10.136  20.095  0.00  0.00    +0.000 NA
ATOM      5  O   UNL     1       1.360   9.097  19.436  0.00  0.00    +0.000 OA
ENDROOT
BRANCH   1   9
ATOM      6  C   UNL     1       3.208   4.494  18.566  0.00  0.00    +0.000 A 
ATOM      7  C   UNL     1       2.599   4.452  19.819  0.00  0.00    +0.000 A 
ATOM      8  C   UNL     1       2.071   5.613  20.392  0.00  0.00    +0.000 A 
ATOM      9  C   UNL     1       2.158   6.846  19.724  0.00  0.00    +0.000 A 
ATOM     10  C   UNL     1       2.814   6.880  18.486  0.00  0.00    +0.000 A 
ATOM     11  C   UNL     1       3.335   5.716  17.911  0.00  0.00    +0.000 A 
BRANCH   6  13
ATOM     12  C   UNL     1       3.886   2.295  19.079  0.00  0.00    +0.000 C 
ATOM     13  O   UNL     1       3.669   3.297  18.091  0.00  0.00    +0.000 OA
ENDBRANCH   6  13
ENDBRANCH   1   9
BRANCH   3  14
ATOM     14  C   UNL     1      -0.115  10.510  22.383  0.00  0.00    +0.000 C 
ATOM     15  O   UNL     1      -0.073  10.156  23.558  0.00  0.00    +0.000 OA
ATOM     16  N   UNL     1      -0.791  11.617  21.893  0.00  0.00    +0.000 N 
ATOM     17  H   UNL     1      -0.841  11.686  20.880  0.00  0.00    +0.000 HD
BRANCH  16  18
ATOM     18  C   UNL     1      -1.495  12.568  22.661  0.00  0.00    +0.000 A 
ATOM     19  C   UNL     1      -0.895  13.728  23.154  0.00  0.00    +0.000 A 
ATOM     20  C   UNL     1      -1.615  14.629  23.933  0.00  0.00    +0.000 A 
ATOM     21  C   UNL     1      -2.951  14.381  24.238  0.00  0.00    +0.000 A 
ATOM     22  C   UNL     1      -3.581  13.233  23.748  0.00  0.00    +0.000 A 
ATOM     23  C   UNL     1      -2.849  12.340  22.941  0.00  0.00    +0.000 A 
BRANCH  22  24
ATOM     24  C   UNL     1      -5.004  12.894  24.069  0.00  0.00    +0.000 C 
ATOM     25  C   UNL     1      -6.137  13.816  23.684  0.00  0.00    +0.000 C 
ATOM     26  O   UNL     1      -5.247  11.849  24.676  0.00  0.00    +0.000 OA
ENDBRANCH  22  24
ENDBRANCH  16  18
ENDBRANCH   3  14
TORSDOF 5
ENDMDL
MODEL 8
REMARK VINA RESULT:      -7.6      6.000      7.671
REMARK  Name = 
REMARK  7 active torsions:
REMARK  status: ('A' for Active; 'I' for Inactive)
REMARK    1  A    between atoms: C_1  and  O_2
REMARK    2  A    between atoms: O_2  and  C_3
REMARK    3  A    between atoms: C_6  and  C_7
REMARK    4  A    between atoms: C_9  and  C_10
REMARK    5  A    between atoms: N_12  and  C_13
REMARK    6  A    between atoms: C_17  and  C_18
REMARK    7  A    between atoms: C_18  and  C_19
REMARK                            x       y       z     vdW  Elec       q    Type
REMARK                         _______ _______ _______ _____ _____    ______ ____
ROOT
ATOM      1  C   UNL     1       8.484   9.356  18.314  0.00  0.00    +0.000 A 
ATOM      2  C   UNL     1       7.425   8.947  17.543  0.00  0.00    +0.000 A 
ATOM      3  C   UNL     1       7.298   7.557  17.798  0.00  0.00    +0.000 A 
ATOM      4  N   UNL     1       8.242   7.138  18.656  0.00  0.00    +0.000 NA
ATOM      5  O   UNL     1       8.984   8.265  18.968  0.00  0.00    +0.000 OA
ENDROOT
BRANCH   1   9
ATOM      6  C   UNL     1      10.450  13.086  19.050  0.00  0.00    +0.000 A 
ATOM      7  C   UNL     1      10.675  11.994  19.887  0.00  0.00    +0.000 A 
ATOM      8  C   UNL     1      10.024  10.777  19.659  0.00  0.00    +0.000 A 
ATOM      9  C   UNL     1       9.119  10.638  18.593  0.00  0.00    +0.000 A 
ATOM     10  C   UNL     1       8.869  11.757  17.789  0.00  0.00    +0.000 A 
ATOM     11  C   UNL     1       9.527  12.971  18.014  0.00  0.00    +0.000 A 
BRANCH   6  13
ATOM     12  C   UNL     1      11.180  15.208  18.327  0.00  0.00    +0.000 C 
ATOM     13  O   UNL     1      11.156  14.218  19.351  0.00  0.00    +0.000 OA
ENDBRANCH   6  13
ENDBRANCH   1   9
BRANCH   3  14
ATOM     14  C   UNL     1       6.283   6.666  17.235  0.00  0.00    +0.000 C 
ATOM     15  O   UNL     1       6.029   6.708  16.035  0.00  0.00    +0.000 OA
ATOM     16  N   UNL     1       5.653   5.858  18.170  0.00  0.00    +0.000 N 
ATOM     17  H   UNL     1       5.886   6.049  19.141  0.00  0.00    +0.000 HD
BRANCH  16  18
ATOM     18  C   UNL     1       4.656   4.896  17.901  0.00  0.00    +0.000 A 
ATOM     19  C   UNL     1       4.674   4.097  16.757  0.00  0.00    +0.000 A 
ATOM     20  C   UNL     1       3.657   3.179  16.511  0.00  0.00    +0.000 A 
ATOM     21  C   UNL     1       2.599   3.050  17.406  0.00  0.00    +0.000 A 
ATOM     22  C   UNL     1       2.561   3.829  18.566  0.00  0.00    +0.000 A 
ATOM     23  C   UNL     1       3.608   4.738  18.817  0.00  0.00    +0.000 A 
BRANCH  22  24
ATOM     24  C   UNL     1       1.432   3.759  19.549  0.00  0.00    +0.000 C 
ATOM     25  C   UNL     1       1.244   4.822  20.605  0.00  0.00    +0.000 C 
ATOM     26  O   UNL     1       0.657   2.803  19.500  0.00  0.00    +0.000 OA
ENDBRANCH  22  24
ENDBRANCH  16  18
ENDBRANCH   3  14
TORSDOF 5
ENDMDL
MODEL 9
REMARK VINA RESULT:      -7.6      5.895      7.884
REMARK  Name = 
REMARK  7 active torsions:
REMARK  status: ('A' for Active; 'I' for Inactive)
REMARK    1  A    between atoms: C_1  and  O_2
REMARK    2  A    between atoms: O_2  and  C_3
REMARK    3  A    between atoms: C_6  and  C_7
REMARK    4  A    between atoms: C_9  and  C_10
REMARK    5  A    between atoms: N_12  and  C_13
REMARK    6  A    between atoms: C_17  and  C_18
REMARK    7  A    between atoms: C_18  and  C_19
REMARK                            x       y       z     vdW  Elec       q    Type
REMARK                         _______ _______ _______ _____ _____    ______ ____
ROOT
ATOM      1  C   UNL     1       8.485   8.977  18.338  0.00  0.00    +0.000 A 
ATOM      2  C   UNL     1       8.181   7.774  18.924  0.00  0.00    +0.000 A 
ATOM      3  C   UNL     1       7.354   7.105  17.985  0.00  0.00    +0.000 A 
ATOM      4  N   UNL     1       7.147   7.867  16.899  0.00  0.00    +0.000 NA
ATOM      5  O   UNL     1       7.850   9.039  17.130  0.00  0.00    +0.000 OA
ENDROOT
BRANCH   1   9
ATOM      6  C   UNL     1      11.058  12.229  19.403  0.00  0.00    +0.000 A 
ATOM      7  C   UNL     1      10.335  11.552  20.384  0.00  0.00    +0.000 A 
ATOM      8  C   UNL     1       9.481  10.499  20.039  0.00  0.00    +0.000 A 
ATOM      9  C   UNL     1       9.326  10.113  18.697  0.00  0.00    +0.000 A 
ATOM     10  C   UNL     1      10.024  10.832  17.718  0.00  0.00    +0.000 A 
ATOM     11  C   UNL     1      10.883  11.880  18.066  0.00  0.00    +0.000 A 
BRANCH   6  13
ATOM     12  C   UNL     1      11.220  14.434  20.221  0.00  0.00    +0.000 C 
ATOM     13  O   UNL     1      11.879  13.226  19.853  0.00  0.00    +0.000 OA
ENDBRANCH   6  13
ENDBRANCH   1   9
BRANCH   3  14
ATOM     14  C   UNL     1       6.794   5.761  18.132  0.00  0.00    +0.000 C 
ATOM     15  O   UNL     1       7.540   4.805  18.320  0.00  0.00    +0.000 OA
ATOM     16  N   UNL     1       5.416   5.701  17.991  0.00  0.00    +0.000 N 
ATOM     17  H   UNL     1       4.967   6.565  17.699  0.00  0.00    +0.000 HD
BRANCH  16  18
ATOM     18  C   UNL     1       4.619   4.541  18.104  0.00  0.00    +0.000 A 
ATOM     19  C   UNL     1       4.694   3.488  17.192  0.00  0.00    +0.000 A 
ATOM     20  C   UNL     1       3.872   2.372  17.321  0.00  0.00    +0.000 A 
ATOM     21  C   UNL     1       2.953   2.295  18.363  0.00  0.00    +0.000 A 
ATOM     22  C   UNL     1       2.863   3.331  19.298  0.00  0.00    +0.000 A 
ATOM     23  C   UNL     1       3.718   4.445  19.173  0.00  0.00    +0.000 A 
BRANCH  22  24
ATOM     24  C   UNL     1       1.873   3.322  20.422  0.00  0.00    +0.000 C 
ATOM     25  C   UNL     1       2.250   2.826  21.798  0.00  0.00    +0.000 C 
ATOM     26  O   UNL     1       0.723   3.712  20.207  0.00  0.00    +0.000 OA
ENDBRANCH  22  24
ENDBRANCH  16  18
ENDBRANCH   3  14
TORSDOF 5
ENDMDL
