MODEL 1
REMARK VINA RESULT:      -7.1      0.000      0.000
REMARK  Name = 
REMARK  5 active torsions:
REMARK  status: ('A' for Active; 'I' for Inactive)
REMARK    1  A    between atoms: C_1  and  C_2
REMARK    2  A    between atoms: C_2  and  C_3
REMARK    3  A    between atoms: C_4  and  C_5
REMARK    4  A    between atoms: C_5  and  O_6
REMARK    5  A    between atoms: C_16  and  C_17
REMARK                            x       y       z     vdW  Elec       q    Type
REMARK                         _______ _______ _______ _____ _____    ______ ____
ROOT
ATOM      1  C   UNL     1       2.524   6.153  19.825  0.00  0.00    +0.000 A 
ATOM      2  C   UNL     1       3.170   6.257  18.589  0.00  0.00    +0.000 A 
ATOM      3  N   UNL     1       2.868   7.512  18.098  0.00  0.00    +0.000 N 
ATOM      4  C   UNL     1       2.080   8.220  18.974  0.00  0.00    +0.000 A 
ATOM      5  C   UNL     1       1.551   9.513  18.864  0.00  0.00    +0.000 A 
ATOM      6  C   UNL     1       0.774   9.987  19.927  0.00  0.00    +0.000 A 
ATOM      7  C   UNL     1       0.538   9.197  21.055  0.00  0.00    +0.000 A 
ATOM      8  C   UNL     1       1.074   7.903  21.136  0.00  0.00    +0.000 A 
ATOM      9  C   UNL     1       1.857   7.401  20.072  0.00  0.00    +0.000 A 
ATOM     10  H   UNL     1       3.168   7.881  17.208  0.00  0.00    +0.000 HD
ENDROOT
BRANCH   2  11
ATOM     11  C   UNL     1       3.999   5.253  17.800  0.00  0.00    +0.000 C 
ATOM     12  C   UNL     1       4.740   5.826  16.569  0.00  0.00    +0.000 C 
ATOM     13  C   UNL     1       6.022   6.594  16.905  0.00  0.00    +0.000 C 
ATOM     14  C   UNL     1       6.949   5.804  17.822  0.00  0.00    +0.000 C 
ATOM     15  C   UNL     1       6.217   5.315  19.063  0.00  0.00    +0.000 C 
ATOM     16  C   UNL     1       5.006   4.479  18.669  0.00  0.00    +0.000 C 
BRANCH  11  17
ATOM     17  O   UNL     1       3.046   4.313  17.300  0.00  0.00    +0.000 OA
ATOM     18  H   UNL     1       2.404   4.149  18.013  0.00  0.00    +0.000 HD
ENDBRANCH  11  17
ENDBRANCH   2  11
BRANCH   1  20
ATOM     19  C   UNL     1       1.254   4.116  20.626  0.00  0.00    +0.000 C 
ATOM     20  C   UNL     1       2.498   4.978  20.763  0.00  0.00    +0.000 C 
ENDBRANCH   1  20
BRANCH   7  21
ATOM     21  C   UNL     1      -0.257   9.708  22.134  0.00  0.00    +0.000 C 
ATOM     22  N   UNL     1      -0.897  10.121  23.011  0.00  0.00    +0.000 NA
ENDBRANCH   7  21
TORSDOF 4
ENDMDL
MODEL 2
REMARK VINA RESULT:      -7.0      3.050      5.900
REMARK  Name = 
REMARK  5 active torsions:
REMARK  status: ('A' for Active; 'I' for Inactive)
REMARK    1  A    between atoms: C_1  and  C_2
REMARK    2  A    between atoms: C_2  and  C_3
REMARK    3  A    between atoms: C_4  and  C_5
REMARK    4  A    between atoms: C_5  and  O_6
REMARK    5  A    between atoms: C_16  and  C_17
REMARK                            x       y       z     vdW  Elec       q    Type
REMARK                         _______ _______ _______ _____ _____    ______ ____
ROOT
ATOM      1  C   UNL     1       3.665   5.535  18.046  0.00  0.00    +0.000 A 
ATOM      2  C   UNL     1       3.600   4.157  18.281  0.00  0.00    +0.000 A 
ATOM      3  N   UNL     1       4.906   3.715  18.361  0.00  0.00    +0.000 N 
ATOM      4  C   UNL     1       5.799   4.749  18.209  0.00  0.00    +0.000 A 
ATOM      5  C   UNL     1       7.200   4.736  18.219  0.00  0.00    +0.000 A 
ATOM      6  C   UNL     1       7.860   5.957  18.042  0.00  0.00    +0.000 A 
ATOM      7  C   UNL     1       7.144   7.144  17.865  0.00  0.00    +0.000 A 
ATOM      8  C   UNL     1       5.741   7.128  17.853  0.00  0.00    +0.000 A 
ATOM      9  C   UNL     1       5.053   5.905  18.024  0.00  0.00    +0.000 A 
ATOM     10  H   UNL     1       5.192   2.758  18.501  0.00  0.00    +0.000 HD
ENDROOT
BRANCH   2  11
ATOM     11  C   UNL     1       2.413   3.209  18.380  0.00  0.00    +0.000 C 
ATOM     12  C   UNL     1       2.648   1.937  19.226  0.00  0.00    +0.000 C 
ATOM     13  C   UNL     1       2.570   2.162  20.739  0.00  0.00    +0.000 C 
ATOM     14  C   UNL     1       1.304   2.905  21.151  0.00  0.00    +0.000 C 
ATOM     15  C   UNL     1       1.133   4.192  20.358  0.00  0.00    +0.000 C 
ATOM     16  C   UNL     1       1.124   3.896  18.864  0.00  0.00    +0.000 C 
BRANCH  11  17
ATOM     17  O   UNL     1       2.191   2.770  17.038  0.00  0.00    +0.000 OA
ATOM     18  H   UNL     1       1.228   2.745  16.900  0.00  0.00    +0.000 HD
ENDBRANCH  11  17
ENDBRANCH   2  11
BRANCH   1  20
ATOM     19  C   UNL     1       2.343   7.470  18.999  0.00  0.00    +0.000 C 
ATOM     20  C   UNL     1       2.527   6.497  17.846  0.00  0.00    +0.000 C 
ENDBRANCH   1  20
BRANCH   7  21
ATOM     21  C   UNL     1       7.844   8.384  17.692  0.00  0.00    +0.000 C 
ATOM     22  N   UNL     1       8.408   9.390  17.554  0.00  0.00    +0.000 NA
ENDBRANCH   7  21
TORSDOF 4
ENDMDL
MODEL 3
REMARK VINA RESULT:      -7.0      1.997      3.909
REMARK  Name = 
REMARK  5 active torsions:
REMARK  status: ('A' for Active; 'I' for Inactive)
REMARK    1  A    between atoms: C_1  and  C_2
REMARK    2  A    between atoms: C_2  and  C_3
REMARK    3  A    between atoms: C_4  and  C_5
REMARK    4  A    between atoms: C_5  and  O_6
REMARK    5  A    between atoms: C_16  and  C_17
REMARK                            x       y       z     vdW  Elec       q    Type
REMARK                         _______ _______ _______ _____ _____    ______ ____
ROOT
ATOM      1  C   UNL     1       2.456   7.350  18.696  0.00  0.00    +0.000 A 
ATOM      2  C   UNL     1       2.434   6.394  19.717  0.00  0.00    +0.000 A 
ATOM      3  N   UNL     1       1.818   6.995  20.798  0.00  0.00    +0.000 N 
ATOM      4  C   UNL     1       1.427   8.279  20.506  0.00  0.00    +0.000 A 
ATOM      5  C   UNL     1       0.781   9.228  21.310  0.00  0.00    +0.000 A 
ATOM      6  C   UNL     1       0.498  10.474  20.741  0.00  0.00    +0.000 A 
ATOM      7  C   UNL     1       0.847  10.758  19.418  0.00  0.00    +0.000 A 
ATOM      8  C   UNL     1       1.499   9.792  18.636  0.00  0.00    +0.000 A 
ATOM      9  C   UNL     1       1.801   8.529  19.192  0.00  0.00    +0.000 A 
ATOM     10  H   UNL     1       1.672   6.567  21.700  0.00  0.00    +0.000 HD
ENDROOT
BRANCH   2  11
ATOM     11  C   UNL     1       2.996   4.981  19.783  0.00  0.00    +0.000 C 
ATOM     12  C   UNL     1       2.429   4.093  20.915  0.00  0.00    +0.000 C 
ATOM     13  C   UNL     1       1.043   3.509  20.625  0.00  0.00    +0.000 C 
ATOM     14  C   UNL     1       0.975   2.824  19.263  0.00  0.00    +0.000 C 
ATOM     15  C   UNL     1       1.468   3.743  18.156  0.00  0.00    +0.000 C 
ATOM     16  C   UNL     1       2.885   4.218  18.452  0.00  0.00    +0.000 C 
BRANCH  11  17
ATOM     17  O   UNL     1       4.386   5.159  20.065  0.00  0.00    +0.000 OA
ATOM     18  H   UNL     1       4.448   5.625  20.917  0.00  0.00    +0.000 HD
ENDBRANCH  11  17
ENDBRANCH   2  11
BRANCH   1  20
ATOM     19  C   UNL     1       4.563   7.214  17.302  0.00  0.00    +0.000 C 
ATOM     20  C   UNL     1       3.043   7.223  17.318  0.00  0.00    +0.000 C 
ENDBRANCH   1  20
BRANCH   7  21
ATOM     21  C   UNL     1       0.540  12.041  18.856  0.00  0.00    +0.000 C 
ATOM     22  N   UNL     1       0.291  13.082  18.403  0.00  0.00    +0.000 NA
ENDBRANCH   7  21
TORSDOF 4
ENDMDL
MODEL 4
REMARK VINA RESULT:      -6.9      2.065      3.674
REMARK  Name = 
REMARK  5 active torsions:
REMARK  status: ('A' for Active; 'I' for Inactive)
REMARK    1  A    between atoms: C_1  and  C_2
REMARK    2  A    between atoms: C_2  and  C_3
REMARK    3  A    between atoms: C_4  and  C_5
REMARK    4  A    between atoms: C_5  and  O_6
REMARK    5  A    between atoms: C_16  and  C_17
REMARK                            x       y       z     vdW  Elec       q    Type
REMARK                         _______ _______ _______ _____ _____    ______ ____
ROOT
ATOM      1  C   UNL     1       3.415   6.528  18.254  0.00  0.00    +0.000 A 
ATOM      2  C   UNL     1       3.440   5.434  19.126  0.00  0.00    +0.000 A 
ATOM      3  N   UNL     1       2.668   5.789  20.215  0.00  0.00    +0.000 N 
ATOM      4  C   UNL     1       2.136   7.047  20.069  0.00  0.00    +0.000 A 
ATOM      5  C   UNL     1       1.311   7.781  20.931  0.00  0.00    +0.000 A 
ATOM      6  C   UNL     1       0.911   9.056  20.516  0.00  0.00    +0.000 A 
ATOM      7  C   UNL     1       1.321   9.574  19.285  0.00  0.00    +0.000 A 
ATOM      8  C   UNL     1       2.153   8.820  18.442  0.00  0.00    +0.000 A 
ATOM      9  C   UNL     1       2.574   7.532  18.844  0.00  0.00    +0.000 A 
ATOM     10  H   UNL     1       2.511   5.217  21.032  0.00  0.00    +0.000 HD
ENDROOT
BRANCH   2  11
ATOM     11  C   UNL     1       4.176   4.103  19.049  0.00  0.00    +0.000 C 
ATOM     12  C   UNL     1       3.705   3.025  20.052  0.00  0.00    +0.000 C 
ATOM     13  C   UNL     1       2.410   2.311  19.650  0.00  0.00    +0.000 C 
ATOM     14  C   UNL     1       2.456   1.789  18.218  0.00  0.00    +0.000 C 
ATOM     15  C   UNL     1       2.848   2.886  17.240  0.00  0.00    +0.000 C 
ATOM     16  C   UNL     1       4.188   3.495  17.636  0.00  0.00    +0.000 C 
BRANCH  11  17
ATOM     17  O   UNL     1       5.526   4.419  19.395  0.00  0.00    +0.000 OA
ATOM     18  H   UNL     1       5.983   3.576  19.564  0.00  0.00    +0.000 HD
ENDBRANCH  11  17
ENDBRANCH   2  11
BRANCH   1  20
ATOM     19  C   UNL     1       5.603   6.975  17.065  0.00  0.00    +0.000 C 
ATOM     20  C   UNL     1       4.118   6.678  16.934  0.00  0.00    +0.000 C 
ENDBRANCH   1  20
BRANCH   7  21
ATOM     21  C   UNL     1       0.892  10.881  18.879  0.00  0.00    +0.000 C 
ATOM     22  N   UNL     1       0.542  11.939  18.551  0.00  0.00    +0.000 NA
ENDBRANCH   7  21
TORSDOF 4
ENDMDL
MODEL 5
REMARK VINA RESULT:      -6.7      3.313      6.475
REMARK  Name = 
REMARK  5 active torsions:
REMARK  status: ('A' for Active; 'I' for Inactive)
REMARK    1  A    between atoms: C_1  and  C_2
REMARK    2  A    between atoms: C_2  and  C_3
REMARK    3  A    between atoms: C_4  and  C_5
REMARK    4  A    between atoms: C_5  and  O_6
REMARK    5  A    between atoms: C_16  and  C_17
REMARK                            x       y       z     vdW  Elec       q    Type
REMARK                         _______ _______ _______ _____ _____    ______ ____
ROOT
ATOM      1  C   UNL     1       3.147   4.062  18.067  0.00  0.00    +0.000 A 
ATOM      2  C   UNL     1       2.981   5.061  19.033  0.00  0.00    +0.000 A 
ATOM      3  N   UNL     1       3.834   6.088  18.679  0.00  0.00    +0.000 N 
ATOM      4  C   UNL     1       4.518   5.800  17.522  0.00  0.00    +0.000 A 
ATOM      5  C   UNL     1       5.471   6.557  16.828  0.00  0.00    +0.000 A 
ATOM      6  C   UNL     1       6.007   6.008  15.658  0.00  0.00    +0.000 A 
ATOM      7  C   UNL     1       5.602   4.752  15.201  0.00  0.00    +0.000 A 
ATOM      8  C   UNL     1       4.650   4.011  15.918  0.00  0.00    +0.000 A 
ATOM      9  C   UNL     1       4.100   4.543  17.106  0.00  0.00    +0.000 A 
ATOM     10  H   UNL     1       3.963   6.946  19.194  0.00  0.00    +0.000 HD
ENDROOT
BRANCH   2  11
ATOM     11  C   UNL     1       2.131   5.108  20.295  0.00  0.00    +0.000 C 
ATOM     12  C   UNL     1       0.695   4.554  20.150  0.00  0.00    +0.000 C 
ATOM     13  C   UNL     1       0.604   3.025  20.168  0.00  0.00    +0.000 C 
ATOM     14  C   UNL     1       1.343   2.413  21.353  0.00  0.00    +0.000 C 
ATOM     15  C   UNL     1       2.777   2.915  21.432  0.00  0.00    +0.000 C 
ATOM     16  C   UNL     1       2.802   4.437  21.506  0.00  0.00    +0.000 C 
BRANCH  11  17
ATOM     17  O   UNL     1       2.002   6.501  20.590  0.00  0.00    +0.000 OA
ATOM     18  H   UNL     1       1.191   6.608  21.118  0.00  0.00    +0.000 HD
ENDBRANCH  11  17
ENDBRANCH   2  11
BRANCH   1  20
ATOM     19  C   UNL     1       3.422   1.554  18.251  0.00  0.00    +0.000 C 
ATOM     20  C   UNL     1       2.477   2.717  17.999  0.00  0.00    +0.000 C 
ENDBRANCH   1  20
BRANCH   7  21
ATOM     21  C   UNL     1       6.161   4.213  13.995  0.00  0.00    +0.000 C 
ATOM     22  N   UNL     1       6.612   3.780  13.016  0.00  0.00    +0.000 NA
ENDBRANCH   7  21
TORSDOF 4
ENDMDL
MODEL 6
REMARK VINA RESULT:      -6.6      1.346      2.260
REMARK  Name = 
REMARK  5 active torsions:
REMARK  status: ('A' for Active; 'I' for Inactive)
REMARK    1  A    between atoms: C_1  and  C_2
REMARK    2  A    between atoms: C_2  and  C_3
REMARK    3  A    between atoms: C_4  and  C_5
REMARK    4  A    between atoms: C_5  and  O_6
REMARK    5  A    between atoms: C_16  and  C_17
REMARK                            x       y       z     vdW  Elec       q    Type
REMARK                         _______ _______ _______ _____ _____    ______ ____
ROOT
ATOM      1  C   UNL     1       2.586   5.642  19.846  0.00  0.00    +0.000 A 
ATOM      2  C   UNL     1       3.206   5.684  18.593  0.00  0.00    +0.000 A 
ATOM      3  N   UNL     1       2.929   6.931  18.066  0.00  0.00    +0.000 N 
ATOM      4  C   UNL     1       2.182   7.691  18.933  0.00  0.00    +0.000 A 
ATOM      5  C   UNL     1       1.688   8.994  18.791  0.00  0.00    +0.000 A 
ATOM      6  C   UNL     1       0.949   9.526  19.854  0.00  0.00    +0.000 A 
ATOM      7  C   UNL     1       0.717   8.783  21.013  0.00  0.00    +0.000 A 
ATOM      8  C   UNL     1       1.218   7.477  21.128  0.00  0.00    +0.000 A 
ATOM      9  C   UNL     1       1.961   6.916  20.065  0.00  0.00    +0.000 A 
ATOM     10  H   UNL     1       3.219   7.260  17.157  0.00  0.00    +0.000 HD
ENDROOT
BRANCH   2  11
ATOM     11  C   UNL     1       3.988   4.631  17.821  0.00  0.00    +0.000 C 
ATOM     12  C   UNL     1       4.946   3.762  18.668  0.00  0.00    +0.000 C 
ATOM     13  C   UNL     1       4.254   2.645  19.456  0.00  0.00    +0.000 C 
ATOM     14  C   UNL     1       3.331   1.803  18.581  0.00  0.00    +0.000 C 
ATOM     15  C   UNL     1       2.348   2.675  17.815  0.00  0.00    +0.000 C 
ATOM     16  C   UNL     1       3.094   3.706  16.977  0.00  0.00    +0.000 C 
BRANCH  11  17
ATOM     17  O   UNL     1       4.808   5.379  16.921  0.00  0.00    +0.000 OA
ATOM     18  H   UNL     1       4.852   4.877  16.088  0.00  0.00    +0.000 HD
ENDBRANCH  11  17
ENDBRANCH   2  11
BRANCH   1  20
ATOM     19  C   UNL     1       1.198   3.810  20.904  0.00  0.00    +0.000 C 
ATOM     20  C   UNL     1       2.550   4.500  20.824  0.00  0.00    +0.000 C 
ENDBRANCH   1  20
BRANCH   7  21
ATOM     21  C   UNL     1      -0.037   9.353  22.092  0.00  0.00    +0.000 C 
ATOM     22  N   UNL     1      -0.650   9.811  22.966  0.00  0.00    +0.000 NA
ENDBRANCH   7  21
TORSDOF 4
ENDMDL
MODEL 7
REMARK VINA RESULT:      -6.5      3.469      6.005
REMARK  Name = 
REMARK  5 active torsions:
REMARK  status: ('A' for Active; 'I' for Inactive)
REMARK    1  A    between atoms: C_1  and  C_2
REMARK    2  A    between atoms: C_2  and  C_3
REMARK    3  A    between atoms: C_4  and  C_5
REMARK    4  A    between atoms: C_5  and  O_6
REMARK    5  A    between atoms: C_16  and  C_17
REMARK                            x       y       z     vdW  Elec       q    Type
REMARK                         _______ _______ _______ _____ _____    ______ ____
ROOT
ATOM      1  C   UNL     1       4.275   4.659  18.950  0.00  0.00    +0.000 A 
ATOM      2  C   UNL     1       4.139   3.366  18.434  0.00  0.00    +0.000 A 
ATOM      3  N   UNL     1       5.089   3.244  17.438  0.00  0.00    +0.000 N 
ATOM      4  C   UNL     1       5.838   4.390  17.312  0.00  0.00    +0.000 A 
ATOM      5  C   UNL     1       6.888   4.687  16.433  0.00  0.00    +0.000 A 
ATOM      6  C   UNL     1       7.478   5.951  16.532  0.00  0.00    +0.000 A 
ATOM      7  C   UNL     1       7.034   6.881  17.476  0.00  0.00    +0.000 A 
ATOM      8  C   UNL     1       5.976   6.561  18.341  0.00  0.00    +0.000 A 
ATOM      9  C   UNL     1       5.361   5.292  18.254  0.00  0.00    +0.000 A 
ATOM     10  H   UNL     1       5.228   2.431  16.857  0.00  0.00    +0.000 HD
ENDROOT
BRANCH   2  11
ATOM     11  C   UNL     1       3.152   2.253  18.756  0.00  0.00    +0.000 C 
ATOM     12  C   UNL     1       2.834   2.062  20.257  0.00  0.00    +0.000 C 
ATOM     13  C   UNL     1       1.842   3.082  20.826  0.00  0.00    +0.000 C 
ATOM     14  C   UNL     1       0.580   3.200  19.978  0.00  0.00    +0.000 C 
ATOM     15  C   UNL     1       0.917   3.463  18.518  0.00  0.00    +0.000 C 
ATOM     16  C   UNL     1       1.830   2.368  17.979  0.00  0.00    +0.000 C 
BRANCH  11  17
ATOM     17  O   UNL     1       3.805   1.057  18.324  0.00  0.00    +0.000 OA
ATOM     18  H   UNL     1       4.313   0.718  19.082  0.00  0.00    +0.000 HD
ENDBRANCH  11  17
ENDBRANCH   2  11
BRANCH   1  20
ATOM     19  C   UNL     1       2.608   6.471  19.535  0.00  0.00    +0.000 C 
ATOM     20  C   UNL     1       3.463   5.316  20.031  0.00  0.00    +0.000 C 
ENDBRANCH   1  20
BRANCH   7  21
ATOM     21  C   UNL     1       7.660   8.169  17.563  0.00  0.00    +0.000 C 
ATOM     22  N   UNL     1       8.164   9.213  17.634  0.00  0.00    +0.000 NA
ENDBRANCH   7  21
TORSDOF 4
ENDMDL
MODEL 8
REMARK VINA RESULT:      -6.5      1.182      1.437
REMARK  Name = 
REMARK  5 active torsions:
REMARK  status: ('A' for Active; 'I' for Inactive)
REMARK    1  A    between atoms: C_1  and  C_2
REMARK    2  A    between atoms: C_2  and  C_3
REMARK    3  A    between atoms: C_4  and  C_5
REMARK    4  A    between atoms: C_5  and  O_6
REMARK    5  A    between atoms: C_16  and  C_17
REMARK                            x       y       z     vdW  Elec       q    Type
REMARK                         _______ _______ _______ _____ _____    ______ ____
ROOT
ATOM      1  C   UNL     1       3.190   5.536  19.413  0.00  0.00    +0.000 A 
ATOM      2  C   UNL     1       3.921   5.430  18.225  0.00  0.00    +0.000 A 
ATOM      3  N   UNL     1       3.663   6.581  17.507  0.00  0.00    +0.000 N 
ATOM      4  C   UNL     1       2.821   7.424  18.191  0.00  0.00    +0.000 A 
ATOM      5  C   UNL     1       2.310   8.677  17.825  0.00  0.00    +0.000 A 
ATOM      6  C   UNL     1       1.464   9.322  18.734  0.00  0.00    +0.000 A 
ATOM      7  C   UNL     1       1.145   8.736  19.961  0.00  0.00    +0.000 A 
ATOM      8  C   UNL     1       1.665   7.478  20.300  0.00  0.00    +0.000 A 
ATOM      9  C   UNL     1       2.516   6.805  19.395  0.00  0.00    +0.000 A 
ATOM     10  H   UNL     1       4.027   6.792  16.589  0.00  0.00    +0.000 HD
ENDROOT
BRANCH   2  11
ATOM     11  C   UNL     1       4.797   4.310  17.680  0.00  0.00    +0.000 C 
ATOM     12  C   UNL     1       4.797   4.157  16.141  0.00  0.00    +0.000 C 
ATOM     13  C   UNL     1       5.674   5.176  15.406  0.00  0.00    +0.000 C 
ATOM     14  C   UNL     1       7.085   5.250  15.980  0.00  0.00    +0.000 C 
ATOM     15  C   UNL     1       7.059   5.476  17.485  0.00  0.00    +0.000 C 
ATOM     16  C   UNL     1       6.253   4.381  18.172  0.00  0.00    +0.000 C 
BRANCH  11  17
ATOM     17  O   UNL     1       4.220   3.113  18.207  0.00  0.00    +0.000 OA
ATOM     18  H   UNL     1       4.928   2.637  18.676  0.00  0.00    +0.000 HD
ENDBRANCH  11  17
ENDBRANCH   2  11
BRANCH   1  20
ATOM     19  C   UNL     1       1.745   3.839  20.610  0.00  0.00    +0.000 C 
ATOM     20  C   UNL     1       3.092   4.539  20.534  0.00  0.00    +0.000 C 
ENDBRANCH   1  20
BRANCH   7  21
ATOM     21  C   UNL     1       0.281   9.420  20.879  0.00  0.00    +0.000 C 
ATOM     22  N   UNL     1      -0.418   9.978  21.621  0.00  0.00    +0.000 NA
ENDBRANCH   7  21
TORSDOF 4
ENDMDL
MODEL 9
REMARK VINA RESULT:      -6.5      4.854      7.474
REMARK  Name = 
REMARK  5 active torsions:
REMARK  status: ('A' for Active; 'I' for Inactive)
REMARK    1  A    between atoms: C_1  and  C_2
REMARK    2  A    between atoms: C_2  and  C_3
REMARK    3  A    between atoms: C_4  and  C_5
REMARK    4  A    between atoms: C_5  and  O_6
REMARK    5  A    between atoms: C_16  and  C_17
REMARK                            x       y       z     vdW  Elec       q    Type
REMARK                         _______ _______ _______ _____ _____    ______ ____
ROOT
ATOM      1  C   UNL     1      -0.485  10.395  18.610  0.00  0.00    +0.000 A 
ATOM      2  C   UNL     1      -0.676  11.070  19.820  0.00  0.00    +0.000 A 
ATOM      3  N   UNL     1      -1.912  11.680  19.733  0.00  0.00    +0.000 N 
ATOM      4  C   UNL     1      -2.526  11.406  18.534  0.00  0.00    +0.000 A 
ATOM      5  C   UNL     1      -3.771  11.824  18.044  0.00  0.00    +0.000 A 
ATOM      6  C   UNL     1      -4.148  11.382  16.771  0.00  0.00    +0.000 A 
ATOM      7  C   UNL     1      -3.312  10.552  16.020  0.00  0.00    +0.000 A 
ATOM      8  C   UNL     1      -2.068  10.152  16.532  0.00  0.00    +0.000 A 
ATOM      9  C   UNL     1      -1.663  10.592  17.813  0.00  0.00    +0.000 A 
ATOM     10  H   UNL     1      -2.328  12.265  20.442  0.00  0.00    +0.000 HD
ENDROOT
BRANCH   2  11
ATOM     11  C   UNL     1       0.231  11.241  21.031  0.00  0.00    +0.000 C 
ATOM     12  C   UNL     1      -0.453  11.805  22.298  0.00  0.00    +0.000 C 
ATOM     13  C   UNL     1      -1.275  10.777  23.082  0.00  0.00    +0.000 C 
ATOM     14  C   UNL     1      -0.490   9.501  23.367  0.00  0.00    +0.000 C 
ATOM     15  C   UNL     1       0.110   8.923  22.094  0.00  0.00    +0.000 C 
ATOM     16  C   UNL     1       0.992   9.958  21.407  0.00  0.00    +0.000 C 
BRANCH  11  17
ATOM     17  O   UNL     1       1.196  12.213  20.623  0.00  0.00    +0.000 OA
ATOM     18  H   UNL     1       2.049  11.952  21.014  0.00  0.00    +0.000 HD
ENDBRANCH  11  17
ENDBRANCH   2  11
BRANCH   1  20
ATOM     19  C   UNL     1       1.933  10.447  17.866  0.00  0.00    +0.000 C 
ATOM     20  C   UNL     1       0.712   9.596  18.173  0.00  0.00    +0.000 C 
ENDBRANCH   1  20
BRANCH   7  21
ATOM     21  C   UNL     1      -3.723  10.107  14.721  0.00  0.00    +0.000 C 
ATOM     22  N   UNL     1      -4.060   9.744  13.670  0.00  0.00    +0.000 NA
ENDBRANCH   7  21
TORSDOF 4
ENDMDL
