MODEL 1
REMARK VINA RESULT:      -8.6      0.000      0.000
REMARK  Name = 
REMARK  5 active torsions:
REMARK  status: ('A' for Active; 'I' for Inactive)
REMARK    1  A    between atoms: C_1  and  C_2
REMARK    2  A    between atoms: C_7  and  N_8
REMARK    3  A    between atoms: C_11  and  C_12
REMARK    4  A    between atoms: N_14  and  C_15
REMARK    5  A    between atoms: C_18  and  C_19
REMARK                            x       y       z     vdW  Elec       q    Type
REMARK                         _______ _______ _______ _____ _____    ______ ____
ROOT
ATOM      1  N   UNL     1       5.458   5.291  18.317  0.00  0.00    +0.000 N 
ATOM      2  C   UNL     1       5.394   5.661  16.927  0.00  0.00    +0.000 C 
ATOM      3  C   UNL     1       6.856   5.642  16.514  0.00  0.00    +0.000 C 
ATOM      4  C   UNL     1       7.577   6.131  17.779  0.00  0.00    +0.000 C 
ATOM      5  C   UNL     1       6.701   5.586  18.875  0.00  0.00    +0.000 C 
ATOM      6  O   UNL     1       7.039   5.534  20.051  0.00  0.00    +0.000 OA
ENDROOT
BRANCH   1  13
ATOM      7  C   UNL     1       1.466   6.947  20.656  0.00  0.00    +0.000 C 
ATOM      8  C   UNL     1       2.334   5.798  20.240  0.00  0.00    +0.000 A 
ATOM      9  C   UNL     1       2.071   4.493  20.679  0.00  0.00    +0.000 A 
ATOM     10  C   UNL     1       2.923   3.447  20.323  0.00  0.00    +0.000 A 
ATOM     11  C   UNL     1       4.053   3.707  19.555  0.00  0.00    +0.000 A 
ATOM     12  F   UNL     1       4.842   2.679  19.211  0.00  0.00    +0.000 F 
ATOM     13  C   UNL     1       4.321   4.998  19.088  0.00  0.00    +0.000 A 
ATOM     14  C   UNL     1       3.445   6.035  19.416  0.00  0.00    +0.000 A 
ENDBRANCH   1  13
BRANCH   4  15
ATOM     15  C   UNL     1       7.700   7.640  17.792  0.00  0.00    +0.000 C 
ATOM     16  O   UNL     1       7.051   8.310  16.984  0.00  0.00    +0.000 OA
ATOM     17  N   UNL     1       8.636   8.157  18.672  0.00  0.00    +0.000 N 
ATOM     18  H   UNL     1       9.219   7.497  19.183  0.00  0.00    +0.000 HD
BRANCH  17  19
ATOM     19  C   UNL     1       8.907   9.530  18.868  0.00  0.00    +0.000 A 
ATOM     20  C   UNL     1       9.014  10.440  17.813  0.00  0.00    +0.000 A 
ATOM     21  C   UNL     1       9.340  11.779  18.046  0.00  0.00    +0.000 A 
ATOM     22  C   UNL     1       9.555  12.241  19.347  0.00  0.00    +0.000 A 
ATOM     23  C   UNL     1       9.415  11.337  20.412  0.00  0.00    +0.000 A 
ATOM     24  C   UNL     1       9.080   9.997  20.174  0.00  0.00    +0.000 A 
BRANCH  22  25
ATOM     25  C   UNL     1       9.921  13.683  19.599  0.00  0.00    +0.000 C 
ATOM     26  F   UNL     1      10.208  14.380  18.462  0.00  0.00    +0.000 F 
ATOM     27  F   UNL     1       8.923  14.374  20.215  0.00  0.00    +0.000 F 
ATOM     28  F   UNL     1      11.015  13.814  20.399  0.00  0.00    +0.000 F 
ENDBRANCH  22  25
ENDBRANCH  17  19
ENDBRANCH   4  15
TORSDOF 4
ENDMDL
MODEL 2
REMARK VINA RESULT:      -8.5      0.655      1.058
REMARK  Name = 
REMARK  5 active torsions:
REMARK  status: ('A' for Active; 'I' for Inactive)
REMARK    1  A    between atoms: C_1  and  C_2
REMARK    2  A    between atoms: C_7  and  N_8
REMARK    3  A    between atoms: C_11  and  C_12
REMARK    4  A    between atoms: N_14  and  C_15
REMARK    5  A    between atoms: C_18  and  C_19
REMARK                            x       y       z     vdW  Elec       q    Type
REMARK                         _______ _______ _______ _____ _____    ______ ____
ROOT
ATOM      1  N   UNL     1       5.494   4.882  18.516  0.00  0.00    +0.000 N 
ATOM      2  C   UNL     1       5.495   5.029  17.084  0.00  0.00    +0.000 C 
ATOM      3  C   UNL     1       6.978   5.004  16.752  0.00  0.00    +0.000 C 
ATOM      4  C   UNL     1       7.613   5.712  17.959  0.00  0.00    +0.000 C 
ATOM      5  C   UNL     1       6.695   5.309  19.082  0.00  0.00    +0.000 C 
ATOM      6  O   UNL     1       6.968   5.454  20.267  0.00  0.00    +0.000 OA
ENDROOT
BRANCH   1  13
ATOM      7  C   UNL     1       1.503   6.791  20.655  0.00  0.00    +0.000 C 
ATOM      8  C   UNL     1       2.338   5.592  20.319  0.00  0.00    +0.000 A 
ATOM      9  C   UNL     1       2.015   4.321  20.811  0.00  0.00    +0.000 A 
ATOM     10  C   UNL     1       2.837   3.229  20.530  0.00  0.00    +0.000 A 
ATOM     11  C   UNL     1       3.997   3.411  19.784  0.00  0.00    +0.000 A 
ATOM     12  F   UNL     1       4.756   2.340  19.512  0.00  0.00    +0.000 F 
ATOM     13  C   UNL     1       4.326   4.667  19.265  0.00  0.00    +0.000 A 
ATOM     14  C   UNL     1       3.481   5.750  19.519  0.00  0.00    +0.000 A 
ENDBRANCH   1  13
BRANCH   4  15
ATOM     15  C   UNL     1       7.687   7.209  17.741  0.00  0.00    +0.000 C 
ATOM     16  O   UNL     1       7.138   7.707  16.754  0.00  0.00    +0.000 OA
ATOM     17  N   UNL     1       8.474   7.907  18.641  0.00  0.00    +0.000 N 
ATOM     18  H   UNL     1       8.999   7.367  19.327  0.00  0.00    +0.000 HD
BRANCH  17  19
ATOM     19  C   UNL     1       8.673   9.306  18.644  0.00  0.00    +0.000 A 
ATOM     20  C   UNL     1       8.154  10.147  17.657  0.00  0.00    +0.000 A 
ATOM     21  C   UNL     1       8.423  11.519  17.665  0.00  0.00    +0.000 A 
ATOM     22  C   UNL     1       9.210  12.083  18.673  0.00  0.00    +0.000 A 
ATOM     23  C   UNL     1       9.704  11.245  19.685  0.00  0.00    +0.000 A 
ATOM     24  C   UNL     1       9.425   9.870  19.677  0.00  0.00    +0.000 A 
BRANCH  22  25
ATOM     25  C   UNL     1       9.512  13.561  18.675  0.00  0.00    +0.000 C 
ATOM     26  F   UNL     1       9.496  14.118  19.920  0.00  0.00    +0.000 F 
ATOM     27  F   UNL     1      10.740  13.842  18.159  0.00  0.00    +0.000 F 
ATOM     28  F   UNL     1       8.621  14.278  17.937  0.00  0.00    +0.000 F 
ENDBRANCH  22  25
ENDBRANCH  17  19
ENDBRANCH   4  15
TORSDOF 4
ENDMDL
MODEL 3
REMARK VINA RESULT:      -8.5      0.172      1.203
REMARK  Name = 
REMARK  5 active torsions:
REMARK  status: ('A' for Active; 'I' for Inactive)
REMARK    1  A    between atoms: C_1  and  C_2
REMARK    2  A    between atoms: C_7  and  N_8
REMARK    3  A    between atoms: C_11  and  C_12
REMARK    4  A    between atoms: N_14  and  C_15
REMARK    5  A    between atoms: C_18  and  C_19
REMARK                            x       y       z     vdW  Elec       q    Type
REMARK                         _______ _______ _______ _____ _____    ______ ____
ROOT
ATOM      1  N   UNL     1       5.433   5.332  18.309  0.00  0.00    +0.000 N 
ATOM      2  C   UNL     1       5.357   5.732  16.928  0.00  0.00    +0.000 C 
ATOM      3  C   UNL     1       6.814   5.706  16.499  0.00  0.00    +0.000 C 
ATOM      4  C   UNL     1       7.555   6.160  17.765  0.00  0.00    +0.000 C 
ATOM      5  C   UNL     1       6.685   5.602  18.859  0.00  0.00    +0.000 C 
ATOM      6  O   UNL     1       7.034   5.523  20.030  0.00  0.00    +0.000 OA
ENDROOT
BRANCH   1  13
ATOM      7  C   UNL     1       1.442   6.974  20.661  0.00  0.00    +0.000 C 
ATOM      8  C   UNL     1       2.314   5.828  20.245  0.00  0.00    +0.000 A 
ATOM      9  C   UNL     1       2.061   4.523  20.689  0.00  0.00    +0.000 A 
ATOM     10  C   UNL     1       2.917   3.481  20.333  0.00  0.00    +0.000 A 
ATOM     11  C   UNL     1       4.042   3.745  19.558  0.00  0.00    +0.000 A 
ATOM     12  F   UNL     1       4.835   2.720  19.214  0.00  0.00    +0.000 F 
ATOM     13  C   UNL     1       4.300   5.035  19.086  0.00  0.00    +0.000 A 
ATOM     14  C   UNL     1       3.421   6.069  19.415  0.00  0.00    +0.000 A 
ENDBRANCH   1  13
BRANCH   4  15
ATOM     15  C   UNL     1       7.694   7.668  17.808  0.00  0.00    +0.000 C 
ATOM     16  O   UNL     1       7.050   8.361  17.014  0.00  0.00    +0.000 OA
ATOM     17  N   UNL     1       8.637   8.157  18.696  0.00  0.00    +0.000 N 
ATOM     18  H   UNL     1       9.214   7.480  19.193  0.00  0.00    +0.000 HD
BRANCH  17  19
ATOM     19  C   UNL     1       8.924   9.523  18.919  0.00  0.00    +0.000 A 
ATOM     20  C   UNL     1       9.134  10.054  20.194  0.00  0.00    +0.000 A 
ATOM     21  C   UNL     1       9.359  11.422  20.377  0.00  0.00    +0.000 A 
ATOM     22  C   UNL     1       9.390  12.289  19.282  0.00  0.00    +0.000 A 
ATOM     23  C   UNL     1       9.213  11.753  17.996  0.00  0.00    +0.000 A 
ATOM     24  C   UNL     1       8.996  10.378  17.817  0.00  0.00    +0.000 A 
BRANCH  22  25
ATOM     25  C   UNL     1       9.619  13.767  19.478  0.00  0.00    +0.000 C 
ATOM     26  F   UNL     1       8.646  14.376  20.216  0.00  0.00    +0.000 F 
ATOM     27  F   UNL     1      10.790  14.032  20.119  0.00  0.00    +0.000 F 
ATOM     28  F   UNL     1       9.672  14.450  18.302  0.00  0.00    +0.000 F 
ENDBRANCH  22  25
ENDBRANCH  17  19
ENDBRANCH   4  15
TORSDOF 4
ENDMDL
MODEL 4
REMARK VINA RESULT:      -8.3      1.547      2.169
REMARK  Name = 
REMARK  5 active torsions:
REMARK  status: ('A' for Active; 'I' for Inactive)
REMARK    1  A    between atoms: C_1  and  C_2
REMARK    2  A    between atoms: C_7  and  N_8
REMARK    3  A    between atoms: C_11  and  C_12
REMARK    4  A    between atoms: N_14  and  C_15
REMARK    5  A    between atoms: C_18  and  C_19
REMARK                            x       y       z     vdW  Elec       q    Type
REMARK                         _______ _______ _______ _____ _____    ______ ____
ROOT
ATOM      1  N   UNL     1       4.727   4.645  18.331  0.00  0.00    +0.000 N 
ATOM      2  C   UNL     1       4.623   4.740  16.899  0.00  0.00    +0.000 C 
ATOM      3  C   UNL     1       5.993   4.271  16.439  0.00  0.00    +0.000 C 
ATOM      4  C   UNL     1       6.926   4.798  17.539  0.00  0.00    +0.000 C 
ATOM      5  C   UNL     1       6.051   4.718  18.762  0.00  0.00    +0.000 C 
ATOM      6  O   UNL     1       6.475   4.814  19.907  0.00  0.00    +0.000 OA
ENDROOT
BRANCH   1  13
ATOM      7  C   UNL     1       1.558   2.592  21.477  0.00  0.00    +0.000 C 
ATOM      8  C   UNL     1       2.061   3.811  20.763  0.00  0.00    +0.000 A 
ATOM      9  C   UNL     1       1.406   5.044  20.881  0.00  0.00    +0.000 A 
ATOM     10  C   UNL     1       1.860   6.152  20.165  0.00  0.00    +0.000 A 
ATOM     11  C   UNL     1       2.948   6.023  19.308  0.00  0.00    +0.000 A 
ATOM     12  F   UNL     1       3.375   7.109  18.649  0.00  0.00    +0.000 F 
ATOM     13  C   UNL     1       3.630   4.807  19.194  0.00  0.00    +0.000 A 
ATOM     14  C   UNL     1       3.193   3.710  19.940  0.00  0.00    +0.000 A 
ENDBRANCH   1  13
BRANCH   4  15
ATOM     15  C   UNL     1       7.407   6.200  17.226  0.00  0.00    +0.000 C 
ATOM     16  O   UNL     1       7.692   6.498  16.062  0.00  0.00    +0.000 OA
ATOM     17  N   UNL     1       7.590   7.029  18.320  0.00  0.00    +0.000 N 
ATOM     18  H   UNL     1       7.463   6.624  19.246  0.00  0.00    +0.000 HD
BRANCH  17  19
ATOM     19  C   UNL     1       8.012   8.376  18.267  0.00  0.00    +0.000 A 
ATOM     20  C   UNL     1       7.459   9.310  17.386  0.00  0.00    +0.000 A 
ATOM     21  C   UNL     1       7.944  10.619  17.326  0.00  0.00    +0.000 A 
ATOM     22  C   UNL     1       8.990  11.028  18.158  0.00  0.00    +0.000 A 
ATOM     23  C   UNL     1       9.524  10.102  19.067  0.00  0.00    +0.000 A 
ATOM     24  C   UNL     1       9.028   8.792  19.130  0.00  0.00    +0.000 A 
BRANCH  22  25
ATOM     25  C   UNL     1       9.524  12.437  18.084  0.00  0.00    +0.000 C 
ATOM     26  F   UNL     1      10.671  12.548  17.354  0.00  0.00    +0.000 F 
ATOM     27  F   UNL     1       8.639  13.300  17.514  0.00  0.00    +0.000 F 
ATOM     28  F   UNL     1       9.814  12.952  19.310  0.00  0.00    +0.000 F 
ENDBRANCH  22  25
ENDBRANCH  17  19
ENDBRANCH   4  15
TORSDOF 4
ENDMDL
MODEL 5
REMARK VINA RESULT:      -8.2      1.296      1.668
REMARK  Name = 
REMARK  5 active torsions:
REMARK  status: ('A' for Active; 'I' for Inactive)
REMARK    1  A    between atoms: C_1  and  C_2
REMARK    2  A    between atoms: C_7  and  N_8
REMARK    3  A    between atoms: C_11  and  C_12
REMARK    4  A    between atoms: N_14  and  C_15
REMARK    5  A    between atoms: C_18  and  C_19
REMARK                            x       y       z     vdW  Elec       q    Type
REMARK                         _______ _______ _______ _____ _____    ______ ____
ROOT
ATOM      1  N   UNL     1       4.683   4.536  18.181  0.00  0.00    +0.000 N 
ATOM      2  C   UNL     1       4.633   4.639  16.746  0.00  0.00    +0.000 C 
ATOM      3  C   UNL     1       6.021   4.176  16.336  0.00  0.00    +0.000 C 
ATOM      4  C   UNL     1       6.910   4.699  17.474  0.00  0.00    +0.000 C 
ATOM      5  C   UNL     1       5.989   4.610  18.662  0.00  0.00    +0.000 C 
ATOM      6  O   UNL     1       6.369   4.700  19.823  0.00  0.00    +0.000 OA
ENDROOT
BRANCH   1  13
ATOM      7  C   UNL     1       1.655   7.572  20.582  0.00  0.00    +0.000 C 
ATOM      8  C   UNL     1       2.036   6.178  20.186  0.00  0.00    +0.000 A 
ATOM      9  C   UNL     1       1.348   5.066  20.688  0.00  0.00    +0.000 A 
ATOM     10  C   UNL     1       1.754   3.775  20.348  0.00  0.00    +0.000 A 
ATOM     11  C   UNL     1       2.866   3.593  19.532  0.00  0.00    +0.000 A 
ATOM     12  F   UNL     1       3.220   2.342  19.205  0.00  0.00    +0.000 F 
ATOM     13  C   UNL     1       3.553   4.690  19.001  0.00  0.00    +0.000 A 
ATOM     14  C   UNL     1       3.120   5.980  19.315  0.00  0.00    +0.000 A 
ENDBRANCH   1  13
BRANCH   4  15
ATOM     15  C   UNL     1       7.399   6.103  17.188  0.00  0.00    +0.000 C 
ATOM     16  O   UNL     1       7.706   6.416  16.033  0.00  0.00    +0.000 OA
ATOM     17  N   UNL     1       7.562   6.918  18.295  0.00  0.00    +0.000 N 
ATOM     18  H   UNL     1       7.418   6.502  19.213  0.00  0.00    +0.000 HD
BRANCH  17  19
ATOM     19  C   UNL     1       7.987   8.266  18.267  0.00  0.00    +0.000 A 
ATOM     20  C   UNL     1       7.454   9.210  17.386  0.00  0.00    +0.000 A 
ATOM     21  C   UNL     1       7.942  10.519  17.351  0.00  0.00    +0.000 A 
ATOM     22  C   UNL     1       8.971  10.917  18.210  0.00  0.00    +0.000 A 
ATOM     23  C   UNL     1       9.484   9.980  19.120  0.00  0.00    +0.000 A 
ATOM     24  C   UNL     1       8.986   8.669  19.157  0.00  0.00    +0.000 A 
BRANCH  22  25
ATOM     25  C   UNL     1       9.508  12.326  18.164  0.00  0.00    +0.000 C 
ATOM     26  F   UNL     1       8.573  13.255  17.814  0.00  0.00    +0.000 F 
ATOM     27  F   UNL     1      10.004  12.734  19.365  0.00  0.00    +0.000 F 
ATOM     28  F   UNL     1      10.525  12.470  17.270  0.00  0.00    +0.000 F 
ENDBRANCH  22  25
ENDBRANCH  17  19
ENDBRANCH   4  15
TORSDOF 4
ENDMDL
MODEL 6
REMARK VINA RESULT:      -8.2      1.075      1.662
REMARK  Name = 
REMARK  5 active torsions:
REMARK  status: ('A' for Active; 'I' for Inactive)
REMARK    1  A    between atoms: C_1  and  C_2
REMARK    2  A    between atoms: C_7  and  N_8
REMARK    3  A    between atoms: C_11  and  C_12
REMARK    4  A    between atoms: N_14  and  C_15
REMARK    5  A    between atoms: C_18  and  C_19
REMARK                            x       y       z     vdW  Elec       q    Type
REMARK                         _______ _______ _______ _____ _____    ______ ____
ROOT
ATOM      1  N   UNL     1       5.299   5.391  18.377  0.00  0.00    +0.000 N 
ATOM      2  C   UNL     1       5.244   5.710  16.974  0.00  0.00    +0.000 C 
ATOM      3  C   UNL     1       6.698   5.580  16.552  0.00  0.00    +0.000 C 
ATOM      4  C   UNL     1       7.462   6.069  17.790  0.00  0.00    +0.000 C 
ATOM      5  C   UNL     1       6.564   5.626  18.914  0.00  0.00    +0.000 C 
ATOM      6  O   UNL     1       6.909   5.598  20.089  0.00  0.00    +0.000 OA
ENDROOT
BRANCH   1  13
ATOM      7  C   UNL     1       2.635   2.388  21.213  0.00  0.00    +0.000 C 
ATOM      8  C   UNL     1       2.827   3.735  20.584  0.00  0.00    +0.000 A 
ATOM      9  C   UNL     1       1.857   4.739  20.705  0.00  0.00    +0.000 A 
ATOM     10  C   UNL     1       2.032   5.966  20.066  0.00  0.00    +0.000 A 
ATOM     11  C   UNL     1       3.161   6.183  19.282  0.00  0.00    +0.000 A 
ATOM     12  F   UNL     1       3.313   7.380  18.698  0.00  0.00    +0.000 F 
ATOM     13  C   UNL     1       4.152   5.203  19.167  0.00  0.00    +0.000 A 
ATOM     14  C   UNL     1       3.989   3.989  19.838  0.00  0.00    +0.000 A 
ENDBRANCH   1  13
BRANCH   4  15
ATOM     15  C   UNL     1       7.683   7.567  17.744  0.00  0.00    +0.000 C 
ATOM     16  O   UNL     1       7.183   8.226  16.827  0.00  0.00    +0.000 OA
ATOM     17  N   UNL     1       8.537   8.077  18.706  0.00  0.00    +0.000 N 
ATOM     18  H   UNL     1       9.009   7.413  19.319  0.00  0.00    +0.000 HD
BRANCH  17  19
ATOM     19  C   UNL     1       8.874   9.440  18.866  0.00  0.00    +0.000 A 
ATOM     20  C   UNL     1       8.934  10.336  17.795  0.00  0.00    +0.000 A 
ATOM     21  C   UNL     1       9.326  11.663  17.987  0.00  0.00    +0.000 A 
ATOM     22  C   UNL     1       9.657  12.129  19.263  0.00  0.00    +0.000 A 
ATOM     23  C   UNL     1       9.565  11.240  20.346  0.00  0.00    +0.000 A 
ATOM     24  C   UNL     1       9.163   9.911  20.149  0.00  0.00    +0.000 A 
BRANCH  22  25
ATOM     25  C   UNL     1      10.095  13.558  19.470  0.00  0.00    +0.000 C 
ATOM     26  F   UNL     1      11.225  13.887  18.781  0.00  0.00    +0.000 F 
ATOM     27  F   UNL     1       9.148  14.454  19.078  0.00  0.00    +0.000 F 
ATOM     28  F   UNL     1      10.361  13.840  20.775  0.00  0.00    +0.000 F 
ENDBRANCH  22  25
ENDBRANCH  17  19
ENDBRANCH   4  15
TORSDOF 4
ENDMDL
MODEL 7
REMARK VINA RESULT:      -8.1      1.089      2.031
REMARK  Name = 
REMARK  5 active torsions:
REMARK  status: ('A' for Active; 'I' for Inactive)
REMARK    1  A    between atoms: C_1  and  C_2
REMARK    2  A    between atoms: C_7  and  N_8
REMARK    3  A    between atoms: C_11  and  C_12
REMARK    4  A    between atoms: N_14  and  C_15
REMARK    5  A    between atoms: C_18  and  C_19
REMARK                            x       y       z     vdW  Elec       q    Type
REMARK                         _______ _______ _______ _____ _____    ______ ____
ROOT
ATOM      1  N   UNL     1       5.291   5.235  18.447  0.00  0.00    +0.000 N 
ATOM      2  C   UNL     1       5.268   5.459  17.025  0.00  0.00    +0.000 C 
ATOM      3  C   UNL     1       6.731   5.302  16.644  0.00  0.00    +0.000 C 
ATOM      4  C   UNL     1       7.468   5.875  17.864  0.00  0.00    +0.000 C 
ATOM      5  C   UNL     1       6.544   5.507  18.995  0.00  0.00    +0.000 C 
ATOM      6  O   UNL     1       6.863   5.559  20.176  0.00  0.00    +0.000 OA
ENDROOT
BRANCH   1  13
ATOM      7  C   UNL     1       2.492   2.376  21.300  0.00  0.00    +0.000 C 
ATOM      8  C   UNL     1       2.736   3.703  20.647  0.00  0.00    +0.000 A 
ATOM      9  C   UNL     1       1.796   4.739  20.732  0.00  0.00    +0.000 A 
ATOM     10  C   UNL     1       2.019   5.947  20.072  0.00  0.00    +0.000 A 
ATOM     11  C   UNL     1       3.166   6.112  19.302  0.00  0.00    +0.000 A 
ATOM     12  F   UNL     1       3.364   7.291  18.696  0.00  0.00    +0.000 F 
ATOM     13  C   UNL     1       4.128   5.099  19.222  0.00  0.00    +0.000 A 
ATOM     14  C   UNL     1       3.916   3.905  19.915  0.00  0.00    +0.000 A 
ENDBRANCH   1  13
BRANCH   4  15
ATOM     15  C   UNL     1       7.690   7.366  17.721  0.00  0.00    +0.000 C 
ATOM     16  O   UNL     1       7.259   7.952  16.723  0.00  0.00    +0.000 OA
ATOM     17  N   UNL     1       8.469   7.953  18.704  0.00  0.00    +0.000 N 
ATOM     18  H   UNL     1       8.893   7.340  19.398  0.00  0.00    +0.000 HD
BRANCH  17  19
ATOM     19  C   UNL     1       8.791   9.326  18.785  0.00  0.00    +0.000 A 
ATOM     20  C   UNL     1       9.426   9.892  19.894  0.00  0.00    +0.000 A 
ATOM     21  C   UNL     1       9.675  11.265  19.959  0.00  0.00    +0.000 A 
ATOM     22  C   UNL     1       9.305  12.105  18.906  0.00  0.00    +0.000 A 
ATOM     23  C   UNL     1       8.698  11.535  17.776  0.00  0.00    +0.000 A 
ATOM     24  C   UNL     1       8.456  10.155  17.711  0.00  0.00    +0.000 A 
BRANCH  22  25
ATOM     25  C   UNL     1       9.561  13.590  18.981  0.00  0.00    +0.000 C 
ATOM     26  F   UNL     1       8.604  14.274  19.671  0.00  0.00    +0.000 F 
ATOM     27  F   UNL     1      10.741  13.885  19.593  0.00  0.00    +0.000 F 
ATOM     28  F   UNL     1       9.620  14.174  17.752  0.00  0.00    +0.000 F 
ENDBRANCH  22  25
ENDBRANCH  17  19
ENDBRANCH   4  15
TORSDOF 4
ENDMDL
MODEL 8
REMARK VINA RESULT:      -8.1      1.584      2.353
REMARK  Name = 
REMARK  5 active torsions:
REMARK  status: ('A' for Active; 'I' for Inactive)
REMARK    1  A    between atoms: C_1  and  C_2
REMARK    2  A    between atoms: C_7  and  N_8
REMARK    3  A    between atoms: C_11  and  C_12
REMARK    4  A    between atoms: N_14  and  C_15
REMARK    5  A    between atoms: C_18  and  C_19
REMARK                            x       y       z     vdW  Elec       q    Type
REMARK                         _______ _______ _______ _____ _____    ______ ____
ROOT
ATOM      1  N   UNL     1       4.576   4.678  18.156  0.00  0.00    +0.000 N 
ATOM      2  C   UNL     1       4.460   4.878  16.735  0.00  0.00    +0.000 C 
ATOM      3  C   UNL     1       5.775   4.321  16.217  0.00  0.00    +0.000 C 
ATOM      4  C   UNL     1       6.768   4.688  17.330  0.00  0.00    +0.000 C 
ATOM      5  C   UNL     1       5.908   4.605  18.563  0.00  0.00    +0.000 C 
ATOM      6  O   UNL     1       6.356   4.586  19.702  0.00  0.00    +0.000 OA
ENDROOT
BRANCH   1  13
ATOM      7  C   UNL     1       1.368   2.724  21.325  0.00  0.00    +0.000 C 
ATOM      8  C   UNL     1       1.924   3.931  20.631  0.00  0.00    +0.000 A 
ATOM      9  C   UNL     1       1.346   5.196  20.798  0.00  0.00    +0.000 A 
ATOM     10  C   UNL     1       1.846   6.296  20.101  0.00  0.00    +0.000 A 
ATOM     11  C   UNL     1       2.904   6.128  19.214  0.00  0.00    +0.000 A 
ATOM     12  F   UNL     1       3.378   7.207  18.574  0.00  0.00    +0.000 F 
ATOM     13  C   UNL     1       3.511   4.879  19.050  0.00  0.00    +0.000 A 
ATOM     14  C   UNL     1       3.029   3.788  19.778  0.00  0.00    +0.000 A 
ENDBRANCH   1  13
BRANCH   4  15
ATOM     15  C   UNL     1       7.368   6.060  17.099  0.00  0.00    +0.000 C 
ATOM     16  O   UNL     1       7.810   6.349  15.982  0.00  0.00    +0.000 OA
ATOM     17  N   UNL     1       7.467   6.867  18.219  0.00  0.00    +0.000 N 
ATOM     18  H   UNL     1       7.206   6.463  19.117  0.00  0.00    +0.000 HD
BRANCH  17  19
ATOM     19  C   UNL     1       7.975   8.186  18.238  0.00  0.00    +0.000 A 
ATOM     20  C   UNL     1       8.990   8.595  19.107  0.00  0.00    +0.000 A 
ATOM     21  C   UNL     1       9.424   9.923  19.134  0.00  0.00    +0.000 A 
ATOM     22  C   UNL     1       8.858  10.872  18.279  0.00  0.00    +0.000 A 
ATOM     23  C   UNL     1       7.862  10.457  17.381  0.00  0.00    +0.000 A 
ATOM     24  C   UNL     1       7.435   9.121  17.352  0.00  0.00    +0.000 A 
BRANCH  22  25
ATOM     25  C   UNL     1       9.315  12.310  18.317  0.00  0.00    +0.000 C 
ATOM     26  F   UNL     1       9.091  12.984  17.153  0.00  0.00    +0.000 F 
ATOM     27  F   UNL     1       8.691  13.030  19.289  0.00  0.00    +0.000 F 
ATOM     28  F   UNL     1      10.649  12.428  18.562  0.00  0.00    +0.000 F 
ENDBRANCH  22  25
ENDBRANCH  17  19
ENDBRANCH   4  15
TORSDOF 4
ENDMDL
MODEL 9
REMARK VINA RESULT:      -8.1      1.464      2.119
REMARK  Name = 
REMARK  5 active torsions:
REMARK  status: ('A' for Active; 'I' for Inactive)
REMARK    1  A    between atoms: C_1  and  C_2
REMARK    2  A    between atoms: C_7  and  N_8
REMARK    3  A    between atoms: C_11  and  C_12
REMARK    4  A    between atoms: N_14  and  C_15
REMARK    5  A    between atoms: C_18  and  C_19
REMARK                            x       y       z     vdW  Elec       q    Type
REMARK                         _______ _______ _______ _____ _____    ______ ____
ROOT
ATOM      1  N   UNL     1       5.506   5.211  17.587  0.00  0.00    +0.000 N 
ATOM      2  C   UNL     1       5.960   5.535  16.260  0.00  0.00    +0.000 C 
ATOM      3  C   UNL     1       7.469   5.582  16.433  0.00  0.00    +0.000 C 
ATOM      4  C   UNL     1       7.636   6.146  17.852  0.00  0.00    +0.000 C 
ATOM      5  C   UNL     1       6.431   5.588  18.560  0.00  0.00    +0.000 C 
ATOM      6  O   UNL     1       6.297   5.589  19.777  0.00  0.00    +0.000 OA
ENDROOT
BRANCH   1  13
ATOM      7  C   UNL     1       2.199   1.714  18.584  0.00  0.00    +0.000 C 
ATOM      8  C   UNL     1       2.524   3.165  18.390  0.00  0.00    +0.000 A 
ATOM      9  C   UNL     1       1.523   4.144  18.415  0.00  0.00    +0.000 A 
ATOM     10  C   UNL     1       1.841   5.481  18.179  0.00  0.00    +0.000 A 
ATOM     11  C   UNL     1       3.154   5.838  17.889  0.00  0.00    +0.000 A 
ATOM     12  F   UNL     1       3.434   7.134  17.688  0.00  0.00    +0.000 F 
ATOM     13  C   UNL     1       4.172   4.880  17.883  0.00  0.00    +0.000 A 
ATOM     14  C   UNL     1       3.854   3.548  18.156  0.00  0.00    +0.000 A 
ENDBRANCH   1  13
BRANCH   4  15
ATOM     15  C   UNL     1       7.687   7.660  17.839  0.00  0.00    +0.000 C 
ATOM     16  O   UNL     1       6.953   8.286  17.068  0.00  0.00    +0.000 OA
ATOM     17  N   UNL     1       8.654   8.234  18.646  0.00  0.00    +0.000 N 
ATOM     18  H   UNL     1       9.302   7.609  19.125  0.00  0.00    +0.000 HD
BRANCH  17  19
ATOM     19  C   UNL     1       8.872   9.621  18.807  0.00  0.00    +0.000 A 
ATOM     20  C   UNL     1       8.720  10.538  17.764  0.00  0.00    +0.000 A 
ATOM     21  C   UNL     1       9.000  11.894  17.950  0.00  0.00    +0.000 A 
ATOM     22  C   UNL     1       9.429  12.367  19.193  0.00  0.00    +0.000 A 
ATOM     23  C   UNL     1       9.550  11.453  20.253  0.00  0.00    +0.000 A 
ATOM     24  C   UNL     1       9.259  10.094  20.063  0.00  0.00    +0.000 A 
BRANCH  22  25
ATOM     25  C   UNL     1       9.745  13.829  19.392  0.00  0.00    +0.000 C 
ATOM     26  F   UNL     1      10.220  14.119  20.637  0.00  0.00    +0.000 F 
ATOM     27  F   UNL     1      10.688  14.280  18.521  0.00  0.00    +0.000 F 
ATOM     28  F   UNL     1       8.658  14.628  19.215  0.00  0.00    +0.000 F 
ENDBRANCH  22  25
ENDBRANCH  17  19
ENDBRANCH   4  15
TORSDOF 4
ENDMDL
