MODEL 1
REMARK VINA RESULT:      -8.9      0.000      0.000
REMARK  Name = 
REMARK  6 active torsions:
REMARK  status: ('A' for Active; 'I' for Inactive)
REMARK    1  A    between atoms: C_2  and  C_25
REMARK    2  A    between atoms: N_3  and  C_4
REMARK    3  A    between atoms: C_8  and  C_9
REMARK    4  A    between atoms: C_9  and  N_10
REMARK    5  A    between atoms: C_13  and  C_14
REMARK    6  A    between atoms: N_16  and  C_17
REMARK                            x       y       z     vdW  Elec       q    Type
REMARK                         _______ _______ _______ _____ _____    ______ ____
ROOT
ATOM      1  C   UNL     1       1.216   8.557  20.050  0.00  0.00    +0.000 A 
ATOM      2  C   UNL     1       2.021   8.705  18.918  0.00  0.00    +0.000 A 
ATOM      3  C   UNL     1       2.813   7.640  18.474  0.00  0.00    +0.000 A 
ATOM      4  C   UNL     1       2.745   6.395  19.104  0.00  0.00    +0.000 A 
ATOM      5  C   UNL     1       1.890   6.199  20.199  0.00  0.00    +0.000 A 
ATOM      6  C   UNL     1       1.160   7.301  20.686  0.00  0.00    +0.000 A 
ENDROOT
BRANCH   1   9
ATOM      7  O   UNL     1       1.290   9.584  22.690  0.00  0.00    +0.000 OA
ATOM      8  C   UNL     1       0.555  10.103  21.851  0.00  0.00    +0.000 C 
ATOM      9  N   UNL     1       0.480   9.681  20.522  0.00  0.00    +0.000 N 
ATOM     10  H   UNL     1       0.129  10.351  19.855  0.00  0.00    +0.000 HD
BRANCH   8  11
ATOM     11  C   UNL     1      -0.237  11.315  22.261  0.00  0.00    +0.000 A 
ATOM     12  C   UNL     1      -1.422  11.087  22.979  0.00  0.00    +0.000 A 
ATOM     13  C   UNL     1      -2.250  12.150  23.302  0.00  0.00    +0.000 A 
ATOM     14  C   UNL     1      -1.885  13.423  22.889  0.00  0.00    +0.000 A 
ATOM     15  F   UNL     1      -2.679  14.472  23.146  0.00  0.00    +0.000 F 
ATOM     16  C   UNL     1      -0.692  13.577  22.188  0.00  0.00    +0.000 A 
ATOM     17  N   UNL     1       0.171  12.555  21.874  0.00  0.00    +0.000 NA
ENDBRANCH   8  11
ENDBRANCH   1   9
BRANCH   5  18
ATOM     18  C   UNL     1       1.788   4.820  20.839  0.00  0.00    +0.000 C 
BRANCH  18  19
ATOM     19  N   UNL     1       2.117   3.678  19.944  0.00  0.00    +0.000 NA
ATOM     20  C   UNL     1       1.916   4.039  18.534  0.00  0.00    +0.000 C 
ATOM     21  C   UNL     1       2.301   2.891  17.596  0.00  0.00    +0.000 C 
ATOM     22  C   UNL     1       3.778   2.519  17.744  0.00  0.00    +0.000 C 
ATOM     23  C   UNL     1       4.049   2.202  19.219  0.00  0.00    +0.000 C 
ATOM     24  C   UNL     1       3.513   3.261  20.195  0.00  0.00    +0.000 C 
BRANCH  22  25
ATOM     25  C   UNL     1       4.693   3.605  17.142  0.00  0.00    +0.000 C 
ATOM     26  O   UNL     1       4.735   3.866  15.945  0.00  0.00    +0.000 OA
ATOM     27  N   UNL     1       5.486   4.240  18.084  0.00  0.00    +0.000 N 
ATOM     28  H   UNL     1       5.448   3.890  19.032  0.00  0.00    +0.000 HD
BRANCH  27  29
ATOM     29  C   UNL     1       6.584   5.144  17.757  0.00  0.00    +0.000 C 
ATOM     30  C   UNL     1       6.180   6.499  17.173  0.00  0.00    +0.000 C 
ATOM     31  C   UNL     1       7.407   7.385  17.403  0.00  0.00    +0.000 C 
ATOM     32  C   UNL     1       8.106   6.827  18.640  0.00  0.00    +0.000 C 
ATOM     33  C   UNL     1       7.348   5.560  19.017  0.00  0.00    +0.000 C 
ENDBRANCH  27  29
ENDBRANCH  22  25
ENDBRANCH  18  19
ENDBRANCH   5  18
TORSDOF 6
ENDMDL
MODEL 2
REMARK VINA RESULT:      -8.8      4.601      9.720
REMARK  Name = 
REMARK  6 active torsions:
REMARK  status: ('A' for Active; 'I' for Inactive)
REMARK    1  A    between atoms: C_2  and  C_25
REMARK    2  A    between atoms: N_3  and  C_4
REMARK    3  A    between atoms: C_8  and  C_9
REMARK    4  A    between atoms: C_9  and  N_10
REMARK    5  A    between atoms: C_13  and  C_14
REMARK    6  A    between atoms: N_16  and  C_17
REMARK                            x       y       z     vdW  Elec       q    Type
REMARK                         _______ _______ _______ _____ _____    ______ ____
ROOT
ATOM      1  C   UNL     1       3.324   4.435  18.599  0.00  0.00    +0.000 A 
ATOM      2  C   UNL     1       3.318   3.239  19.320  0.00  0.00    +0.000 A 
ATOM      3  C   UNL     1       2.771   3.196  20.608  0.00  0.00    +0.000 A 
ATOM      4  C   UNL     1       2.152   4.324  21.152  0.00  0.00    +0.000 A 
ATOM      5  C   UNL     1       2.080   5.518  20.420  0.00  0.00    +0.000 A 
ATOM      6  C   UNL     1       2.705   5.570  19.159  0.00  0.00    +0.000 A 
ENDROOT
BRANCH   1   9
ATOM      7  O   UNL     1       6.035   5.101  18.118  0.00  0.00    +0.000 OA
ATOM      8  C   UNL     1       5.293   4.834  17.173  0.00  0.00    +0.000 C 
ATOM      9  N   UNL     1       3.954   4.465  17.323  0.00  0.00    +0.000 N 
ATOM     10  H   UNL     1       3.540   3.952  16.560  0.00  0.00    +0.000 HD
BRANCH   8  11
ATOM     11  C   UNL     1       5.888   4.816  15.791  0.00  0.00    +0.000 A 
ATOM     12  C   UNL     1       5.204   4.076  14.814  0.00  0.00    +0.000 A 
ATOM     13  C   UNL     1       5.747   3.935  13.547  0.00  0.00    +0.000 A 
ATOM     14  C   UNL     1       6.974   4.526  13.283  0.00  0.00    +0.000 A 
ATOM     15  F   UNL     1       7.553   4.379  12.083  0.00  0.00    +0.000 F 
ATOM     16  C   UNL     1       7.593   5.253  14.298  0.00  0.00    +0.000 A 
ATOM     17  N   UNL     1       7.075   5.441  15.555  0.00  0.00    +0.000 NA
ENDBRANCH   8  11
ENDBRANCH   1   9
BRANCH   5  18
ATOM     18  C   UNL     1       1.352   6.721  21.008  0.00  0.00    +0.000 C 
BRANCH  18  19
ATOM     19  N   UNL     1       1.722   8.036  20.421  0.00  0.00    +0.000 NA
ATOM     20  C   UNL     1       1.223   8.158  19.045  0.00  0.00    +0.000 C 
ATOM     21  C   UNL     1       1.551   9.528  18.443  0.00  0.00    +0.000 C 
ATOM     22  C   UNL     1       0.902  10.660  19.243  0.00  0.00    +0.000 C 
ATOM     23  C   UNL     1       1.342  10.528  20.706  0.00  0.00    +0.000 C 
ATOM     24  C   UNL     1       1.186   9.112  21.281  0.00  0.00    +0.000 C 
BRANCH  22  25
ATOM     25  C   UNL     1      -0.626  10.692  19.033  0.00  0.00    +0.000 C 
ATOM     26  O   UNL     1      -1.432  10.796  19.950  0.00  0.00    +0.000 OA
ATOM     27  N   UNL     1      -1.000  10.564  17.705  0.00  0.00    +0.000 N 
ATOM     28  H   UNL     1      -0.267  10.389  17.032  0.00  0.00    +0.000 HD
BRANCH  27  29
ATOM     29  C   UNL     1      -2.372  10.349  17.257  0.00  0.00    +0.000 C 
ATOM     30  C   UNL     1      -3.313  11.547  17.391  0.00  0.00    +0.000 C 
ATOM     31  C   UNL     1      -4.460  11.231  16.427  0.00  0.00    +0.000 C 
ATOM     32  C   UNL     1      -3.861  10.355  15.330  0.00  0.00    +0.000 C 
ATOM     33  C   UNL     1      -2.423  10.076  15.751  0.00  0.00    +0.000 C 
ENDBRANCH  27  29
ENDBRANCH  22  25
ENDBRANCH  18  19
ENDBRANCH   5  18
TORSDOF 6
ENDMDL
MODEL 3
REMARK VINA RESULT:      -8.8      1.849      2.586
REMARK  Name = 
REMARK  6 active torsions:
REMARK  status: ('A' for Active; 'I' for Inactive)
REMARK    1  A    between atoms: C_2  and  C_25
REMARK    2  A    between atoms: N_3  and  C_4
REMARK    3  A    between atoms: C_8  and  C_9
REMARK    4  A    between atoms: C_9  and  N_10
REMARK    5  A    between atoms: C_13  and  C_14
REMARK    6  A    between atoms: N_16  and  C_17
REMARK                            x       y       z     vdW  Elec       q    Type
REMARK                         _______ _______ _______ _____ _____    ______ ____
ROOT
ATOM      1  C   UNL     1      -0.047  10.377  20.223  0.00  0.00    +0.000 A 
ATOM      2  C   UNL     1       0.045  10.726  18.873  0.00  0.00    +0.000 A 
ATOM      3  C   UNL     1       0.905  10.024  18.021  0.00  0.00    +0.000 A 
ATOM      4  C   UNL     1       1.618   8.918  18.489  0.00  0.00    +0.000 A 
ATOM      5  C   UNL     1       1.488   8.501  19.822  0.00  0.00    +0.000 A 
ATOM      6  C   UNL     1       0.681   9.265  20.688  0.00  0.00    +0.000 A 
ENDROOT
BRANCH   1   9
ATOM      7  O   UNL     1       0.788  12.647  21.697  0.00  0.00    +0.000 OA
ATOM      8  C   UNL     1      -0.372  12.246  21.793  0.00  0.00    +0.000 C 
ATOM      9  N   UNL     1      -0.875  11.157  21.080  0.00  0.00    +0.000 N 
ATOM     10  H   UNL     1      -1.876  11.116  20.963  0.00  0.00    +0.000 HD
BRANCH   8  11
ATOM     11  C   UNL     1      -1.320  13.032  22.658  0.00  0.00    +0.000 A 
ATOM     12  C   UNL     1      -0.855  14.257  23.161  0.00  0.00    +0.000 A 
ATOM     13  C   UNL     1      -1.637  14.984  24.044  0.00  0.00    +0.000 A 
ATOM     14  C   UNL     1      -2.868  14.466  24.419  0.00  0.00    +0.000 A 
ATOM     15  F   UNL     1      -3.637  15.118  25.302  0.00  0.00    +0.000 F 
ATOM     16  C   UNL     1      -3.270  13.249  23.874  0.00  0.00    +0.000 A 
ATOM     17  N   UNL     1      -2.539  12.513  22.975  0.00  0.00    +0.000 NA
ENDBRANCH   8  11
ENDBRANCH   1   9
BRANCH   5  18
ATOM     18  C   UNL     1       2.230   7.258  20.300  0.00  0.00    +0.000 C 
BRANCH  18  19
ATOM     19  N   UNL     1       1.717   5.968  19.767  0.00  0.00    +0.000 NA
ATOM     20  C   UNL     1       2.073   5.805  18.351  0.00  0.00    +0.000 C 
ATOM     21  C   UNL     1       1.597   4.457  17.800  0.00  0.00    +0.000 C 
ATOM     22  C   UNL     1       2.241   3.288  18.549  0.00  0.00    +0.000 C 
ATOM     23  C   UNL     1       1.953   3.457  20.045  0.00  0.00    +0.000 C 
ATOM     24  C   UNL     1       2.259   4.863  20.586  0.00  0.00    +0.000 C 
BRANCH  22  25
ATOM     25  C   UNL     1       3.736   3.149  18.194  0.00  0.00    +0.000 C 
ATOM     26  O   UNL     1       4.569   2.669  18.954  0.00  0.00    +0.000 OA
ATOM     27  N   UNL     1       4.052   3.648  16.941  0.00  0.00    +0.000 N 
ATOM     28  H   UNL     1       3.314   4.110  16.427  0.00  0.00    +0.000 HD
BRANCH  27  29
ATOM     29  C   UNL     1       5.414   3.836  16.452  0.00  0.00    +0.000 C 
ATOM     30  C   UNL     1       5.558   4.050  14.945  0.00  0.00    +0.000 C 
ATOM     31  C   UNL     1       6.935   4.701  14.791  0.00  0.00    +0.000 C 
ATOM     32  C   UNL     1       7.194   5.458  16.091  0.00  0.00    +0.000 C 
ATOM     33  C   UNL     1       6.028   5.121  17.013  0.00  0.00    +0.000 C 
ENDBRANCH  27  29
ENDBRANCH  22  25
ENDBRANCH  18  19
ENDBRANCH   5  18
TORSDOF 6
ENDMDL
MODEL 4
REMARK VINA RESULT:      -8.7      2.577      3.980
REMARK  Name = 
REMARK  6 active torsions:
REMARK  status: ('A' for Active; 'I' for Inactive)
REMARK    1  A    between atoms: C_2  and  C_25
REMARK    2  A    between atoms: N_3  and  C_4
REMARK    3  A    between atoms: C_8  and  C_9
REMARK    4  A    between atoms: C_9  and  N_10
REMARK    5  A    between atoms: C_13  and  C_14
REMARK    6  A    between atoms: N_16  and  C_17
REMARK                            x       y       z     vdW  Elec       q    Type
REMARK                         _______ _______ _______ _____ _____    ______ ____
ROOT
ATOM      1  C   UNL     1       1.344   8.747  19.941  0.00  0.00    +0.000 A 
ATOM      2  C   UNL     1       1.226   7.704  20.863  0.00  0.00    +0.000 A 
ATOM      3  C   UNL     1       1.811   6.461  20.598  0.00  0.00    +0.000 A 
ATOM      4  C   UNL     1       2.586   6.273  19.451  0.00  0.00    +0.000 A 
ATOM      5  C   UNL     1       2.781   7.325  18.545  0.00  0.00    +0.000 A 
ATOM      6  C   UNL     1       2.121   8.546  18.783  0.00  0.00    +0.000 A 
ENDROOT
BRANCH   1   9
ATOM      7  O   UNL     1       1.092   9.973  22.483  0.00  0.00    +0.000 OA
ATOM      8  C   UNL     1       0.573  10.495  21.496  0.00  0.00    +0.000 C 
ATOM      9  N   UNL     1       0.675   9.976  20.204  0.00  0.00    +0.000 N 
ATOM     10  H   UNL     1       0.522  10.622  19.445  0.00  0.00    +0.000 HD
BRANCH   8  11
ATOM     11  C   UNL     1      -0.130  11.812  21.684  0.00  0.00    +0.000 A 
ATOM     12  C   UNL     1      -1.255  11.818  22.523  0.00  0.00    +0.000 A 
ATOM     13  C   UNL     1      -2.009  12.972  22.662  0.00  0.00    +0.000 A 
ATOM     14  C   UNL     1      -1.630  14.099  21.948  0.00  0.00    +0.000 A 
ATOM     15  F   UNL     1      -2.355  15.225  22.023  0.00  0.00    +0.000 F 
ATOM     16  C   UNL     1      -0.497  14.025  21.141  0.00  0.00    +0.000 A 
ATOM     17  N   UNL     1       0.292  12.911  20.999  0.00  0.00    +0.000 NA
ENDBRANCH   8  11
ENDBRANCH   1   9
BRANCH   5  18
ATOM     18  C   UNL     1       3.676   7.118  17.329  0.00  0.00    +0.000 C 
BRANCH  18  19
ATOM     19  N   UNL     1       4.829   6.201  17.537  0.00  0.00    +0.000 NA
ATOM     20  C   UNL     1       4.639   4.942  16.806  0.00  0.00    +0.000 C 
ATOM     21  C   UNL     1       5.842   4.006  16.969  0.00  0.00    +0.000 C 
ATOM     22  C   UNL     1       7.121   4.641  16.419  0.00  0.00    +0.000 C 
ATOM     23  C   UNL     1       7.321   5.996  17.107  0.00  0.00    +0.000 C 
ATOM     24  C   UNL     1       6.068   6.886  17.111  0.00  0.00    +0.000 C 
BRANCH  22  25
ATOM     25  C   UNL     1       7.101   4.700  14.878  0.00  0.00    +0.000 C 
ATOM     26  O   UNL     1       7.636   5.592  14.229  0.00  0.00    +0.000 OA
ATOM     27  N   UNL     1       6.394   3.660  14.297  0.00  0.00    +0.000 N 
ATOM     28  H   UNL     1       5.909   3.027  14.918  0.00  0.00    +0.000 HD
BRANCH  27  29
ATOM     29  C   UNL     1       6.041   3.597  12.882  0.00  0.00    +0.000 C 
ATOM     30  C   UNL     1       6.343   2.275  12.177  0.00  0.00    +0.000 C 
ATOM     31  C   UNL     1       5.452   2.302  10.933  0.00  0.00    +0.000 C 
ATOM     32  C   UNL     1       4.245   3.163  11.296  0.00  0.00    +0.000 C 
ATOM     33  C   UNL     1       4.527   3.719  12.687  0.00  0.00    +0.000 C 
ENDBRANCH  27  29
ENDBRANCH  22  25
ENDBRANCH  18  19
ENDBRANCH   5  18
TORSDOF 6
ENDMDL
MODEL 5
REMARK VINA RESULT:      -8.7      4.334      9.602
REMARK  Name = 
REMARK  6 active torsions:
REMARK  status: ('A' for Active; 'I' for Inactive)
REMARK    1  A    between atoms: C_2  and  C_25
REMARK    2  A    between atoms: N_3  and  C_4
REMARK    3  A    between atoms: C_8  and  C_9
REMARK    4  A    between atoms: C_9  and  N_10
REMARK    5  A    between atoms: C_13  and  C_14
REMARK    6  A    between atoms: N_16  and  C_17
REMARK                            x       y       z     vdW  Elec       q    Type
REMARK                         _______ _______ _______ _____ _____    ______ ____
ROOT
ATOM      1  C   UNL     1       2.900   5.271  18.288  0.00  0.00    +0.000 A 
ATOM      2  C   UNL     1       2.182   4.142  18.691  0.00  0.00    +0.000 A 
ATOM      3  C   UNL     1       1.498   4.143  19.912  0.00  0.00    +0.000 A 
ATOM      4  C   UNL     1       1.456   5.296  20.700  0.00  0.00    +0.000 A 
ATOM      5  C   UNL     1       2.109   6.466  20.283  0.00  0.00    +0.000 A 
ATOM      6  C   UNL     1       2.860   6.426  19.093  0.00  0.00    +0.000 A 
ENDROOT
BRANCH   1   9
ATOM      7  O   UNL     1       5.674   4.731  18.089  0.00  0.00    +0.000 OA
ATOM      8  C   UNL     1       5.022   4.968  17.073  0.00  0.00    +0.000 C 
ATOM      9  N   UNL     1       3.647   5.213  17.077  0.00  0.00    +0.000 N 
ATOM     10  H   UNL     1       3.160   5.061  16.208  0.00  0.00    +0.000 HD
BRANCH   8  11
ATOM     11  C   UNL     1       5.731   4.900  15.748  0.00  0.00    +0.000 A 
ATOM     12  C   UNL     1       5.103   4.170  14.727  0.00  0.00    +0.000 A 
ATOM     13  C   UNL     1       5.745   3.983  13.514  0.00  0.00    +0.000 A 
ATOM     14  C   UNL     1       7.013   4.520  13.347  0.00  0.00    +0.000 A 
ATOM     15  F   UNL     1       7.686   4.327  12.203  0.00  0.00    +0.000 F 
ATOM     16  C   UNL     1       7.573   5.240  14.399  0.00  0.00    +0.000 A 
ATOM     17  N   UNL     1       6.958   5.474  15.604  0.00  0.00    +0.000 NA
ENDBRANCH   8  11
ENDBRANCH   1   9
BRANCH   5  18
ATOM     18  C   UNL     1       2.005   7.729  21.129  0.00  0.00    +0.000 C 
BRANCH  18  19
ATOM     19  N   UNL     1       0.799   8.563  20.880  0.00  0.00    +0.000 NA
ATOM     20  C   UNL     1       0.597   9.534  21.964  0.00  0.00    +0.000 C 
ATOM     21  C   UNL     1      -0.612  10.436  21.697  0.00  0.00    +0.000 C 
ATOM     22  C   UNL     1      -0.430  11.249  20.414  0.00  0.00    +0.000 C 
ATOM     23  C   UNL     1      -0.146  10.275  19.263  0.00  0.00    +0.000 C 
ATOM     24  C   UNL     1       0.948   9.242  19.575  0.00  0.00    +0.000 C 
BRANCH  22  25
ATOM     25  C   UNL     1       0.629  12.356  20.594  0.00  0.00    +0.000 C 
ATOM     26  O   UNL     1       0.876  12.885  21.672  0.00  0.00    +0.000 OA
ATOM     27  N   UNL     1       1.256  12.715  19.412  0.00  0.00    +0.000 N 
ATOM     28  H   UNL     1       0.917  12.288  18.561  0.00  0.00    +0.000 HD
BRANCH  27  29
ATOM     29  C   UNL     1       2.132  13.872  19.268  0.00  0.00    +0.000 C 
ATOM     30  C   UNL     1       3.124  13.817  18.104  0.00  0.00    +0.000 C 
ATOM     31  C   UNL     1       3.522  15.278  17.884  0.00  0.00    +0.000 C 
ATOM     32  C   UNL     1       2.331  16.116  18.342  0.00  0.00    +0.000 C 
ATOM     33  C   UNL     1       1.329  15.133  18.937  0.00  0.00    +0.000 C 
ENDBRANCH  27  29
ENDBRANCH  22  25
ENDBRANCH  18  19
ENDBRANCH   5  18
TORSDOF 6
ENDMDL
MODEL 6
REMARK VINA RESULT:      -8.6      1.761      2.330
REMARK  Name = 
REMARK  6 active torsions:
REMARK  status: ('A' for Active; 'I' for Inactive)
REMARK    1  A    between atoms: C_2  and  C_25
REMARK    2  A    between atoms: N_3  and  C_4
REMARK    3  A    between atoms: C_8  and  C_9
REMARK    4  A    between atoms: C_9  and  N_10
REMARK    5  A    between atoms: C_13  and  C_14
REMARK    6  A    between atoms: N_16  and  C_17
REMARK                            x       y       z     vdW  Elec       q    Type
REMARK                         _______ _______ _______ _____ _____    ______ ____
ROOT
ATOM      1  C   UNL     1      -0.166  10.172  19.893  0.00  0.00    +0.000 A 
ATOM      2  C   UNL     1       0.195  10.508  18.586  0.00  0.00    +0.000 A 
ATOM      3  C   UNL     1       1.235   9.824  17.946  0.00  0.00    +0.000 A 
ATOM      4  C   UNL     1       1.867   8.748  18.573  0.00  0.00    +0.000 A 
ATOM      5  C   UNL     1       1.474   8.343  19.857  0.00  0.00    +0.000 A 
ATOM      6  C   UNL     1       0.482   9.091  20.521  0.00  0.00    +0.000 A 
ENDROOT
BRANCH   1   9
ATOM      7  O   UNL     1       0.272  12.065  21.955  0.00  0.00    +0.000 OA
ATOM      8  C   UNL     1      -0.874  11.828  21.574  0.00  0.00    +0.000 C 
ATOM      9  N   UNL     1      -1.176  10.935  20.544  0.00  0.00    +0.000 N 
ATOM     10  H   UNL     1      -2.067  11.058  20.088  0.00  0.00    +0.000 HD
BRANCH   8  11
ATOM     11  C   UNL     1      -1.999  12.612  22.192  0.00  0.00    +0.000 A 
ATOM     12  C   UNL     1      -2.633  12.044  23.309  0.00  0.00    +0.000 A 
ATOM     13  C   UNL     1      -3.739  12.664  23.867  0.00  0.00    +0.000 A 
ATOM     14  C   UNL     1      -4.201  13.837  23.290  0.00  0.00    +0.000 A 
ATOM     15  F   UNL     1      -5.292  14.446  23.774  0.00  0.00    +0.000 F 
ATOM     16  C   UNL     1      -3.519  14.350  22.189  0.00  0.00    +0.000 A 
ATOM     17  N   UNL     1      -2.402  13.783  21.625  0.00  0.00    +0.000 NA
ENDBRANCH   8  11
ENDBRANCH   1   9
BRANCH   5  18
ATOM     18  C   UNL     1       2.137   7.132  20.502  0.00  0.00    +0.000 C 
BRANCH  18  19
ATOM     19  N   UNL     1       1.596   5.812  20.080  0.00  0.00    +0.000 NA
ATOM     20  C   UNL     1       2.029   5.478  18.717  0.00  0.00    +0.000 C 
ATOM     21  C   UNL     1       1.523   4.098  18.285  0.00  0.00    +0.000 C 
ATOM     22  C   UNL     1       2.064   2.994  19.196  0.00  0.00    +0.000 C 
ATOM     23  C   UNL     1       1.694   3.340  20.643  0.00  0.00    +0.000 C 
ATOM     24  C   UNL     1       2.034   4.784  21.047  0.00  0.00    +0.000 C 
BRANCH  22  25
ATOM     25  C   UNL     1       3.569   2.756  18.958  0.00  0.00    +0.000 C 
ATOM     26  O   UNL     1       4.171   1.770  19.368  0.00  0.00    +0.000 OA
ATOM     27  N   UNL     1       4.183   3.781  18.257  0.00  0.00    +0.000 N 
ATOM     28  H   UNL     1       3.624   4.596  18.043  0.00  0.00    +0.000 HD
BRANCH  27  29
ATOM     29  C   UNL     1       5.627   3.909  18.086  0.00  0.00    +0.000 C 
ATOM     30  C   UNL     1       6.108   4.195  16.663  0.00  0.00    +0.000 C 
ATOM     31  C   UNL     1       7.515   4.765  16.852  0.00  0.00    +0.000 C 
ATOM     32  C   UNL     1       7.521   5.432  18.225  0.00  0.00    +0.000 C 
ATOM     33  C   UNL     1       6.167   5.120  18.851  0.00  0.00    +0.000 C 
ENDBRANCH  27  29
ENDBRANCH  22  25
ENDBRANCH  18  19
ENDBRANCH   5  18
TORSDOF 6
ENDMDL
MODEL 7
REMARK VINA RESULT:      -8.6      2.548      4.214
REMARK  Name = 
REMARK  6 active torsions:
REMARK  status: ('A' for Active; 'I' for Inactive)
REMARK    1  A    between atoms: C_2  and  C_25
REMARK    2  A    between atoms: N_3  and  C_4
REMARK    3  A    between atoms: C_8  and  C_9
REMARK    4  A    between atoms: C_9  and  N_10
REMARK    5  A    between atoms: C_13  and  C_14
REMARK    6  A    between atoms: N_16  and  C_17
REMARK                            x       y       z     vdW  Elec       q    Type
REMARK                         _______ _______ _______ _____ _____    ______ ____
ROOT
ATOM      1  C   UNL     1       1.556   5.175  20.612  0.00  0.00    +0.000 A 
ATOM      2  C   UNL     1       0.702   4.075  20.494  0.00  0.00    +0.000 A 
ATOM      3  C   UNL     1       1.171   2.876  19.944  0.00  0.00    +0.000 A 
ATOM      4  C   UNL     1       2.513   2.739  19.585  0.00  0.00    +0.000 A 
ATOM      5  C   UNL     1       3.409   3.804  19.761  0.00  0.00    +0.000 A 
ATOM      6  C   UNL     1       2.907   5.030  20.239  0.00  0.00    +0.000 A 
ENDROOT
BRANCH   1   9
ATOM      7  O   UNL     1       2.190   7.752  19.620  0.00  0.00    +0.000 OA
ATOM      8  C   UNL     1       1.421   7.634  20.574  0.00  0.00    +0.000 C 
ATOM      9  N   UNL     1       1.031   6.403  21.104  0.00  0.00    +0.000 N 
ATOM     10  H   UNL     1       0.172   6.391  21.633  0.00  0.00    +0.000 HD
BRANCH   8  11
ATOM     11  C   UNL     1       0.799   8.883  21.137  0.00  0.00    +0.000 A 
ATOM     12  C   UNL     1       0.421   8.852  22.488  0.00  0.00    +0.000 A 
ATOM     13  C   UNL     1      -0.247   9.931  23.045  0.00  0.00    +0.000 A 
ATOM     14  C   UNL     1      -0.535  11.019  22.236  0.00  0.00    +0.000 A 
ATOM     15  F   UNL     1      -1.215  12.066  22.725  0.00  0.00    +0.000 F 
ATOM     16  C   UNL     1      -0.122  10.987  20.907  0.00  0.00    +0.000 A 
ATOM     17  N   UNL     1       0.566   9.951  20.325  0.00  0.00    +0.000 NA
ENDBRANCH   8  11
ENDBRANCH   1   9
BRANCH   5  18
ATOM     18  C   UNL     1       4.881   3.617  19.415  0.00  0.00    +0.000 C 
BRANCH  18  19
ATOM     19  N   UNL     1       5.613   4.861  19.058  0.00  0.00    +0.000 NA
ATOM     20  C   UNL     1       6.804   4.559  18.253  0.00  0.00    +0.000 C 
ATOM     21  C   UNL     1       7.541   5.835  17.832  0.00  0.00    +0.000 C 
ATOM     22  C   UNL     1       6.652   6.737  16.974  0.00  0.00    +0.000 C 
ATOM     23  C   UNL     1       5.361   7.021  17.751  0.00  0.00    +0.000 C 
ATOM     24  C   UNL     1       4.694   5.766  18.335  0.00  0.00    +0.000 C 
BRANCH  22  25
ATOM     25  C   UNL     1       6.437   6.139  15.568  0.00  0.00    +0.000 C 
ATOM     26  O   UNL     1       5.463   6.393  14.867  0.00  0.00    +0.000 OA
ATOM     27  N   UNL     1       7.439   5.263  15.184  0.00  0.00    +0.000 N 
ATOM     28  H   UNL     1       8.151   5.045  15.868  0.00  0.00    +0.000 HD
BRANCH  27  29
ATOM     29  C   UNL     1       7.371   4.404  14.006  0.00  0.00    +0.000 C 
ATOM     30  C   UNL     1       5.988   3.846  13.666  0.00  0.00    +0.000 C 
ATOM     31  C   UNL     1       6.100   3.443  12.194  0.00  0.00    +0.000 C 
ATOM     32  C   UNL     1       7.152   4.364  11.582  0.00  0.00    +0.000 C 
ATOM     33  C   UNL     1       7.717   5.185  12.735  0.00  0.00    +0.000 C 
ENDBRANCH  27  29
ENDBRANCH  22  25
ENDBRANCH  18  19
ENDBRANCH   5  18
TORSDOF 6
ENDMDL
MODEL 8
REMARK VINA RESULT:      -8.5      1.547      2.023
REMARK  Name = 
REMARK  6 active torsions:
REMARK  status: ('A' for Active; 'I' for Inactive)
REMARK    1  A    between atoms: C_2  and  C_25
REMARK    2  A    between atoms: N_3  and  C_4
REMARK    3  A    between atoms: C_8  and  C_9
REMARK    4  A    between atoms: C_9  and  N_10
REMARK    5  A    between atoms: C_13  and  C_14
REMARK    6  A    between atoms: N_16  and  C_17
REMARK                            x       y       z     vdW  Elec       q    Type
REMARK                         _______ _______ _______ _____ _____    ______ ____
ROOT
ATOM      1  C   UNL     1       0.609   9.739  19.553  0.00  0.00    +0.000 A 
ATOM      2  C   UNL     1       1.096  10.031  18.276  0.00  0.00    +0.000 A 
ATOM      3  C   UNL     1       2.092   9.233  17.703  0.00  0.00    +0.000 A 
ATOM      4  C   UNL     1       2.552   8.091  18.364  0.00  0.00    +0.000 A 
ATOM      5  C   UNL     1       2.027   7.734  19.615  0.00  0.00    +0.000 A 
ATOM      6  C   UNL     1       1.084   8.590  20.215  0.00  0.00    +0.000 A 
ENDROOT
BRANCH   1   9
ATOM      7  O   UNL     1       0.835  10.963  22.097  0.00  0.00    +0.000 OA
ATOM      8  C   UNL     1      -0.171  11.151  21.414  0.00  0.00    +0.000 C 
ATOM      9  N   UNL     1      -0.350  10.613  20.139  0.00  0.00    +0.000 N 
ATOM     10  H   UNL     1      -1.017  11.078  19.542  0.00  0.00    +0.000 HD
BRANCH   8  11
ATOM     11  C   UNL     1      -1.223  12.084  21.950  0.00  0.00    +0.000 A 
ATOM     12  C   UNL     1      -2.357  12.291  21.149  0.00  0.00    +0.000 A 
ATOM     13  C   UNL     1      -3.317  13.212  21.534  0.00  0.00    +0.000 A 
ATOM     14  C   UNL     1      -3.119  13.923  22.709  0.00  0.00    +0.000 A 
ATOM     15  F   UNL     1      -4.004  14.853  23.096  0.00  0.00    +0.000 F 
ATOM     16  C   UNL     1      -1.975  13.661  23.458  0.00  0.00    +0.000 A 
ATOM     17  N   UNL     1      -1.016  12.736  23.128  0.00  0.00    +0.000 NA
ENDBRANCH   8  11
ENDBRANCH   1   9
BRANCH   5  18
ATOM     18  C   UNL     1       2.500   6.455  20.294  0.00  0.00    +0.000 C 
BRANCH  18  19
ATOM     19  N   UNL     1       1.807   5.212  19.862  0.00  0.00    +0.000 NA
ATOM     20  C   UNL     1       1.876   5.050  18.404  0.00  0.00    +0.000 C 
ATOM     21  C   UNL     1       1.211   3.747  17.947  0.00  0.00    +0.000 C 
ATOM     22  C   UNL     1       1.901   2.524  18.555  0.00  0.00    +0.000 C 
ATOM     23  C   UNL     1       1.913   2.686  20.079  0.00  0.00    +0.000 C 
ATOM     24  C   UNL     1       2.414   4.058  20.558  0.00  0.00    +0.000 C 
BRANCH  22  25
ATOM     25  C   UNL     1       3.288   2.290  17.923  0.00  0.00    +0.000 C 
ATOM     26  O   UNL     1       3.885   1.221  17.980  0.00  0.00    +0.000 OA
ATOM     27  N   UNL     1       3.809   3.417  17.307  0.00  0.00    +0.000 N 
ATOM     28  H   UNL     1       3.284   4.277  17.395  0.00  0.00    +0.000 HD
BRANCH  27  29
ATOM     29  C   UNL     1       5.182   3.528  16.826  0.00  0.00    +0.000 C 
ATOM     30  C   UNL     1       5.349   4.072  15.406  0.00  0.00    +0.000 C 
ATOM     31  C   UNL     1       6.803   4.548  15.357  0.00  0.00    +0.000 C 
ATOM     32  C   UNL     1       7.171   4.933  16.788  0.00  0.00    +0.000 C 
ATOM     33  C   UNL     1       5.973   4.548  17.649  0.00  0.00    +0.000 C 
ENDBRANCH  27  29
ENDBRANCH  22  25
ENDBRANCH  18  19
ENDBRANCH   5  18
TORSDOF 6
ENDMDL
MODEL 9
REMARK VINA RESULT:      -8.4      3.315      4.259
REMARK  Name = 
REMARK  6 active torsions:
REMARK  status: ('A' for Active; 'I' for Inactive)
REMARK    1  A    between atoms: C_2  and  C_25
REMARK    2  A    between atoms: N_3  and  C_4
REMARK    3  A    between atoms: C_8  and  C_9
REMARK    4  A    between atoms: C_9  and  N_10
REMARK    5  A    between atoms: C_13  and  C_14
REMARK    6  A    between atoms: N_16  and  C_17
REMARK                            x       y       z     vdW  Elec       q    Type
REMARK                         _______ _______ _______ _____ _____    ______ ____
ROOT
ATOM      1  C   UNL     1       0.767  10.933  20.525  0.00  0.00    +0.000 A 
ATOM      2  C   UNL     1      -0.202  10.993  21.530  0.00  0.00    +0.000 A 
ATOM      3  C   UNL     1      -0.499   9.856  22.290  0.00  0.00    +0.000 A 
ATOM      4  C   UNL     1       0.225   8.675  22.110  0.00  0.00    +0.000 A 
ATOM      5  C   UNL     1       1.252   8.609  21.157  0.00  0.00    +0.000 A 
ATOM      6  C   UNL     1       1.486   9.735  20.344  0.00  0.00    +0.000 A 
ENDROOT
BRANCH   1   9
ATOM      7  O   UNL     1       2.543  13.052  21.144  0.00  0.00    +0.000 OA
ATOM      8  C   UNL     1       1.868  13.098  20.115  0.00  0.00    +0.000 C 
ATOM      9  N   UNL     1       0.994  12.085  19.719  0.00  0.00    +0.000 N 
ATOM     10  H   UNL     1       0.757  12.051  18.739  0.00  0.00    +0.000 HD
BRANCH   8  11
ATOM     11  C   UNL     1       2.068  14.270  19.193  0.00  0.00    +0.000 A 
ATOM     12  C   UNL     1       3.164  14.211  18.318  0.00  0.00    +0.000 A 
ATOM     13  C   UNL     1       3.465  15.297  17.512  0.00  0.00    +0.000 A 
ATOM     14  C   UNL     1       2.671  16.430  17.604  0.00  0.00    +0.000 A 
ATOM     15  F   UNL     1       2.953  17.517  16.872  0.00  0.00    +0.000 F 
ATOM     16  C   UNL     1       1.594  16.416  18.488  0.00  0.00    +0.000 A 
ATOM     17  N   UNL     1       1.245  15.351  19.281  0.00  0.00    +0.000 NA
ENDBRANCH   8  11
ENDBRANCH   1   9
BRANCH   5  18
ATOM     18  C   UNL     1       2.067   7.329  21.014  0.00  0.00    +0.000 C 
BRANCH  18  19
ATOM     19  N   UNL     1       1.478   6.297  20.120  0.00  0.00    +0.000 NA
ATOM     20  C   UNL     1       2.039   6.390  18.766  0.00  0.00    +0.000 C 
ATOM     21  C   UNL     1       1.481   5.301  17.845  0.00  0.00    +0.000 C 
ATOM     22  C   UNL     1       1.822   3.902  18.363  0.00  0.00    +0.000 C 
ATOM     23  C   UNL     1       1.314   3.785  19.805  0.00  0.00    +0.000 C 
ATOM     24  C   UNL     1       1.716   4.962  20.707  0.00  0.00    +0.000 C 
BRANCH  22  25
ATOM     25  C   UNL     1       3.322   3.588  18.184  0.00  0.00    +0.000 C 
ATOM     26  O   UNL     1       3.994   2.999  19.023  0.00  0.00    +0.000 OA
ATOM     27  N   UNL     1       3.844   4.061  16.991  0.00  0.00    +0.000 N 
ATOM     28  H   UNL     1       3.233   4.615  16.406  0.00  0.00    +0.000 HD
BRANCH  27  29
ATOM     29  C   UNL     1       5.267   4.087  16.671  0.00  0.00    +0.000 C 
ATOM     30  C   UNL     1       5.616   4.139  15.183  0.00  0.00    +0.000 C 
ATOM     31  C   UNL     1       7.056   4.658  15.155  0.00  0.00    +0.000 C 
ATOM     32  C   UNL     1       7.221   5.515  16.407  0.00  0.00    +0.000 C 
ATOM     33  C   UNL     1       5.924   5.368  17.194  0.00  0.00    +0.000 C 
ENDBRANCH  27  29
ENDBRANCH  22  25
ENDBRANCH  18  19
ENDBRANCH   5  18
TORSDOF 6
ENDMDL
