MODEL 1
REMARK VINA RESULT:      -5.9      0.000      0.000
REMARK  Name = 
REMARK  11 active torsions:
REMARK  status: ('A' for Active; 'I' for Inactive)
REMARK    1  A    between atoms: C_1  and  C_2
REMARK    2  A    between atoms: C_2  and  O_3
REMARK    3  A    between atoms: O_3  and  C_4
REMARK    4  A    between atoms: C_4  and  C_6
REMARK    5  A    between atoms: C_6  and  C_7
REMARK    6  A    between atoms: C_6  and  N_9
REMARK    7  A    between atoms: C_7  and  C_8
REMARK    8  A    between atoms: N_9  and  P_10
REMARK    9  A    between atoms: C_16  and  N_17
REMARK   10  A    between atoms: C_25  and  C_26
REMARK   11  A    between atoms: C_25  and  O_27
REMARK                            x       y       z     vdW  Elec       q    Type
REMARK                         _______ _______ _______ _____ _____    ______ ____
ROOT
ATOM      1  P   UNL     1       0.569  13.471  21.111  0.00  0.00    +0.000 P 
ATOM      2  O   UNL     1       1.971  13.237  21.553  0.00  0.00    +0.000 OA
ATOM      3  O   UNL     1       0.299  14.944  20.494  0.00  0.00    +0.000 OA
ATOM      4  C   UNL     1      -1.032  15.284  20.096  0.00  0.00    +0.000 C 
ATOM      5  C   UNL     1      -2.075  14.976  21.179  0.00  0.00    +0.000 C 
ATOM      6  O   UNL     1      -3.428  14.791  20.716  0.00  0.00    +0.000 OA
ATOM      7  C   UNL     1      -4.144  14.012  21.772  0.00  0.00    +0.000 C 
ATOM      8  C   UNL     1      -3.022  13.593  22.824  0.00  0.00    +0.000 C 
ATOM      9  C   UNL     1      -3.087  12.229  23.497  0.00  0.00    +0.000 C 
ATOM     10  C   UNL     1      -1.822  13.671  21.893  0.00  0.00    +0.000 C 
ATOM     11  O   UNL     1      -0.496  13.536  22.355  0.00  0.00    +0.000 OA
ENDROOT
BRANCH   7  12
ATOM     12  N   UNL     1      -4.960  12.938  21.157  0.00  0.00    +0.000 N 
ATOM     13  C   UNL     1      -4.755  12.520  19.856  0.00  0.00    +0.000 A 
ATOM     14  C   UNL     1      -5.573  11.655  19.254  0.00  0.00    +0.000 A 
ATOM     15  C   UNL     1      -6.662  11.105  20.088  0.00  0.00    +0.000 A 
ATOM     16  N   UNL     1      -7.444  10.097  19.599  0.00  0.00    +0.000 N 
ATOM     17  N   UNL     1      -6.913  11.555  21.276  0.00  0.00    +0.000 NA
ATOM     18  C   UNL     1      -6.160  12.577  21.799  0.00  0.00    +0.000 A 
ATOM     19  O   UNL     1      -6.529  13.163  22.818  0.00  0.00    +0.000 OA
ATOM     20  H   UNL     1      -7.598  10.047  18.598  0.00  0.00    +0.000 HD
ATOM     21  H   UNL     1      -8.291   9.936  20.143  0.00  0.00    +0.000 HD
ENDBRANCH   7  12
BRANCH   1  22
ATOM     22  N   UNL     1      -0.098  12.447  20.048  0.00  0.00    +0.000 NA
ATOM     23  H   UNL     1      -0.195  12.895  19.154  0.00  0.00    +0.000 HD
BRANCH  22  24
ATOM     24  C   UNL     1       0.122  11.028  19.781  0.00  0.00    +0.000 C 
BRANCH  24  25
ATOM     25  C   UNL     1      -0.651  10.482  18.568  0.00  0.00    +0.000 C 
ATOM     26  O   UNL     1      -1.847  10.690  18.398  0.00  0.00    +0.000 OA
BRANCH  25  27
ATOM     27  O   UNL     1       0.099   9.699  17.744  0.00  0.00    +0.000 OA
BRANCH  27  29
ATOM     28  C   UNL     1       2.079   8.293  18.049  0.00  0.00    +0.000 C 
ATOM     29  C   UNL     1       1.518   9.702  17.995  0.00  0.00    +0.000 C 
ENDBRANCH  27  29
ENDBRANCH  25  27
ENDBRANCH  24  25
BRANCH  24  30
ATOM     30  C   UNL     1      -0.324  10.391  21.130  0.00  0.00    +0.000 C 
ATOM     31  C   UNL     1      -0.018   8.930  21.393  0.00  0.00    +0.000 C 
ENDBRANCH  24  30
ENDBRANCH  22  24
ENDBRANCH   1  22
BRANCH   8  32
ATOM     32  O   UNL     1      -2.937  14.606  23.845  0.00  0.00    +0.000 OA
ATOM     33  H   UNL     1      -2.946  15.480  23.416  0.00  0.00    +0.000 HD
ENDBRANCH   8  32
TORSDOF 8
ENDMDL
MODEL 2
REMARK VINA RESULT:      -5.8      9.885     12.837
REMARK  Name = 
REMARK  11 active torsions:
REMARK  status: ('A' for Active; 'I' for Inactive)
REMARK    1  A    between atoms: C_1  and  C_2
REMARK    2  A    between atoms: C_2  and  O_3
REMARK    3  A    between atoms: O_3  and  C_4
REMARK    4  A    between atoms: C_4  and  C_6
REMARK    5  A    between atoms: C_6  and  C_7
REMARK    6  A    between atoms: C_6  and  N_9
REMARK    7  A    between atoms: C_7  and  C_8
REMARK    8  A    between atoms: N_9  and  P_10
REMARK    9  A    between atoms: C_16  and  N_17
REMARK   10  A    between atoms: C_25  and  C_26
REMARK   11  A    between atoms: C_25  and  O_27
REMARK                            x       y       z     vdW  Elec       q    Type
REMARK                         _______ _______ _______ _____ _____    ______ ____
ROOT
ATOM      1  P   UNL     1       4.320   5.034  19.376  0.00  0.00    +0.000 P 
ATOM      2  O   UNL     1       3.289   5.424  20.377  0.00  0.00    +0.000 OA
ATOM      3  O   UNL     1       5.785   4.746  20.001  0.00  0.00    +0.000 OA
ATOM      4  C   UNL     1       6.857   4.422  19.109  0.00  0.00    +0.000 C 
ATOM      5  C   UNL     1       6.977   5.409  17.939  0.00  0.00    +0.000 C 
ATOM      6  O   UNL     1       7.640   4.909  16.761  0.00  0.00    +0.000 OA
ATOM      7  C   UNL     1       7.200   5.769  15.619  0.00  0.00    +0.000 C 
ATOM      8  C   UNL     1       6.062   6.714  16.214  0.00  0.00    +0.000 C 
ATOM      9  C   UNL     1       4.857   7.078  15.358  0.00  0.00    +0.000 C 
ATOM     10  C   UNL     1       5.640   5.828  17.377  0.00  0.00    +0.000 C 
ATOM     11  O   UNL     1       4.729   6.257  18.364  0.00  0.00    +0.000 OA
ENDROOT
BRANCH   7  12
ATOM     12  N   UNL     1       6.869   4.934  14.441  0.00  0.00    +0.000 N 
ATOM     13  C   UNL     1       6.051   3.824  14.539  0.00  0.00    +0.000 A 
ATOM     14  C   UNL     1       5.863   2.992  13.513  0.00  0.00    +0.000 A 
ATOM     15  C   UNL     1       6.511   3.374  12.242  0.00  0.00    +0.000 A 
ATOM     16  N   UNL     1       6.237   2.665  11.105  0.00  0.00    +0.000 N 
ATOM     17  N   UNL     1       7.346   4.360  12.164  0.00  0.00    +0.000 NA
ATOM     18  C   UNL     1       7.658   5.088  13.285  0.00  0.00    +0.000 A 
ATOM     19  O   UNL     1       8.611   5.869  13.274  0.00  0.00    +0.000 OA
ATOM     20  H   UNL     1       6.002   1.683  11.193  0.00  0.00    +0.000 HD
ATOM     21  H   UNL     1       6.884   2.855  10.341  0.00  0.00    +0.000 HD
ENDBRANCH   7  12
BRANCH   1  22
ATOM     22  N   UNL     1       4.028   3.773  18.402  0.00  0.00    +0.000 NA
ATOM     23  H   UNL     1       4.297   2.919  18.857  0.00  0.00    +0.000 HD
BRANCH  22  24
ATOM     24  C   UNL     1       2.903   3.444  17.532  0.00  0.00    +0.000 C 
BRANCH  24  25
ATOM     25  C   UNL     1       1.559   4.050  17.972  0.00  0.00    +0.000 C 
ATOM     26  O   UNL     1       1.221   5.192  17.679  0.00  0.00    +0.000 OA
BRANCH  25  27
ATOM     27  O   UNL     1       0.817   3.228  18.765  0.00  0.00    +0.000 OA
BRANCH  27  29
ATOM     28  C   UNL     1       1.412   2.669  21.072  0.00  0.00    +0.000 C 
ATOM     29  C   UNL     1       0.691   3.629  20.143  0.00  0.00    +0.000 C 
ENDBRANCH  27  29
ENDBRANCH  25  27
ENDBRANCH  24  25
BRANCH  24  30
ATOM     30  C   UNL     1       2.920   1.888  17.585  0.00  0.00    +0.000 C 
ATOM     31  C   UNL     1       3.811   1.194  18.596  0.00  0.00    +0.000 C 
ENDBRANCH  24  30
ENDBRANCH  22  24
ENDBRANCH   1  22
BRANCH   8  32
ATOM     32  O   UNL     1       6.667   7.929  16.697  0.00  0.00    +0.000 OA
ATOM     33  H   UNL     1       7.131   7.733  17.531  0.00  0.00    +0.000 HD
ENDBRANCH   8  32
TORSDOF 8
ENDMDL
MODEL 3
REMARK VINA RESULT:      -5.7      1.215      2.022
REMARK  Name = 
REMARK  11 active torsions:
REMARK  status: ('A' for Active; 'I' for Inactive)
REMARK    1  A    between atoms: C_1  and  C_2
REMARK    2  A    between atoms: C_2  and  O_3
REMARK    3  A    between atoms: O_3  and  C_4
REMARK    4  A    between atoms: C_4  and  C_6
REMARK    5  A    between atoms: C_6  and  C_7
REMARK    6  A    between atoms: C_6  and  N_9
REMARK    7  A    between atoms: C_7  and  C_8
REMARK    8  A    between atoms: N_9  and  P_10
REMARK    9  A    between atoms: C_16  and  N_17
REMARK   10  A    between atoms: C_25  and  C_26
REMARK   11  A    between atoms: C_25  and  O_27
REMARK                            x       y       z     vdW  Elec       q    Type
REMARK                         _______ _______ _______ _____ _____    ______ ____
ROOT
ATOM      1  P   UNL     1       0.629  13.219  20.341  0.00  0.00    +0.000 P 
ATOM      2  O   UNL     1       2.065  12.848  20.466  0.00  0.00    +0.000 OA
ATOM      3  O   UNL     1       0.369  14.765  19.937  0.00  0.00    +0.000 OA
ATOM      4  C   UNL     1      -0.981  15.231  19.852  0.00  0.00    +0.000 C 
ATOM      5  C   UNL     1      -1.815  14.871  21.090  0.00  0.00    +0.000 C 
ATOM      6  O   UNL     1      -3.243  14.825  20.894  0.00  0.00    +0.000 OA
ATOM      7  C   UNL     1      -3.803  13.979  21.993  0.00  0.00    +0.000 C 
ATOM      8  C   UNL     1      -2.536  13.376  22.751  0.00  0.00    +0.000 C 
ATOM      9  C   UNL     1      -2.585  11.951  23.287  0.00  0.00    +0.000 C 
ATOM     10  C   UNL     1      -1.538  13.481  21.608  0.00  0.00    +0.000 C 
ATOM     11  O   UNL     1      -0.164  13.211  21.776  0.00  0.00    +0.000 OA
ENDROOT
BRANCH   7  12
ATOM     12  N   UNL     1      -4.811  13.035  21.455  0.00  0.00    +0.000 N 
ATOM     13  C   UNL     1      -4.764  12.583  20.150  0.00  0.00    +0.000 A 
ATOM     14  C   UNL     1      -5.742  11.846  19.622  0.00  0.00    +0.000 A 
ATOM     15  C   UNL     1      -6.837  11.469  20.539  0.00  0.00    +0.000 A 
ATOM     16  N   UNL     1      -7.793  10.584  20.123  0.00  0.00    +0.000 N 
ATOM     17  N   UNL     1      -6.933  11.959  21.734  0.00  0.00    +0.000 NA
ATOM     18  C   UNL     1      -6.001  12.860  22.186  0.00  0.00    +0.000 A 
ATOM     19  O   UNL     1      -6.205  13.501  23.218  0.00  0.00    +0.000 OA
ATOM     20  H   UNL     1      -8.024  10.552  19.137  0.00  0.00    +0.000 HD
ATOM     21  H   UNL     1      -8.612  10.555  20.728  0.00  0.00    +0.000 HD
ENDBRANCH   7  12
BRANCH   1  22
ATOM     22  N   UNL     1      -0.317  12.364  19.342  0.00  0.00    +0.000 NA
ATOM     23  H   UNL     1      -0.038  12.519  18.389  0.00  0.00    +0.000 HD
BRANCH  22  24
ATOM     24  C   UNL     1      -0.835  11.000  19.407  0.00  0.00    +0.000 C 
BRANCH  24  25
ATOM     25  C   UNL     1       0.191   9.951  19.869  0.00  0.00    +0.000 C 
ATOM     26  O   UNL     1       1.257   9.769  19.290  0.00  0.00    +0.000 OA
BRANCH  25  27
ATOM     27  O   UNL     1      -0.221   9.209  20.933  0.00  0.00    +0.000 OA
BRANCH  27  29
ATOM     28  C   UNL     1       0.079   9.470  23.348  0.00  0.00    +0.000 C 
ATOM     29  C   UNL     1       0.716   9.097  22.022  0.00  0.00    +0.000 C 
ENDBRANCH  27  29
ENDBRANCH  25  27
ENDBRANCH  24  25
BRANCH  24  30
ATOM     30  C   UNL     1      -1.313  10.785  17.941  0.00  0.00    +0.000 C 
ATOM     31  C   UNL     1      -2.745  10.359  17.685  0.00  0.00    +0.000 C 
ENDBRANCH  24  30
ENDBRANCH  22  24
ENDBRANCH   1  22
BRANCH   8  32
ATOM     32  O   UNL     1      -2.169  14.260  23.826  0.00  0.00    +0.000 OA
ATOM     33  H   UNL     1      -1.524  14.907  23.489  0.00  0.00    +0.000 HD
ENDBRANCH   8  32
TORSDOF 8
ENDMDL
MODEL 4
REMARK VINA RESULT:      -5.7      1.572      2.379
REMARK  Name = 
REMARK  11 active torsions:
REMARK  status: ('A' for Active; 'I' for Inactive)
REMARK    1  A    between atoms: C_1  and  C_2
REMARK    2  A    between atoms: C_2  and  O_3
REMARK    3  A    between atoms: O_3  and  C_4
REMARK    4  A    between atoms: C_4  and  C_6
REMARK    5  A    between atoms: C_6  and  C_7
REMARK    6  A    between atoms: C_6  and  N_9
REMARK    7  A    between atoms: C_7  and  C_8
REMARK    8  A    between atoms: N_9  and  P_10
REMARK    9  A    between atoms: C_16  and  N_17
REMARK   10  A    between atoms: C_25  and  C_26
REMARK   11  A    between atoms: C_25  and  O_27
REMARK                            x       y       z     vdW  Elec       q    Type
REMARK                         _______ _______ _______ _____ _____    ______ ____
ROOT
ATOM      1  P   UNL     1      -0.437  14.208  21.918  0.00  0.00    +0.000 P 
ATOM      2  O   UNL     1       0.981  14.151  22.370  0.00  0.00    +0.000 OA
ATOM      3  O   UNL     1      -0.897  15.648  21.339  0.00  0.00    +0.000 OA
ATOM      4  C   UNL     1      -2.259  15.818  20.935  0.00  0.00    +0.000 C 
ATOM      5  C   UNL     1      -3.259  15.342  21.998  0.00  0.00    +0.000 C 
ATOM      6  O   UNL     1      -4.571  14.991  21.515  0.00  0.00    +0.000 OA
ATOM      7  C   UNL     1      -5.184  14.093  22.541  0.00  0.00    +0.000 C 
ATOM      8  C   UNL     1      -4.024  13.799  23.594  0.00  0.00    +0.000 C 
ATOM      9  C   UNL     1      -3.911  12.419  24.228  0.00  0.00    +0.000 C 
ATOM     10  C   UNL     1      -2.838  14.063  22.679  0.00  0.00    +0.000 C 
ATOM     11  O   UNL     1      -1.510  14.093  23.152  0.00  0.00    +0.000 OA
ENDROOT
BRANCH   7  12
ATOM     12  N   UNL     1      -5.845  12.938  21.888  0.00  0.00    +0.000 N 
ATOM     13  C   UNL     1      -5.524  12.546  20.602  0.00  0.00    +0.000 A 
ATOM     14  C   UNL     1      -6.210  11.598  19.961  0.00  0.00    +0.000 A 
ATOM     15  C   UNL     1      -7.277  10.932  20.736  0.00  0.00    +0.000 A 
ATOM     16  N   UNL     1      -7.917   9.845  20.210  0.00  0.00    +0.000 N 
ATOM     17  N   UNL     1      -7.640  11.351  21.906  0.00  0.00    +0.000 NA
ATOM     18  C   UNL     1      -7.031  12.448  22.465  0.00  0.00    +0.000 A 
ATOM     19  O   UNL     1      -7.517  12.990  23.459  0.00  0.00    +0.000 OA
ATOM     20  H   UNL     1      -8.009   9.780  19.203  0.00  0.00    +0.000 HD
ATOM     21  H   UNL     1      -8.770   9.593  20.708  0.00  0.00    +0.000 HD
ENDBRANCH   7  12
BRANCH   1  22
ATOM     22  N   UNL     1      -0.952  13.135  20.820  0.00  0.00    +0.000 NA
ATOM     23  H   UNL     1      -1.822  13.442  20.422  0.00  0.00    +0.000 HD
BRANCH  22  24
ATOM     24  C   UNL     1      -0.257  12.387  19.776  0.00  0.00    +0.000 C 
BRANCH  24  25
ATOM     25  C   UNL     1       0.263  11.008  20.219  0.00  0.00    +0.000 C 
ATOM     26  O   UNL     1       0.189  10.014  19.505  0.00  0.00    +0.000 OA
BRANCH  25  27
ATOM     27  O   UNL     1       0.750  10.986  21.490  0.00  0.00    +0.000 OA
BRANCH  27  29
ATOM     28  C   UNL     1      -0.934  10.341  23.146  0.00  0.00    +0.000 C 
ATOM     29  C   UNL     1       0.271   9.914  22.327  0.00  0.00    +0.000 C 
ENDBRANCH  27  29
ENDBRANCH  25  27
ENDBRANCH  24  25
BRANCH  24  30
ATOM     30  C   UNL     1       0.882  13.379  19.398  0.00  0.00    +0.000 C 
ATOM     31  C   UNL     1       1.958  12.933  18.428  0.00  0.00    +0.000 C 
ENDBRANCH  24  30
ENDBRANCH  22  24
ENDBRANCH   1  22
BRANCH   8  32
ATOM     32  O   UNL     1      -4.084  14.783  24.643  0.00  0.00    +0.000 OA
ATOM     33  H   UNL     1      -3.816  15.645  24.275  0.00  0.00    +0.000 HD
ENDBRANCH   8  32
TORSDOF 8
ENDMDL
MODEL 5
REMARK VINA RESULT:      -5.7      2.498      6.578
REMARK  Name = 
REMARK  11 active torsions:
REMARK  status: ('A' for Active; 'I' for Inactive)
REMARK    1  A    between atoms: C_1  and  C_2
REMARK    2  A    between atoms: C_2  and  O_3
REMARK    3  A    between atoms: O_3  and  C_4
REMARK    4  A    between atoms: C_4  and  C_6
REMARK    5  A    between atoms: C_6  and  C_7
REMARK    6  A    between atoms: C_6  and  N_9
REMARK    7  A    between atoms: C_7  and  C_8
REMARK    8  A    between atoms: N_9  and  P_10
REMARK    9  A    between atoms: C_16  and  N_17
REMARK   10  A    between atoms: C_25  and  C_26
REMARK   11  A    between atoms: C_25  and  O_27
REMARK                            x       y       z     vdW  Elec       q    Type
REMARK                         _______ _______ _______ _____ _____    ______ ____
ROOT
ATOM      1  P   UNL     1      -3.866  13.506  20.619  0.00  0.00    +0.000 P 
ATOM      2  O   UNL     1      -5.273  13.971  20.766  0.00  0.00    +0.000 OA
ATOM      3  O   UNL     1      -2.785  14.696  20.422  0.00  0.00    +0.000 OA
ATOM      4  C   UNL     1      -1.414  14.344  20.213  0.00  0.00    +0.000 C 
ATOM      5  C   UNL     1      -1.231  13.288  19.114  0.00  0.00    +0.000 C 
ATOM      6  O   UNL     1      -0.016  12.514  19.182  0.00  0.00    +0.000 OA
ATOM      7  C   UNL     1      -0.261  11.258  18.409  0.00  0.00    +0.000 C 
ATOM      8  C   UNL     1      -1.810  11.285  18.034  0.00  0.00    +0.000 C 
ATOM      9  C   UNL     1      -2.611   9.990  18.037  0.00  0.00    +0.000 C 
ATOM     10  C   UNL     1      -2.280  12.204  19.151  0.00  0.00    +0.000 C 
ATOM     11  O   UNL     1      -3.597  12.704  19.216  0.00  0.00    +0.000 OA
ENDROOT
BRANCH   7  12
ATOM     12  N   UNL     1       0.258  10.085  19.153  0.00  0.00    +0.000 N 
ATOM     13  C   UNL     1      -0.065   9.861  20.478  0.00  0.00    +0.000 A 
ATOM     14  C   UNL     1       0.507   8.888  21.190  0.00  0.00    +0.000 A 
ATOM     15  C   UNL     1       1.441   8.011  20.455  0.00  0.00    +0.000 A 
ATOM     16  N   UNL     1       1.944   6.896  21.067  0.00  0.00    +0.000 N 
ATOM     17  N   UNL     1       1.814   8.266  19.242  0.00  0.00    +0.000 NA
ATOM     18  C   UNL     1       1.342   9.382  18.596  0.00  0.00    +0.000 A 
ATOM     19  O   UNL     1       1.860   9.757  17.543  0.00  0.00    +0.000 OA
ATOM     20  H   UNL     1       2.065   6.911  22.073  0.00  0.00    +0.000 HD
ATOM     21  H   UNL     1       2.734   6.482  20.574  0.00  0.00    +0.000 HD
ENDBRANCH   7  12
BRANCH   1  22
ATOM     22  N   UNL     1      -3.232  12.555  21.767  0.00  0.00    +0.000 NA
ATOM     23  H   UNL     1      -2.593  11.899  21.354  0.00  0.00    +0.000 HD
BRANCH  22  24
ATOM     24  C   UNL     1      -2.731  12.837  23.109  0.00  0.00    +0.000 C 
BRANCH  24  25
ATOM     25  C   UNL     1      -1.231  12.551  23.302  0.00  0.00    +0.000 C 
ATOM     26  O   UNL     1      -0.764  11.418  23.263  0.00  0.00    +0.000 OA
BRANCH  25  27
ATOM     27  O   UNL     1      -0.490  13.659  23.581  0.00  0.00    +0.000 OA
BRANCH  27  29
ATOM     28  C   UNL     1      -1.085  15.362  25.234  0.00  0.00    +0.000 C 
ATOM     29  C   UNL     1      -1.235  14.872  23.806  0.00  0.00    +0.000 C 
ENDBRANCH  27  29
ENDBRANCH  25  27
ENDBRANCH  24  25
BRANCH  24  30
ATOM     30  C   UNL     1      -3.645  11.921  23.975  0.00  0.00    +0.000 C 
ATOM     31  C   UNL     1      -4.901  12.503  24.593  0.00  0.00    +0.000 C 
ENDBRANCH  24  30
ENDBRANCH  22  24
ENDBRANCH   1  22
BRANCH   8  32
ATOM     32  O   UNL     1      -1.970  11.922  16.753  0.00  0.00    +0.000 OA
ATOM     33  H   UNL     1      -2.921  12.066  16.595  0.00  0.00    +0.000 HD
ENDBRANCH   8  32
TORSDOF 8
ENDMDL
MODEL 6
REMARK VINA RESULT:      -5.7      0.850      1.448
REMARK  Name = 
REMARK  11 active torsions:
REMARK  status: ('A' for Active; 'I' for Inactive)
REMARK    1  A    between atoms: C_1  and  C_2
REMARK    2  A    between atoms: C_2  and  O_3
REMARK    3  A    between atoms: O_3  and  C_4
REMARK    4  A    between atoms: C_4  and  C_6
REMARK    5  A    between atoms: C_6  and  C_7
REMARK    6  A    between atoms: C_6  and  N_9
REMARK    7  A    between atoms: C_7  and  C_8
REMARK    8  A    between atoms: N_9  and  P_10
REMARK    9  A    between atoms: C_16  and  N_17
REMARK   10  A    between atoms: C_25  and  C_26
REMARK   11  A    between atoms: C_25  and  O_27
REMARK                            x       y       z     vdW  Elec       q    Type
REMARK                         _______ _______ _______ _____ _____    ______ ____
ROOT
ATOM      1  P   UNL     1       0.422  13.699  21.197  0.00  0.00    +0.000 P 
ATOM      2  O   UNL     1       1.832  13.508  21.636  0.00  0.00    +0.000 OA
ATOM      3  O   UNL     1       0.100  15.169  20.600  0.00  0.00    +0.000 OA
ATOM      4  C   UNL     1      -1.243  15.468  20.208  0.00  0.00    +0.000 C 
ATOM      5  C   UNL     1      -2.273  15.109  21.288  0.00  0.00    +0.000 C 
ATOM      6  O   UNL     1      -3.619  14.884  20.823  0.00  0.00    +0.000 OA
ATOM      7  C   UNL     1      -4.306  14.066  21.869  0.00  0.00    +0.000 C 
ATOM      8  C   UNL     1      -3.169  13.673  22.915  0.00  0.00    +0.000 C 
ATOM      9  C   UNL     1      -3.186  12.298  23.569  0.00  0.00    +0.000 C 
ATOM     10  C   UNL     1      -1.973  13.804  21.984  0.00  0.00    +0.000 C 
ATOM     11  O   UNL     1      -0.643  13.710  22.443  0.00  0.00    +0.000 OA
ENDROOT
BRANCH   7  12
ATOM     12  N   UNL     1      -5.086  12.973  21.240  0.00  0.00    +0.000 N 
ATOM     13  C   UNL     1      -4.860  12.573  19.937  0.00  0.00    +0.000 A 
ATOM     14  C   UNL     1      -5.648  11.688  19.323  0.00  0.00    +0.000 A 
ATOM     15  C   UNL     1      -6.723  11.097  20.146  0.00  0.00    +0.000 A 
ATOM     16  N   UNL     1      -7.471  10.069  19.644  0.00  0.00    +0.000 N 
ATOM     17  N   UNL     1      -6.995  11.528  21.336  0.00  0.00    +0.000 NA
ATOM     18  C   UNL     1      -6.276  12.568  21.872  0.00  0.00    +0.000 A 
ATOM     19  O   UNL     1      -6.669  13.133  22.894  0.00  0.00    +0.000 OA
ATOM     20  H   UNL     1      -7.618  10.023  18.642  0.00  0.00    +0.000 HD
ATOM     21  H   UNL     1      -8.315   9.877  20.182  0.00  0.00    +0.000 HD
ENDBRANCH   7  12
BRANCH   1  22
ATOM     22  N   UNL     1      -0.210  12.667  20.122  0.00  0.00    +0.000 NA
ATOM     23  H   UNL     1      -0.373  13.137  19.249  0.00  0.00    +0.000 HD
BRANCH  22  24
ATOM     24  C   UNL     1       0.100  11.277  19.794  0.00  0.00    +0.000 C 
BRANCH  24  25
ATOM     25  C   UNL     1      -0.568  10.762  18.508  0.00  0.00    +0.000 C 
ATOM     26  O   UNL     1      -0.094   9.853  17.835  0.00  0.00    +0.000 OA
BRANCH  25  27
ATOM     27  O   UNL     1      -1.692  11.447  18.158  0.00  0.00    +0.000 OA
BRANCH  27  29
ATOM     28  C   UNL     1      -3.261   9.776  17.300  0.00  0.00    +0.000 C 
ATOM     29  C   UNL     1      -2.378  10.970  16.984  0.00  0.00    +0.000 C 
ENDBRANCH  27  29
ENDBRANCH  25  27
ENDBRANCH  24  25
BRANCH  24  30
ATOM     30  C   UNL     1      -0.393  10.545  21.077  0.00  0.00    +0.000 C 
ATOM     31  C   UNL     1      -0.114   9.063  21.235  0.00  0.00    +0.000 C 
ENDBRANCH  24  30
ENDBRANCH  22  24
ENDBRANCH   1  22
BRANCH   8  32
ATOM     32  O   UNL     1      -3.119  14.674  23.949  0.00  0.00    +0.000 OA
ATOM     33  H   UNL     1      -3.357  14.255  24.796  0.00  0.00    +0.000 HD
ENDBRANCH   8  32
TORSDOF 8
ENDMDL
MODEL 7
REMARK VINA RESULT:      -5.6      1.698      2.770
REMARK  Name = 
REMARK  11 active torsions:
REMARK  status: ('A' for Active; 'I' for Inactive)
REMARK    1  A    between atoms: C_1  and  C_2
REMARK    2  A    between atoms: C_2  and  O_3
REMARK    3  A    between atoms: O_3  and  C_4
REMARK    4  A    between atoms: C_4  and  C_6
REMARK    5  A    between atoms: C_6  and  C_7
REMARK    6  A    between atoms: C_6  and  N_9
REMARK    7  A    between atoms: C_7  and  C_8
REMARK    8  A    between atoms: N_9  and  P_10
REMARK    9  A    between atoms: C_16  and  N_17
REMARK   10  A    between atoms: C_25  and  C_26
REMARK   11  A    between atoms: C_25  and  O_27
REMARK                            x       y       z     vdW  Elec       q    Type
REMARK                         _______ _______ _______ _____ _____    ______ ____
ROOT
ATOM      1  P   UNL     1       1.005  12.890  19.034  0.00  0.00    +0.000 P 
ATOM      2  O   UNL     1       2.329  12.298  18.697  0.00  0.00    +0.000 OA
ATOM      3  O   UNL     1       0.845  14.449  18.628  0.00  0.00    +0.000 OA
ATOM      4  C   UNL     1      -0.372  15.121  18.965  0.00  0.00    +0.000 C 
ATOM      5  C   UNL     1      -0.775  14.923  20.433  0.00  0.00    +0.000 C 
ATOM      6  O   UNL     1      -2.175  15.100  20.730  0.00  0.00    +0.000 OA
ATOM      7  C   UNL     1      -2.439  14.377  22.011  0.00  0.00    +0.000 C 
ATOM      8  C   UNL     1      -1.090  13.596  22.344  0.00  0.00    +0.000 C 
ATOM      9  C   UNL     1      -1.154  12.208  22.968  0.00  0.00    +0.000 C 
ATOM     10  C   UNL     1      -0.539  13.517  20.929  0.00  0.00    +0.000 C 
ATOM     11  O   UNL     1       0.757  13.037  20.647  0.00  0.00    +0.000 OA
ENDROOT
BRANCH   7  12
ATOM     12  N   UNL     1      -3.694  13.594  21.912  0.00  0.00    +0.000 N 
ATOM     13  C   UNL     1      -4.260  13.274  20.693  0.00  0.00    +0.000 A 
ATOM     14  C   UNL     1      -5.457  12.692  20.600  0.00  0.00    +0.000 A 
ATOM     15  C   UNL     1      -6.103  12.331  21.879  0.00  0.00    +0.000 A 
ATOM     16  N   UNL     1      -7.251  11.589  21.870  0.00  0.00    +0.000 N 
ATOM     17  N   UNL     1      -5.622  12.703  23.022  0.00  0.00    +0.000 NA
ATOM     18  C   UNL     1      -4.478  13.460  23.074  0.00  0.00    +0.000 A 
ATOM     19  O   UNL     1      -4.143  14.009  24.125  0.00  0.00    +0.000 OA
ATOM     20  H   UNL     1      -7.878  11.680  21.079  0.00  0.00    +0.000 HD
ATOM     21  H   UNL     1      -7.736  11.577  22.766  0.00  0.00    +0.000 HD
ENDBRANCH   7  12
BRANCH   1  22
ATOM     22  N   UNL     1      -0.337  12.175  18.473  0.00  0.00    +0.000 NA
ATOM     23  H   UNL     1      -0.724  12.715  17.719  0.00  0.00    +0.000 HD
BRANCH  22  24
ATOM     24  C   UNL     1      -0.663  10.779  18.195  0.00  0.00    +0.000 C 
BRANCH  24  25
ATOM     25  C   UNL     1      -1.969  10.575  17.408  0.00  0.00    +0.000 C 
ATOM     26  O   UNL     1      -2.077   9.747  16.510  0.00  0.00    +0.000 OA
BRANCH  25  27
ATOM     27  O   UNL     1      -2.964  11.436  17.759  0.00  0.00    +0.000 OA
BRANCH  27  29
ATOM     28  C   UNL     1      -5.217  11.975  16.970  0.00  0.00    +0.000 C 
ATOM     29  C   UNL     1      -4.308  10.939  17.606  0.00  0.00    +0.000 C 
ENDBRANCH  27  29
ENDBRANCH  25  27
ENDBRANCH  24  25
BRANCH  24  30
ATOM     30  C   UNL     1      -0.715  10.186  19.633  0.00  0.00    +0.000 C 
ATOM     31  C   UNL     1       0.491   9.439  20.168  0.00  0.00    +0.000 C 
ENDBRANCH  24  30
ENDBRANCH  22  24
ENDBRANCH   1  22
BRANCH   8  32
ATOM     32  O   UNL     1      -0.256  14.432  23.167  0.00  0.00    +0.000 OA
ATOM     33  H   UNL     1       0.676  14.240  22.960  0.00  0.00    +0.000 HD
ENDBRANCH   8  32
TORSDOF 8
ENDMDL
MODEL 8
REMARK VINA RESULT:      -5.6      1.604      2.291
REMARK  Name = 
REMARK  11 active torsions:
REMARK  status: ('A' for Active; 'I' for Inactive)
REMARK    1  A    between atoms: C_1  and  C_2
REMARK    2  A    between atoms: C_2  and  O_3
REMARK    3  A    between atoms: O_3  and  C_4
REMARK    4  A    between atoms: C_4  and  C_6
REMARK    5  A    between atoms: C_6  and  C_7
REMARK    6  A    between atoms: C_6  and  N_9
REMARK    7  A    between atoms: C_7  and  C_8
REMARK    8  A    between atoms: N_9  and  P_10
REMARK    9  A    between atoms: C_16  and  N_17
REMARK   10  A    between atoms: C_25  and  C_26
REMARK   11  A    between atoms: C_25  and  O_27
REMARK                            x       y       z     vdW  Elec       q    Type
REMARK                         _______ _______ _______ _____ _____    ______ ____
ROOT
ATOM      1  P   UNL     1       1.002  13.064  18.888  0.00  0.00    +0.000 P 
ATOM      2  O   UNL     1       2.327  12.501  18.507  0.00  0.00    +0.000 OA
ATOM      3  O   UNL     1       0.839  14.648  18.597  0.00  0.00    +0.000 OA
ATOM      4  C   UNL     1      -0.379  15.291  18.984  0.00  0.00    +0.000 C 
ATOM      5  C   UNL     1      -0.779  14.986  20.434  0.00  0.00    +0.000 C 
ATOM      6  O   UNL     1      -2.179  15.138  20.745  0.00  0.00    +0.000 OA
ATOM      7  C   UNL     1      -2.440  14.323  21.971  0.00  0.00    +0.000 C 
ATOM      8  C   UNL     1      -1.089  13.522  22.244  0.00  0.00    +0.000 C 
ATOM      9  C   UNL     1      -1.149  12.093  22.766  0.00  0.00    +0.000 C 
ATOM     10  C   UNL     1      -0.539  13.548  20.826  0.00  0.00    +0.000 C 
ATOM     11  O   UNL     1       0.757  13.092  20.508  0.00  0.00    +0.000 OA
ENDROOT
BRANCH   7  12
ATOM     12  N   UNL     1      -3.693  13.546  21.817  0.00  0.00    +0.000 N 
ATOM     13  C   UNL     1      -4.195  13.210  20.574  0.00  0.00    +0.000 A 
ATOM     14  C   UNL     1      -5.390  12.634  20.427  0.00  0.00    +0.000 A 
ATOM     15  C   UNL     1      -6.106  12.299  21.674  0.00  0.00    +0.000 A 
ATOM     16  N   UNL     1      -7.258  11.565  21.615  0.00  0.00    +0.000 N 
ATOM     17  N   UNL     1      -5.685  12.687  22.836  0.00  0.00    +0.000 NA
ATOM     18  C   UNL     1      -4.540  13.438  22.937  0.00  0.00    +0.000 A 
ATOM     19  O   UNL     1      -4.258  14.002  23.995  0.00  0.00    +0.000 OA
ATOM     20  H   UNL     1      -7.841  11.646  20.790  0.00  0.00    +0.000 HD
ATOM     21  H   UNL     1      -7.791  11.571  22.484  0.00  0.00    +0.000 HD
ENDBRANCH   7  12
BRANCH   1  22
ATOM     22  N   UNL     1      -0.339  12.389  18.279  0.00  0.00    +0.000 NA
ATOM     23  H   UNL     1      -0.300  12.394  17.275  0.00  0.00    +0.000 HD
BRANCH  22  24
ATOM     24  C   UNL     1      -1.102  11.204  18.660  0.00  0.00    +0.000 C 
BRANCH  24  25
ATOM     25  C   UNL     1      -0.247  10.039  19.187  0.00  0.00    +0.000 C 
ATOM     26  O   UNL     1      -0.325   9.630  20.341  0.00  0.00    +0.000 OA
BRANCH  25  27
ATOM     27  O   UNL     1       0.641   9.551  18.277  0.00  0.00    +0.000 OA
BRANCH  27  29
ATOM     28  C   UNL     1       2.616   8.217  17.720  0.00  0.00    +0.000 C 
ATOM     29  C   UNL     1       1.754   8.813  18.818  0.00  0.00    +0.000 C 
ENDBRANCH  27  29
ENDBRANCH  25  27
ENDBRANCH  24  25
BRANCH  24  30
ATOM     30  C   UNL     1      -1.835  10.872  17.327  0.00  0.00    +0.000 C 
ATOM     31  C   UNL     1      -3.329  11.112  17.226  0.00  0.00    +0.000 C 
ENDBRANCH  24  30
ENDBRANCH  22  24
ENDBRANCH   1  22
BRANCH   8  32
ATOM     32  O   UNL     1      -0.255  14.299  23.125  0.00  0.00    +0.000 OA
ATOM     33  H   UNL     1      -0.720  14.408  23.974  0.00  0.00    +0.000 HD
ENDBRANCH   8  32
TORSDOF 8
ENDMDL
MODEL 9
REMARK VINA RESULT:      -5.6      1.018      1.400
REMARK  Name = 
REMARK  11 active torsions:
REMARK  status: ('A' for Active; 'I' for Inactive)
REMARK    1  A    between atoms: C_1  and  C_2
REMARK    2  A    between atoms: C_2  and  O_3
REMARK    3  A    between atoms: O_3  and  C_4
REMARK    4  A    between atoms: C_4  and  C_6
REMARK    5  A    between atoms: C_6  and  C_7
REMARK    6  A    between atoms: C_6  and  N_9
REMARK    7  A    between atoms: C_7  and  C_8
REMARK    8  A    between atoms: N_9  and  P_10
REMARK    9  A    between atoms: C_16  and  N_17
REMARK   10  A    between atoms: C_25  and  C_26
REMARK   11  A    between atoms: C_25  and  O_27
REMARK                            x       y       z     vdW  Elec       q    Type
REMARK                         _______ _______ _______ _____ _____    ______ ____
ROOT
ATOM      1  P   UNL     1       0.759  13.532  20.385  0.00  0.00    +0.000 P 
ATOM      2  O   UNL     1       2.208  13.203  20.483  0.00  0.00    +0.000 OA
ATOM      3  O   UNL     1       0.445  15.095  20.102  0.00  0.00    +0.000 OA
ATOM      4  C   UNL     1      -0.921  15.518  20.051  0.00  0.00    +0.000 C 
ATOM      5  C   UNL     1      -1.741  15.033  21.255  0.00  0.00    +0.000 C 
ATOM      6  O   UNL     1      -3.166  14.953  21.054  0.00  0.00    +0.000 OA
ATOM      7  C   UNL     1      -3.694  14.005  22.083  0.00  0.00    +0.000 C 
ATOM      8  C   UNL     1      -2.407  13.389  22.794  0.00  0.00    +0.000 C 
ATOM      9  C   UNL     1      -2.404  11.927  23.217  0.00  0.00    +0.000 C 
ATOM     10  C   UNL     1      -1.414  13.618  21.664  0.00  0.00    +0.000 C 
ATOM     11  O   UNL     1      -0.032  13.384  21.813  0.00  0.00    +0.000 OA
ENDROOT
BRANCH   7  12
ATOM     12  N   UNL     1      -4.669  13.071  21.472  0.00  0.00    +0.000 N 
ATOM     13  C   UNL     1      -4.610  12.726  20.135  0.00  0.00    +0.000 A 
ATOM     14  C   UNL     1      -5.563  11.998  19.550  0.00  0.00    +0.000 A 
ATOM     15  C   UNL     1      -6.640  11.510  20.434  0.00  0.00    +0.000 A 
ATOM     16  N   UNL     1      -7.564  10.627  19.949  0.00  0.00    +0.000 N 
ATOM     17  N   UNL     1      -6.750  11.898  21.664  0.00  0.00    +0.000 NA
ATOM     18  C   UNL     1      -5.850  12.795  22.186  0.00  0.00    +0.000 A 
ATOM     19  O   UNL     1      -6.074  13.343  23.267  0.00  0.00    +0.000 OA
ATOM     20  H   UNL     1      -7.798  10.665  18.963  0.00  0.00    +0.000 HD
ATOM     21  H   UNL     1      -8.381  10.519  20.550  0.00  0.00    +0.000 HD
ENDBRANCH   7  12
BRANCH   1  22
ATOM     22  N   UNL     1      -0.157  12.725  19.320  0.00  0.00    +0.000 NA
ATOM     23  H   UNL     1       0.250  12.783  18.403  0.00  0.00    +0.000 HD
BRANCH  22  24
ATOM     24  C   UNL     1      -0.839  11.435  19.391  0.00  0.00    +0.000 C 
BRANCH  24  25
ATOM     25  C   UNL     1       0.091  10.235  19.638  0.00  0.00    +0.000 C 
ATOM     26  O   UNL     1      -0.151   9.373  20.476  0.00  0.00    +0.000 OA
BRANCH  25  27
ATOM     27  O   UNL     1       1.229  10.257  18.891  0.00  0.00    +0.000 OA
BRANCH  27  29
ATOM     28  C   UNL     1       2.526   8.389  17.987  0.00  0.00    +0.000 C 
ATOM     29  C   UNL     1       1.306   9.278  17.836  0.00  0.00    +0.000 C 
ENDBRANCH  27  29
ENDBRANCH  25  27
ENDBRANCH  24  25
BRANCH  24  30
ATOM     30  C   UNL     1      -1.545  11.388  18.004  0.00  0.00    +0.000 C 
ATOM     31  C   UNL     1      -2.302  10.137  17.602  0.00  0.00    +0.000 C 
ENDBRANCH  24  30
ENDBRANCH  22  24
ENDBRANCH   1  22
BRANCH   8  32
ATOM     32  O   UNL     1      -2.070  14.199  23.936  0.00  0.00    +0.000 OA
ATOM     33  H   UNL     1      -1.728  13.617  24.638  0.00  0.00    +0.000 HD
ENDBRANCH   8  32
TORSDOF 8
ENDMDL
