MODEL 1
REMARK VINA RESULT:      -8.4      0.000      0.000
REMARK  Name = 
REMARK  13 active torsions:
REMARK  status: ('A' for Active; 'I' for Inactive)
REMARK    1  A    between atoms: C_1  and  N_2
REMARK    2  A    between atoms: N_2  and  C_3
REMARK    3  A    between atoms: N_2  and  C_10
REMARK    4  A    between atoms: C_3  and  C_4
REMARK    5  A    between atoms: C_10  and  C_11
REMARK    6  A    between atoms: C_11  and  C_12
REMARK    7  A    between atoms: C_11  and  C_13
REMARK    8  A    between atoms: C_11  and  C_14
REMARK    9  A    between atoms: C_14  and  N_15
REMARK   10  A    between atoms: N_15  and  C_16
REMARK   11  A    between atoms: C_16  and  C_17
REMARK   12  A    between atoms: C_22  and  N_23
REMARK   13  A    between atoms: C_26  and  C_27
REMARK                            x       y       z     vdW  Elec       q    Type
REMARK                         _______ _______ _______ _____ _____    ______ ____
ROOT
ATOM      1  C   UNL     1       2.546   6.544  19.295  0.00  0.00    +0.000 C 
ENDROOT
BRANCH   1   2
ATOM      2  C   UNL     1       2.406   5.067  19.603  0.00  0.00    +0.000 A 
ATOM      3  C   UNL     1       1.350   4.683  20.457  0.00  0.00    +0.000 A 
ATOM      4  C   UNL     1       1.136   3.347  20.751  0.00  0.00    +0.000 A 
ATOM      5  C   UNL     1       1.981   2.431  20.167  0.00  0.00    +0.000 A 
ATOM      6  N   UNL     1       3.009   2.761  19.355  0.00  0.00    +0.000 NA
ATOM      7  C   UNL     1       3.256   4.070  19.089  0.00  0.00    +0.000 A 
BRANCH   7   8
ATOM      8  N   UNL     1       4.368   4.332  18.313  0.00  0.00    +0.000 N 
ATOM      9  C   UNL     1       5.650   4.557  18.964  0.00  0.00    +0.000 C 
ATOM     10  C   UNL     1       6.258   5.887  18.523  0.00  0.00    +0.000 C 
ATOM     11  C   UNL     1       6.321   6.006  16.996  0.00  0.00    +0.000 C 
ATOM     12  C   UNL     1       4.925   5.808  16.413  0.00  0.00    +0.000 C 
ATOM     13  C   UNL     1       4.282   4.503  16.868  0.00  0.00    +0.000 C 
BRANCH  11  14
ATOM     14  C   UNL     1       7.327   5.045  16.375  0.00  0.00    +0.000 C 
ATOM     15  N   UNL     1       7.385   5.081  15.007  0.00  0.00    +0.000 N 
ATOM     16  O   UNL     1       8.032   4.261  16.993  0.00  0.00    +0.000 OA
ATOM     17  H   UNL     1       6.731   5.601  14.439  0.00  0.00    +0.000 HD
ATOM     18  H   UNL     1       7.998   4.416  14.552  0.00  0.00    +0.000 HD
ENDBRANCH  11  14
ENDBRANCH   7   8
ENDBRANCH   1   2
BRANCH   1  19
ATOM     19  N   UNL     1       2.095   7.316  20.444  0.00  0.00    +0.000 NA
ATOM     20  H   UNL     1       1.504   6.713  21.006  0.00  0.00    +0.000 HD
BRANCH  19  21
ATOM     21  C   UNL     1       1.437   8.577  20.124  0.00  0.00    +0.000 C 
BRANCH  21  22
ATOM     22  C   UNL     1       0.773   9.232  21.388  0.00  0.00    +0.000 C 
ATOM     23  C   UNL     1       1.691   9.056  22.617  0.00  0.00    +0.000 C 
ATOM     24  C   UNL     1      -0.584   8.536  21.652  0.00  0.00    +0.000 C 
BRANCH  22  25
ATOM     25  C   UNL     1       0.618  10.772  21.081  0.00  0.00    +0.000 C 
BRANCH  25  27
ATOM     26  C   UNL     1      -1.047  12.376  21.769  0.00  0.00    +0.000 C 
ATOM     27  N   UNL     1      -0.719  11.341  20.771  0.00  0.00    +0.000 NA
BRANCH  27  28
ATOM     28  C   UNL     1      -0.786  11.920  19.424  0.00  0.00    +0.000 C 
BRANCH  28  29
ATOM     29  C   UNL     1      -1.923  11.440  18.561  0.00  0.00    +0.000 A 
ATOM     30  C   UNL     1      -1.707  10.446  17.602  0.00  0.00    +0.000 A 
ATOM     31  C   UNL     1      -2.779   9.941  16.868  0.00  0.00    +0.000 A 
ATOM     32  C   UNL     1      -4.069  10.425  17.095  0.00  0.00    +0.000 A 
ATOM     33  C   UNL     1      -4.291  11.415  18.054  0.00  0.00    +0.000 A 
ATOM     34  C   UNL     1      -3.221  11.921  18.783  0.00  0.00    +0.000 A 
ENDBRANCH  28  29
ENDBRANCH  27  28
ENDBRANCH  25  27
ENDBRANCH  22  25
ENDBRANCH  21  22
ENDBRANCH  19  21
ENDBRANCH   1  19
TORSDOF 10
ENDMDL
MODEL 2
REMARK VINA RESULT:      -7.9      1.181      1.571
REMARK  Name = 
REMARK  13 active torsions:
REMARK  status: ('A' for Active; 'I' for Inactive)
REMARK    1  A    between atoms: C_1  and  N_2
REMARK    2  A    between atoms: N_2  and  C_3
REMARK    3  A    between atoms: N_2  and  C_10
REMARK    4  A    between atoms: C_3  and  C_4
REMARK    5  A    between atoms: C_10  and  C_11
REMARK    6  A    between atoms: C_11  and  C_12
REMARK    7  A    between atoms: C_11  and  C_13
REMARK    8  A    between atoms: C_11  and  C_14
REMARK    9  A    between atoms: C_14  and  N_15
REMARK   10  A    between atoms: N_15  and  C_16
REMARK   11  A    between atoms: C_16  and  C_17
REMARK   12  A    between atoms: C_22  and  N_23
REMARK   13  A    between atoms: C_26  and  C_27
REMARK                            x       y       z     vdW  Elec       q    Type
REMARK                         _______ _______ _______ _____ _____    ______ ____
ROOT
ATOM      1  C   UNL     1       2.405   6.192  19.821  0.00  0.00    +0.000 C 
ENDROOT
BRANCH   1   2
ATOM      2  C   UNL     1       2.129   4.710  19.669  0.00  0.00    +0.000 A 
ATOM      3  C   UNL     1       0.966   4.203  20.289  0.00  0.00    +0.000 A 
ATOM      4  C   UNL     1       0.628   2.867  20.158  0.00  0.00    +0.000 A 
ATOM      5  C   UNL     1       1.460   2.078  19.397  0.00  0.00    +0.000 A 
ATOM      6  N   UNL     1       2.587   2.525  18.799  0.00  0.00    +0.000 NA
ATOM      7  C   UNL     1       2.953   3.823  18.951  0.00  0.00    +0.000 A 
BRANCH   7   8
ATOM      8  N   UNL     1       4.154   4.187  18.374  0.00  0.00    +0.000 N 
ATOM      9  C   UNL     1       5.382   4.040  19.141  0.00  0.00    +0.000 C 
ATOM     10  C   UNL     1       6.149   5.359  19.198  0.00  0.00    +0.000 C 
ATOM     11  C   UNL     1       6.370   5.950  17.801  0.00  0.00    +0.000 C 
ATOM     12  C   UNL     1       5.025   6.115  17.100  0.00  0.00    +0.000 C 
ATOM     13  C   UNL     1       4.225   4.818  17.062  0.00  0.00    +0.000 C 
BRANCH  11  14
ATOM     14  C   UNL     1       7.340   5.127  16.964  0.00  0.00    +0.000 C 
ATOM     15  N   UNL     1       8.121   4.258  17.680  0.00  0.00    +0.000 N 
ATOM     16  O   UNL     1       7.477   5.209  15.752  0.00  0.00    +0.000 OA
ATOM     17  H   UNL     1       8.154   4.249  18.690  0.00  0.00    +0.000 HD
ATOM     18  H   UNL     1       8.820   3.735  17.168  0.00  0.00    +0.000 HD
ENDBRANCH  11  14
ENDBRANCH   7   8
ENDBRANCH   1   2
BRANCH   1  19
ATOM     19  N   UNL     1       1.690   6.693  20.986  0.00  0.00    +0.000 NA
ATOM     20  H   UNL     1       0.702   6.519  20.838  0.00  0.00    +0.000 HD
BRANCH  19  21
ATOM     21  C   UNL     1       1.952   8.088  21.321  0.00  0.00    +0.000 C 
BRANCH  21  22
ATOM     22  C   UNL     1       0.696   8.999  21.073  0.00  0.00    +0.000 C 
ATOM     23  C   UNL     1       0.638  10.118  22.136  0.00  0.00    +0.000 C 
ATOM     24  C   UNL     1      -0.578   8.125  21.172  0.00  0.00    +0.000 C 
BRANCH  22  25
ATOM     25  C   UNL     1       0.876   9.654  19.649  0.00  0.00    +0.000 C 
BRANCH  25  27
ATOM     26  C   UNL     1       0.305  11.842  18.809  0.00  0.00    +0.000 C 
ATOM     27  N   UNL     1      -0.210  10.484  19.066  0.00  0.00    +0.000 NA
BRANCH  27  28
ATOM     28  C   UNL     1      -0.744   9.918  17.821  0.00  0.00    +0.000 C 
BRANCH  28  29
ATOM     29  C   UNL     1      -2.118  10.390  17.425  0.00  0.00    +0.000 A 
ATOM     30  C   UNL     1      -2.982  10.924  18.385  0.00  0.00    +0.000 A 
ATOM     31  C   UNL     1      -4.218  11.441  17.999  0.00  0.00    +0.000 A 
ATOM     32  C   UNL     1      -4.589  11.430  16.653  0.00  0.00    +0.000 A 
ATOM     33  C   UNL     1      -3.729  10.901  15.690  0.00  0.00    +0.000 A 
ATOM     34  C   UNL     1      -2.497  10.381  16.075  0.00  0.00    +0.000 A 
ENDBRANCH  28  29
ENDBRANCH  27  28
ENDBRANCH  25  27
ENDBRANCH  22  25
ENDBRANCH  21  22
ENDBRANCH  19  21
ENDBRANCH   1  19
TORSDOF 10
ENDMDL
MODEL 3
REMARK VINA RESULT:      -7.8      0.906      1.270
REMARK  Name = 
REMARK  13 active torsions:
REMARK  status: ('A' for Active; 'I' for Inactive)
REMARK    1  A    between atoms: C_1  and  N_2
REMARK    2  A    between atoms: N_2  and  C_3
REMARK    3  A    between atoms: N_2  and  C_10
REMARK    4  A    between atoms: C_3  and  C_4
REMARK    5  A    between atoms: C_10  and  C_11
REMARK    6  A    between atoms: C_11  and  C_12
REMARK    7  A    between atoms: C_11  and  C_13
REMARK    8  A    between atoms: C_11  and  C_14
REMARK    9  A    between atoms: C_14  and  N_15
REMARK   10  A    between atoms: N_15  and  C_16
REMARK   11  A    between atoms: C_16  and  C_17
REMARK   12  A    between atoms: C_22  and  N_23
REMARK   13  A    between atoms: C_26  and  C_27
REMARK                            x       y       z     vdW  Elec       q    Type
REMARK                         _______ _______ _______ _____ _____    ______ ____
ROOT
ATOM      1  C   UNL     1       2.028   5.949  19.536  0.00  0.00    +0.000 C 
ENDROOT
BRANCH   1   2
ATOM      2  C   UNL     1       2.461   4.624  20.130  0.00  0.00    +0.000 A 
ATOM      3  C   UNL     1       1.655   4.080  21.153  0.00  0.00    +0.000 A 
ATOM      4  C   UNL     1       1.966   2.854  21.715  0.00  0.00    +0.000 A 
ATOM      5  C   UNL     1       3.072   2.199  21.223  0.00  0.00    +0.000 A 
ATOM      6  N   UNL     1       3.874   2.692  20.254  0.00  0.00    +0.000 NA
ATOM      7  C   UNL     1       3.604   3.912  19.721  0.00  0.00    +0.000 A 
BRANCH   7   8
ATOM      8  N   UNL     1       4.511   4.382  18.791  0.00  0.00    +0.000 N 
ATOM      9  C   UNL     1       5.186   5.647  19.035  0.00  0.00    +0.000 C 
ATOM     10  C   UNL     1       4.993   6.603  17.859  0.00  0.00    +0.000 C 
ATOM     11  C   UNL     1       5.382   5.952  16.527  0.00  0.00    +0.000 C 
ATOM     12  C   UNL     1       4.584   4.665  16.339  0.00  0.00    +0.000 C 
ATOM     13  C   UNL     1       4.733   3.709  17.517  0.00  0.00    +0.000 C 
BRANCH  11  14
ATOM     14  C   UNL     1       6.880   5.703  16.412  0.00  0.00    +0.000 C 
ATOM     15  N   UNL     1       7.664   6.802  16.651  0.00  0.00    +0.000 N 
ATOM     16  O   UNL     1       7.400   4.641  16.106  0.00  0.00    +0.000 OA
ATOM     17  H   UNL     1       7.289   7.733  16.766  0.00  0.00    +0.000 HD
ATOM     18  H   UNL     1       8.662   6.693  16.526  0.00  0.00    +0.000 HD
ENDBRANCH  11  14
ENDBRANCH   7   8
ENDBRANCH   1   2
BRANCH   1  19
ATOM     19  N   UNL     1       2.114   6.981  20.559  0.00  0.00    +0.000 NA
ATOM     20  H   UNL     1       1.610   6.648  21.374  0.00  0.00    +0.000 HD
BRANCH  19  21
ATOM     21  C   UNL     1       1.664   8.304  20.144  0.00  0.00    +0.000 C 
BRANCH  21  22
ATOM     22  C   UNL     1       0.863   9.037  21.280  0.00  0.00    +0.000 C 
ATOM     23  C   UNL     1       1.704   9.079  22.575  0.00  0.00    +0.000 C 
ATOM     24  C   UNL     1      -0.450   8.260  21.541  0.00  0.00    +0.000 C 
BRANCH  22  25
ATOM     25  C   UNL     1       0.610  10.514  20.786  0.00  0.00    +0.000 C 
BRANCH  25  27
ATOM     26  C   UNL     1      -0.739  11.946  22.181  0.00  0.00    +0.000 C 
ATOM     27  N   UNL     1      -0.729  11.137  20.949  0.00  0.00    +0.000 NA
BRANCH  27  28
ATOM     28  C   UNL     1      -1.101  11.979  19.805  0.00  0.00    +0.000 C 
BRANCH  28  29
ATOM     29  C   UNL     1      -1.937  11.310  18.745  0.00  0.00    +0.000 A 
ATOM     30  C   UNL     1      -3.257  11.717  18.530  0.00  0.00    +0.000 A 
ATOM     31  C   UNL     1      -3.997  11.158  17.490  0.00  0.00    +0.000 A 
ATOM     32  C   UNL     1      -3.418  10.196  16.660  0.00  0.00    +0.000 A 
ATOM     33  C   UNL     1      -2.099   9.789  16.868  0.00  0.00    +0.000 A 
ATOM     34  C   UNL     1      -1.362  10.344  17.909  0.00  0.00    +0.000 A 
ENDBRANCH  28  29
ENDBRANCH  27  28
ENDBRANCH  25  27
ENDBRANCH  22  25
ENDBRANCH  21  22
ENDBRANCH  19  21
ENDBRANCH   1  19
TORSDOF 10
ENDMDL
MODEL 4
REMARK VINA RESULT:      -7.7      1.470      2.654
REMARK  Name = 
REMARK  13 active torsions:
REMARK  status: ('A' for Active; 'I' for Inactive)
REMARK    1  A    between atoms: C_1  and  N_2
REMARK    2  A    between atoms: N_2  and  C_3
REMARK    3  A    between atoms: N_2  and  C_10
REMARK    4  A    between atoms: C_3  and  C_4
REMARK    5  A    between atoms: C_10  and  C_11
REMARK    6  A    between atoms: C_11  and  C_12
REMARK    7  A    between atoms: C_11  and  C_13
REMARK    8  A    between atoms: C_11  and  C_14
REMARK    9  A    between atoms: C_14  and  N_15
REMARK   10  A    between atoms: N_15  and  C_16
REMARK   11  A    between atoms: C_16  and  C_17
REMARK   12  A    between atoms: C_22  and  N_23
REMARK   13  A    between atoms: C_26  and  C_27
REMARK                            x       y       z     vdW  Elec       q    Type
REMARK                         _______ _______ _______ _____ _____    ______ ____
ROOT
ATOM      1  C   UNL     1       2.959   7.009  19.543  0.00  0.00    +0.000 C 
ENDROOT
BRANCH   1   2
ATOM      2  C   UNL     1       2.571   5.551  19.678  0.00  0.00    +0.000 A 
ATOM      3  C   UNL     1       1.471   5.249  20.509  0.00  0.00    +0.000 A 
ATOM      4  C   UNL     1       1.034   3.943  20.647  0.00  0.00    +0.000 A 
ATOM      5  C   UNL     1       1.706   2.975  19.936  0.00  0.00    +0.000 A 
ATOM      6  N   UNL     1       2.770   3.224  19.141  0.00  0.00    +0.000 NA
ATOM      7  C   UNL     1       3.235   4.495  19.026  0.00  0.00    +0.000 A 
BRANCH   7   8
ATOM      8  N   UNL     1       4.370   4.658  18.257  0.00  0.00    +0.000 N 
ATOM      9  C   UNL     1       5.674   4.630  18.903  0.00  0.00    +0.000 C 
ATOM     10  C   UNL     1       6.473   5.889  18.571  0.00  0.00    +0.000 C 
ATOM     11  C   UNL     1       6.546   6.136  17.059  0.00  0.00    +0.000 C 
ATOM     12  C   UNL     1       5.134   6.201  16.486  0.00  0.00    +0.000 C 
ATOM     13  C   UNL     1       4.304   4.971  16.834  0.00  0.00    +0.000 C 
BRANCH  11  14
ATOM     14  C   UNL     1       7.394   5.097  16.338  0.00  0.00    +0.000 C 
ATOM     15  N   UNL     1       7.372   5.187  14.970  0.00  0.00    +0.000 N 
ATOM     16  O   UNL     1       8.040   4.210  16.877  0.00  0.00    +0.000 OA
ATOM     17  H   UNL     1       6.748   5.803  14.468  0.00  0.00    +0.000 HD
ATOM     18  H   UNL     1       7.874   4.479  14.452  0.00  0.00    +0.000 HD
ENDBRANCH  11  14
ENDBRANCH   7   8
ENDBRANCH   1   2
BRANCH   1  19
ATOM     19  N   UNL     1       1.784   7.839  19.776  0.00  0.00    +0.000 NA
ATOM     20  H   UNL     1       0.984   7.221  19.854  0.00  0.00    +0.000 HD
BRANCH  19  21
ATOM     21  C   UNL     1       1.565   8.892  18.792  0.00  0.00    +0.000 C 
BRANCH  21  22
ATOM     22  C   UNL     1       0.739  10.089  19.385  0.00  0.00    +0.000 C 
ATOM     23  C   UNL     1      -0.736   9.983  18.942  0.00  0.00    +0.000 C 
ATOM     24  C   UNL     1       1.342  11.415  18.861  0.00  0.00    +0.000 C 
BRANCH  22  25
ATOM     25  C   UNL     1       0.813   9.966  20.956  0.00  0.00    +0.000 C 
BRANCH  25  27
ATOM     26  C   UNL     1      -0.294   9.436  23.033  0.00  0.00    +0.000 C 
ATOM     27  N   UNL     1      -0.399  10.209  21.782  0.00  0.00    +0.000 NA
BRANCH  27  28
ATOM     28  C   UNL     1      -0.588  11.630  22.098  0.00  0.00    +0.000 C 
BRANCH  28  29
ATOM     29  C   UNL     1      -2.010  12.125  22.059  0.00  0.00    +0.000 A 
ATOM     30  C   UNL     1      -2.739  12.264  23.244  0.00  0.00    +0.000 A 
ATOM     31  C   UNL     1      -4.023  12.806  23.212  0.00  0.00    +0.000 A 
ATOM     32  C   UNL     1      -4.577  13.215  21.998  0.00  0.00    +0.000 A 
ATOM     33  C   UNL     1      -3.853  13.083  20.812  0.00  0.00    +0.000 A 
ATOM     34  C   UNL     1      -2.573  12.538  20.843  0.00  0.00    +0.000 A 
ENDBRANCH  28  29
ENDBRANCH  27  28
ENDBRANCH  25  27
ENDBRANCH  22  25
ENDBRANCH  21  22
ENDBRANCH  19  21
ENDBRANCH   1  19
TORSDOF 10
ENDMDL
MODEL 5
REMARK VINA RESULT:      -7.7      1.754      2.953
REMARK  Name = 
REMARK  13 active torsions:
REMARK  status: ('A' for Active; 'I' for Inactive)
REMARK    1  A    between atoms: C_1  and  N_2
REMARK    2  A    between atoms: N_2  and  C_3
REMARK    3  A    between atoms: N_2  and  C_10
REMARK    4  A    between atoms: C_3  and  C_4
REMARK    5  A    between atoms: C_10  and  C_11
REMARK    6  A    between atoms: C_11  and  C_12
REMARK    7  A    between atoms: C_11  and  C_13
REMARK    8  A    between atoms: C_11  and  C_14
REMARK    9  A    between atoms: C_14  and  N_15
REMARK   10  A    between atoms: N_15  and  C_16
REMARK   11  A    between atoms: C_16  and  C_17
REMARK   12  A    between atoms: C_22  and  N_23
REMARK   13  A    between atoms: C_26  and  C_27
REMARK                            x       y       z     vdW  Elec       q    Type
REMARK                         _______ _______ _______ _____ _____    ______ ____
ROOT
ATOM      1  C   UNL     1       2.574   6.703  19.252  0.00  0.00    +0.000 C 
ENDROOT
BRANCH   1   2
ATOM      2  C   UNL     1       2.429   5.239  19.614  0.00  0.00    +0.000 A 
ATOM      3  C   UNL     1       1.376   4.891  20.487  0.00  0.00    +0.000 A 
ATOM      4  C   UNL     1       1.158   3.568  20.830  0.00  0.00    +0.000 A 
ATOM      5  C   UNL     1       1.996   2.627  20.276  0.00  0.00    +0.000 A 
ATOM      6  N   UNL     1       3.021   2.923  19.447  0.00  0.00    +0.000 NA
ATOM      7  C   UNL     1       3.272   4.220  19.133  0.00  0.00    +0.000 A 
BRANCH   7   8
ATOM      8  N   UNL     1       4.381   4.449  18.342  0.00  0.00    +0.000 N 
ATOM      9  C   UNL     1       5.680   4.623  18.976  0.00  0.00    +0.000 C 
ATOM     10  C   UNL     1       6.328   5.934  18.535  0.00  0.00    +0.000 C 
ATOM     11  C   UNL     1       6.373   6.063  17.008  0.00  0.00    +0.000 C 
ATOM     12  C   UNL     1       4.962   5.919  16.445  0.00  0.00    +0.000 C 
ATOM     13  C   UNL     1       4.280   4.634  16.899  0.00  0.00    +0.000 C 
BRANCH  11  14
ATOM     14  C   UNL     1       7.335   5.072  16.365  0.00  0.00    +0.000 C 
ATOM     15  N   UNL     1       7.378   5.120  14.996  0.00  0.00    +0.000 N 
ATOM     16  O   UNL     1       8.017   4.256  16.966  0.00  0.00    +0.000 OA
ATOM     17  H   UNL     1       6.736   5.670  14.443  0.00  0.00    +0.000 HD
ATOM     18  H   UNL     1       7.960   4.438  14.528  0.00  0.00    +0.000 HD
ENDBRANCH  11  14
ENDBRANCH   7   8
ENDBRANCH   1   2
BRANCH   1  19
ATOM     19  N   UNL     1       2.207   7.518  20.402  0.00  0.00    +0.000 NA
ATOM     20  H   UNL     1       1.755   6.910  21.076  0.00  0.00    +0.000 HD
BRANCH  19  21
ATOM     21  C   UNL     1       1.397   8.690  20.097  0.00  0.00    +0.000 C 
BRANCH  21  22
ATOM     22  C   UNL     1       0.498   9.118  21.313  0.00  0.00    +0.000 C 
ATOM     23  C   UNL     1       1.375   9.332  22.567  0.00  0.00    +0.000 C 
ATOM     24  C   UNL     1      -0.531   7.995  21.587  0.00  0.00    +0.000 C 
BRANCH  22  25
ATOM     25  C   UNL     1      -0.182  10.487  20.925  0.00  0.00    +0.000 C 
BRANCH  25  27
ATOM     26  C   UNL     1      -1.072  10.338  18.688  0.00  0.00    +0.000 C 
ATOM     27  N   UNL     1      -0.072  11.009  19.538  0.00  0.00    +0.000 NA
BRANCH  27  28
ATOM     28  C   UNL     1      -0.264  12.463  19.468  0.00  0.00    +0.000 C 
BRANCH  28  29
ATOM     29  C   UNL     1       0.907  13.252  18.943  0.00  0.00    +0.000 A 
ATOM     30  C   UNL     1       0.867  14.650  18.938  0.00  0.00    +0.000 A 
ATOM     31  C   UNL     1       1.986  15.377  18.535  0.00  0.00    +0.000 A 
ATOM     32  C   UNL     1       3.148  14.710  18.144  0.00  0.00    +0.000 A 
ATOM     33  C   UNL     1       3.195  13.314  18.151  0.00  0.00    +0.000 A 
ATOM     34  C   UNL     1       2.077  12.589  18.549  0.00  0.00    +0.000 A 
ENDBRANCH  28  29
ENDBRANCH  27  28
ENDBRANCH  25  27
ENDBRANCH  22  25
ENDBRANCH  21  22
ENDBRANCH  19  21
ENDBRANCH   1  19
TORSDOF 10
ENDMDL
MODEL 6
REMARK VINA RESULT:      -7.7      1.874      2.419
REMARK  Name = 
REMARK  13 active torsions:
REMARK  status: ('A' for Active; 'I' for Inactive)
REMARK    1  A    between atoms: C_1  and  N_2
REMARK    2  A    between atoms: N_2  and  C_3
REMARK    3  A    between atoms: N_2  and  C_10
REMARK    4  A    between atoms: C_3  and  C_4
REMARK    5  A    between atoms: C_10  and  C_11
REMARK    6  A    between atoms: C_11  and  C_12
REMARK    7  A    between atoms: C_11  and  C_13
REMARK    8  A    between atoms: C_11  and  C_14
REMARK    9  A    between atoms: C_14  and  N_15
REMARK   10  A    between atoms: N_15  and  C_16
REMARK   11  A    between atoms: C_16  and  C_17
REMARK   12  A    between atoms: C_22  and  N_23
REMARK   13  A    between atoms: C_26  and  C_27
REMARK                            x       y       z     vdW  Elec       q    Type
REMARK                         _______ _______ _______ _____ _____    ______ ____
ROOT
ATOM      1  C   UNL     1       2.593   6.540  19.810  0.00  0.00    +0.000 C 
ENDROOT
BRANCH   1   2
ATOM      2  C   UNL     1       2.310   5.052  19.769  0.00  0.00    +0.000 A 
ATOM      3  C   UNL     1       1.211   4.583  20.518  0.00  0.00    +0.000 A 
ATOM      4  C   UNL     1       0.868   3.242  20.496  0.00  0.00    +0.000 A 
ATOM      5  C   UNL     1       1.631   2.409  19.710  0.00  0.00    +0.000 A 
ATOM      6  N   UNL     1       2.697   2.820  18.989  0.00  0.00    +0.000 NA
ATOM      7  C   UNL     1       3.070   4.125  19.032  0.00  0.00    +0.000 A 
BRANCH   7   8
ATOM      8  N   UNL     1       4.214   4.453  18.330  0.00  0.00    +0.000 N 
ATOM      9  C   UNL     1       5.513   4.238  18.950  0.00  0.00    +0.000 C 
ATOM     10  C   UNL     1       6.337   5.524  18.944  0.00  0.00    +0.000 C 
ATOM     11  C   UNL     1       6.425   6.139  17.542  0.00  0.00    +0.000 C 
ATOM     12  C   UNL     1       5.018   6.373  17.002  0.00  0.00    +0.000 C 
ATOM     13  C   UNL     1       4.163   5.111  17.030  0.00  0.00    +0.000 C 
BRANCH  11  14
ATOM     14  C   UNL     1       7.258   5.296  16.586  0.00  0.00    +0.000 C 
ATOM     15  N   UNL     1       7.985   4.300  17.183  0.00  0.00    +0.000 N 
ATOM     16  O   UNL     1       7.336   5.465  15.378  0.00  0.00    +0.000 OA
ATOM     17  H   UNL     1       8.071   4.204  18.185  0.00  0.00    +0.000 HD
ATOM     18  H   UNL     1       8.597   3.756  16.590  0.00  0.00    +0.000 HD
ENDBRANCH  11  14
ENDBRANCH   7   8
ENDBRANCH   1   2
BRANCH   1  19
ATOM     19  N   UNL     1       1.710   7.167  20.783  0.00  0.00    +0.000 NA
ATOM     20  H   UNL     1       0.797   6.734  20.691  0.00  0.00    +0.000 HD
BRANCH  19  21
ATOM     21  C   UNL     1       1.634   8.620  20.705  0.00  0.00    +0.000 C 
BRANCH  21  22
ATOM     22  C   UNL     1       0.387   9.187  21.474  0.00  0.00    +0.000 C 
ATOM     23  C   UNL     1       0.776   9.529  22.929  0.00  0.00    +0.000 C 
ATOM     24  C   UNL     1      -0.726   8.112  21.476  0.00  0.00    +0.000 C 
BRANCH  22  25
ATOM     25  C   UNL     1      -0.048  10.512  20.736  0.00  0.00    +0.000 C 
BRANCH  25  27
ATOM     26  C   UNL     1       1.166  12.086  19.370  0.00  0.00    +0.000 C 
ATOM     27  N   UNL     1       0.840  11.704  20.756  0.00  0.00    +0.000 NA
BRANCH  27  28
ATOM     28  C   UNL     1       0.232  12.846  21.450  0.00  0.00    +0.000 C 
BRANCH  28  29
ATOM     29  C   UNL     1      -1.233  12.711  21.772  0.00  0.00    +0.000 A 
ATOM     30  C   UNL     1      -1.638  12.307  23.048  0.00  0.00    +0.000 A 
ATOM     31  C   UNL     1      -2.994  12.269  23.369  0.00  0.00    +0.000 A 
ATOM     32  C   UNL     1      -3.946  12.642  22.418  0.00  0.00    +0.000 A 
ATOM     33  C   UNL     1      -3.548  13.050  21.144  0.00  0.00    +0.000 A 
ATOM     34  C   UNL     1      -2.195  13.083  20.823  0.00  0.00    +0.000 A 
ENDBRANCH  28  29
ENDBRANCH  27  28
ENDBRANCH  25  27
ENDBRANCH  22  25
ENDBRANCH  21  22
ENDBRANCH  19  21
ENDBRANCH   1  19
TORSDOF 10
ENDMDL
MODEL 7
REMARK VINA RESULT:      -7.6      1.780      3.038
REMARK  Name = 
REMARK  13 active torsions:
REMARK  status: ('A' for Active; 'I' for Inactive)
REMARK    1  A    between atoms: C_1  and  N_2
REMARK    2  A    between atoms: N_2  and  C_3
REMARK    3  A    between atoms: N_2  and  C_10
REMARK    4  A    between atoms: C_3  and  C_4
REMARK    5  A    between atoms: C_10  and  C_11
REMARK    6  A    between atoms: C_11  and  C_12
REMARK    7  A    between atoms: C_11  and  C_13
REMARK    8  A    between atoms: C_11  and  C_14
REMARK    9  A    between atoms: C_14  and  N_15
REMARK   10  A    between atoms: N_15  and  C_16
REMARK   11  A    between atoms: C_16  and  C_17
REMARK   12  A    between atoms: C_22  and  N_23
REMARK   13  A    between atoms: C_26  and  C_27
REMARK                            x       y       z     vdW  Elec       q    Type
REMARK                         _______ _______ _______ _____ _____    ______ ____
ROOT
ATOM      1  C   UNL     1       2.754   7.093  19.472  0.00  0.00    +0.000 C 
ENDROOT
BRANCH   1   2
ATOM      2  C   UNL     1       2.626   5.605  19.721  0.00  0.00    +0.000 A 
ATOM      3  C   UNL     1       1.650   5.186  20.651  0.00  0.00    +0.000 A 
ATOM      4  C   UNL     1       1.449   3.840  20.899  0.00  0.00    +0.000 A 
ATOM      5  C   UNL     1       2.225   2.947  20.196  0.00  0.00    +0.000 A 
ATOM      6  N   UNL     1       3.176   3.309  19.308  0.00  0.00    +0.000 NA
ATOM      7  C   UNL     1       3.413   4.627  19.083  0.00  0.00    +0.000 A 
BRANCH   7   8
ATOM      8  N   UNL     1       4.450   4.919  18.220  0.00  0.00    +0.000 N 
ATOM      9  C   UNL     1       4.304   4.611  16.805  0.00  0.00    +0.000 C 
ATOM     10  C   UNL     1       5.460   3.740  16.315  0.00  0.00    +0.000 C 
ATOM     11  C   UNL     1       6.822   4.350  16.669  0.00  0.00    +0.000 C 
ATOM     12  C   UNL     1       6.897   4.586  18.174  0.00  0.00    +0.000 C 
ATOM     13  C   UNL     1       5.734   5.423  18.693  0.00  0.00    +0.000 C 
BRANCH  11  14
ATOM     14  C   UNL     1       7.112   5.624  15.888  0.00  0.00    +0.000 C 
ATOM     15  N   UNL     1       6.813   5.560  14.552  0.00  0.00    +0.000 N 
ATOM     16  O   UNL     1       7.600   6.644  16.353  0.00  0.00    +0.000 OA
ATOM     17  H   UNL     1       6.545   4.704  14.087  0.00  0.00    +0.000 HD
ATOM     18  H   UNL     1       7.047   6.365  13.987  0.00  0.00    +0.000 HD
ENDBRANCH  11  14
ENDBRANCH   7   8
ENDBRANCH   1   2
BRANCH   1  19
ATOM     19  N   UNL     1       1.835   7.804  20.350  0.00  0.00    +0.000 NA
ATOM     20  H   UNL     1       1.139   7.139  20.669  0.00  0.00    +0.000 HD
BRANCH  19  21
ATOM     21  C   UNL     1       1.224   8.996  19.773  0.00  0.00    +0.000 C 
BRANCH  21  22
ATOM     22  C   UNL     1       0.125   9.609  20.714  0.00  0.00    +0.000 C 
ATOM     23  C   UNL     1       0.720  10.780  21.525  0.00  0.00    +0.000 C 
ATOM     24  C   UNL     1      -0.369   8.507  21.682  0.00  0.00    +0.000 C 
BRANCH  22  25
ATOM     25  C   UNL     1      -1.023  10.161  19.783  0.00  0.00    +0.000 C 
BRANCH  25  27
ATOM     26  C   UNL     1      -1.485  10.235  17.417  0.00  0.00    +0.000 C 
ATOM     27  N   UNL     1      -0.687  10.834  18.501  0.00  0.00    +0.000 NA
BRANCH  27  28
ATOM     28  C   UNL     1      -0.927  12.282  18.546  0.00  0.00    +0.000 C 
BRANCH  28  29
ATOM     29  C   UNL     1       0.303  13.147  18.634  0.00  0.00    +0.000 A 
ATOM     30  C   UNL     1       1.573  12.578  18.497  0.00  0.00    +0.000 A 
ATOM     31  C   UNL     1       2.704  13.394  18.489  0.00  0.00    +0.000 A 
ATOM     32  C   UNL     1       2.566  14.778  18.613  0.00  0.00    +0.000 A 
ATOM     33  C   UNL     1       1.301  15.351  18.745  0.00  0.00    +0.000 A 
ATOM     34  C   UNL     1       0.173  14.537  18.757  0.00  0.00    +0.000 A 
ENDBRANCH  28  29
ENDBRANCH  27  28
ENDBRANCH  25  27
ENDBRANCH  22  25
ENDBRANCH  21  22
ENDBRANCH  19  21
ENDBRANCH   1  19
TORSDOF 10
ENDMDL
MODEL 8
REMARK VINA RESULT:      -7.6      2.523      4.923
REMARK  Name = 
REMARK  13 active torsions:
REMARK  status: ('A' for Active; 'I' for Inactive)
REMARK    1  A    between atoms: C_1  and  N_2
REMARK    2  A    between atoms: N_2  and  C_3
REMARK    3  A    between atoms: N_2  and  C_10
REMARK    4  A    between atoms: C_3  and  C_4
REMARK    5  A    between atoms: C_10  and  C_11
REMARK    6  A    between atoms: C_11  and  C_12
REMARK    7  A    between atoms: C_11  and  C_13
REMARK    8  A    between atoms: C_11  and  C_14
REMARK    9  A    between atoms: C_14  and  N_15
REMARK   10  A    between atoms: N_15  and  C_16
REMARK   11  A    between atoms: C_16  and  C_17
REMARK   12  A    between atoms: C_22  and  N_23
REMARK   13  A    between atoms: C_26  and  C_27
REMARK                            x       y       z     vdW  Elec       q    Type
REMARK                         _______ _______ _______ _____ _____    ______ ____
ROOT
ATOM      1  C   UNL     1       4.076   7.302  17.874  0.00  0.00    +0.000 C 
ENDROOT
BRANCH   1   2
ATOM      2  C   UNL     1       4.509   6.194  16.936  0.00  0.00    +0.000 A 
ATOM      3  C   UNL     1       5.264   6.565  15.803  0.00  0.00    +0.000 A 
ATOM      4  C   UNL     1       5.729   5.602  14.924  0.00  0.00    +0.000 A 
ATOM      5  C   UNL     1       5.433   4.289  15.214  0.00  0.00    +0.000 A 
ATOM      6  N   UNL     1       4.704   3.897  16.282  0.00  0.00    +0.000 NA
ATOM      7  C   UNL     1       4.208   4.833  17.131  0.00  0.00    +0.000 A 
BRANCH   7   8
ATOM      8  N   UNL     1       3.409   4.361  18.155  0.00  0.00    +0.000 N 
ATOM      9  C   UNL     1       4.036   3.822  19.352  0.00  0.00    +0.000 C 
ATOM     10  C   UNL     1       3.531   2.410  19.644  0.00  0.00    +0.000 C 
ATOM     11  C   UNL     1       1.999   2.350  19.678  0.00  0.00    +0.000 C 
ATOM     12  C   UNL     1       1.440   2.885  18.362  0.00  0.00    +0.000 C 
ATOM     13  C   UNL     1       1.959   4.279  18.032  0.00  0.00    +0.000 C 
BRANCH  11  14
ATOM     14  C   UNL     1       1.411   3.085  20.874  0.00  0.00    +0.000 C 
ATOM     15  N   UNL     1       1.666   2.502  22.088  0.00  0.00    +0.000 N 
ATOM     16  O   UNL     1       0.732   4.100  20.819  0.00  0.00    +0.000 OA
ATOM     17  H   UNL     1       2.095   1.592  22.184  0.00  0.00    +0.000 HD
ATOM     18  H   UNL     1       1.242   2.925  22.903  0.00  0.00    +0.000 HD
ENDBRANCH  11  14
ENDBRANCH   7   8
ENDBRANCH   1   2
BRANCH   1  19
ATOM     19  N   UNL     1       3.018   8.076  17.241  0.00  0.00    +0.000 NA
ATOM     20  H   UNL     1       3.347   9.031  17.153  0.00  0.00    +0.000 HD
BRANCH  19  21
ATOM     21  C   UNL     1       1.720   8.008  17.903  0.00  0.00    +0.000 C 
BRANCH  21  22
ATOM     22  C   UNL     1       1.244   9.416  18.413  0.00  0.00    +0.000 C 
ATOM     23  C   UNL     1      -0.178   9.713  17.889  0.00  0.00    +0.000 C 
ATOM     24  C   UNL     1       2.225  10.491  17.887  0.00  0.00    +0.000 C 
BRANCH  22  25
ATOM     25  C   UNL     1       1.205   9.345  19.989  0.00  0.00    +0.000 C 
BRANCH  25  27
ATOM     26  C   UNL     1      -0.402   8.668  21.655  0.00  0.00    +0.000 C 
ATOM     27  N   UNL     1      -0.022   9.746  20.724  0.00  0.00    +0.000 NA
BRANCH  27  28
ATOM     28  C   UNL     1       0.153  10.999  21.469  0.00  0.00    +0.000 C 
BRANCH  28  29
ATOM     29  C   UNL     1       0.398  12.228  20.634  0.00  0.00    +0.000 A 
ATOM     30  C   UNL     1       1.654  12.841  20.636  0.00  0.00    +0.000 A 
ATOM     31  C   UNL     1       1.902  13.924  19.795  0.00  0.00    +0.000 A 
ATOM     32  C   UNL     1       0.897  14.393  18.946  0.00  0.00    +0.000 A 
ATOM     33  C   UNL     1      -0.358  13.782  18.937  0.00  0.00    +0.000 A 
ATOM     34  C   UNL     1      -0.607  12.704  19.780  0.00  0.00    +0.000 A 
ENDBRANCH  28  29
ENDBRANCH  27  28
ENDBRANCH  25  27
ENDBRANCH  22  25
ENDBRANCH  21  22
ENDBRANCH  19  21
ENDBRANCH   1  19
TORSDOF 10
ENDMDL
MODEL 9
REMARK VINA RESULT:      -7.6      1.573      3.168
REMARK  Name = 
REMARK  13 active torsions:
REMARK  status: ('A' for Active; 'I' for Inactive)
REMARK    1  A    between atoms: C_1  and  N_2
REMARK    2  A    between atoms: N_2  and  C_3
REMARK    3  A    between atoms: N_2  and  C_10
REMARK    4  A    between atoms: C_3  and  C_4
REMARK    5  A    between atoms: C_10  and  C_11
REMARK    6  A    between atoms: C_11  and  C_12
REMARK    7  A    between atoms: C_11  and  C_13
REMARK    8  A    between atoms: C_11  and  C_14
REMARK    9  A    between atoms: C_14  and  N_15
REMARK   10  A    between atoms: N_15  and  C_16
REMARK   11  A    between atoms: C_16  and  C_17
REMARK   12  A    between atoms: C_22  and  N_23
REMARK   13  A    between atoms: C_26  and  C_27
REMARK                            x       y       z     vdW  Elec       q    Type
REMARK                         _______ _______ _______ _____ _____    ______ ____
ROOT
ATOM      1  C   UNL     1       2.756   7.305  18.622  0.00  0.00    +0.000 C 
ENDROOT
BRANCH   1   2
ATOM      2  C   UNL     1       2.656   5.963  19.317  0.00  0.00    +0.000 A 
ATOM      3  C   UNL     1       1.647   5.814  20.293  0.00  0.00    +0.000 A 
ATOM      4  C   UNL     1       1.470   4.603  20.940  0.00  0.00    +0.000 A 
ATOM      5  C   UNL     1       2.303   3.569  20.580  0.00  0.00    +0.000 A 
ATOM      6  N   UNL     1       3.286   3.676  19.659  0.00  0.00    +0.000 NA
ATOM      7  C   UNL     1       3.498   4.868  19.045  0.00  0.00    +0.000 A 
BRANCH   7   8
ATOM      8  N   UNL     1       4.569   4.920  18.174  0.00  0.00    +0.000 N 
ATOM      9  C   UNL     1       5.913   5.067  18.711  0.00  0.00    +0.000 C 
ATOM     10  C   UNL     1       6.622   6.266  18.082  0.00  0.00    +0.000 C 
ATOM     11  C   UNL     1       6.579   6.214  16.551  0.00  0.00    +0.000 C 
ATOM     12  C   UNL     1       5.130   6.114  16.086  0.00  0.00    +0.000 C 
ATOM     13  C   UNL     1       4.390   4.945  16.727  0.00  0.00    +0.000 C 
BRANCH  11  14
ATOM     14  C   UNL     1       7.428   5.087  15.980  0.00  0.00    +0.000 C 
ATOM     15  N   UNL     1       7.486   5.048  14.611  0.00  0.00    +0.000 N 
ATOM     16  O   UNL     1       8.011   4.236  16.636  0.00  0.00    +0.000 OA
ATOM     17  H   UNL     1       6.913   5.632  14.018  0.00  0.00    +0.000 HD
ATOM     18  H   UNL     1       7.991   4.279  14.191  0.00  0.00    +0.000 HD
ENDBRANCH  11  14
ENDBRANCH   7   8
ENDBRANCH   1   2
BRANCH   1  19
ATOM     19  N   UNL     1       1.843   8.242  19.262  0.00  0.00    +0.000 NA
ATOM     20  H   UNL     1       0.998   7.734  19.498  0.00  0.00    +0.000 HD
BRANCH  19  21
ATOM     21  C   UNL     1       1.556   9.448  18.495  0.00  0.00    +0.000 C 
BRANCH  21  22
ATOM     22  C   UNL     1       0.642  10.448  19.290  0.00  0.00    +0.000 C 
ATOM     23  C   UNL     1      -0.827  10.295  18.836  0.00  0.00    +0.000 C 
ATOM     24  C   UNL     1       1.123  11.892  19.007  0.00  0.00    +0.000 C 
BRANCH  22  25
ATOM     25  C   UNL     1       0.749  10.058  20.815  0.00  0.00    +0.000 C 
BRANCH  25  27
ATOM     26  C   UNL     1      -0.546   8.345  21.912  0.00  0.00    +0.000 C 
ATOM     27  N   UNL     1      -0.479   9.785  21.605  0.00  0.00    +0.000 NA
BRANCH  27  28
ATOM     28  C   UNL     1      -0.528  10.556  22.853  0.00  0.00    +0.000 C 
BRANCH  28  29
ATOM     29  C   UNL     1      -1.295  11.851  22.792  0.00  0.00    +0.000 A 
ATOM     30  C   UNL     1      -2.607  11.914  23.269  0.00  0.00    +0.000 A 
ATOM     31  C   UNL     1      -3.282  13.134  23.293  0.00  0.00    +0.000 A 
ATOM     32  C   UNL     1      -2.643  14.293  22.847  0.00  0.00    +0.000 A 
ATOM     33  C   UNL     1      -1.331  14.236  22.373  0.00  0.00    +0.000 A 
ATOM     34  C   UNL     1      -0.660  13.018  22.345  0.00  0.00    +0.000 A 
ENDBRANCH  28  29
ENDBRANCH  27  28
ENDBRANCH  25  27
ENDBRANCH  22  25
ENDBRANCH  21  22
ENDBRANCH  19  21
ENDBRANCH   1  19
TORSDOF 10
ENDMDL
