MODEL 1
REMARK VINA RESULT:      -6.7      0.000      0.000
REMARK  Name = 
REMARK  10 active torsions:
REMARK  status: ('A' for Active; 'I' for Inactive)
REMARK    1  A    between atoms: N_1  and  C_2
REMARK    2  A    between atoms: C_2  and  C_3
REMARK    3  A    between atoms: C_3  and  N_4
REMARK    4  A    between atoms: C_3  and  C_17
REMARK    5  A    between atoms: C_5  and  C_7
REMARK    6  A    between atoms: C_7  and  N_8
REMARK    7  A    between atoms: N_8  and  C_9
REMARK    8  A    between atoms: C_9  and  C_10
REMARK    9  A    between atoms: C_20  and  C_21
REMARK   10  A    between atoms: C_21  and  O_22
REMARK                            x       y       z     vdW  Elec       q    Type
REMARK                         _______ _______ _______ _____ _____    ______ ____
ROOT
ATOM      1  N   UNL     1       5.455   4.838  17.762  0.00  0.00    +0.000 N 
ATOM      2  C   UNL     1       5.443   4.551  19.095  0.00  0.00    +0.000 C 
ATOM      3  O   UNL     1       6.369   4.900  19.816  0.00  0.00    +0.000 OA
ATOM      4  H   UNL     1       4.650   4.532  17.190  0.00  0.00    +0.000 HD
ENDROOT
BRANCH   1   5
ATOM      5  C   UNL     1       6.527   5.552  17.082  0.00  0.00    +0.000 C 
BRANCH   5   6
ATOM      6  C   UNL     1       6.595   5.093  15.651  0.00  0.00    +0.000 A 
ATOM      7  N   UNL     1       7.575   5.456  14.793  0.00  0.00    +0.000 NA
ATOM      8  C   UNL     1       7.413   4.892  13.564  0.00  0.00    +0.000 A 
ATOM      9  C   UNL     1       6.301   4.065  13.449  0.00  0.00    +0.000 A 
ATOM     10  S   UNL     1       5.482   4.059  14.916  0.00  0.00    +0.000 S 
BRANCH   9  11
ATOM     11  C   UNL     1       5.900   3.290  12.235  0.00  0.00    +0.000 C 
BRANCH  11  12
ATOM     12  O   UNL     1       6.884   2.350  11.904  0.00  0.00    +0.000 OA
ATOM     13  H   UNL     1       6.521   1.460  12.155  0.00  0.00    +0.000 HD
ENDBRANCH  11  12
ENDBRANCH   9  11
ENDBRANCH   5   6
BRANCH   5  14
ATOM     14  C   UNL     1       6.263   7.064  17.133  0.00  0.00    +0.000 C 
BRANCH  14  15
ATOM     15  N   UNL     1       7.516   7.807  17.064  0.00  0.00    +0.000 NA
ATOM     16  H   UNL     1       7.302   8.829  17.014  0.00  0.00    +0.000 HD
ATOM     17  H   UNL     1       8.037   7.540  16.197  0.00  0.00    +0.000 HD
ENDBRANCH  14  15
ENDBRANCH   5  14
ENDBRANCH   1   5
BRANCH   2  18
ATOM     18  C   UNL     1       4.292   3.781  19.699  0.00  0.00    +0.000 C 
BRANCH  18  19
ATOM     19  N   UNL     1       3.006   4.325  19.244  0.00  0.00    +0.000 NA
ATOM     20  H   UNL     1       2.374   3.525  19.017  0.00  0.00    +0.000 HD
BRANCH  19  21
ATOM     21  C   UNL     1       2.362   5.099  20.314  0.00  0.00    +0.000 C 
BRANCH  21  22
ATOM     22  C   UNL     1       2.113   6.516  19.862  0.00  0.00    +0.000 A 
ATOM     23  C   UNL     1       2.477   6.930  18.568  0.00  0.00    +0.000 A 
ATOM     24  C   UNL     1       2.241   8.245  18.155  0.00  0.00    +0.000 A 
ATOM     25  C   UNL     1       1.640   9.158  19.028  0.00  0.00    +0.000 A 
ATOM     26 CL   UNL     1       1.343  10.807  18.506  0.00  0.00    +0.000 Cl
ATOM     27  C   UNL     1       1.275   8.754  20.316  0.00  0.00    +0.000 A 
ATOM     28  C   UNL     1       1.510   7.439  20.733  0.00  0.00    +0.000 A 
ENDBRANCH  21  22
ENDBRANCH  19  21
ENDBRANCH  18  19
ENDBRANCH   2  18
TORSDOF 10
ENDMDL
MODEL 2
REMARK VINA RESULT:      -6.5      1.358      1.547
REMARK  Name = 
REMARK  10 active torsions:
REMARK  status: ('A' for Active; 'I' for Inactive)
REMARK    1  A    between atoms: N_1  and  C_2
REMARK    2  A    between atoms: C_2  and  C_3
REMARK    3  A    between atoms: C_3  and  N_4
REMARK    4  A    between atoms: C_3  and  C_17
REMARK    5  A    between atoms: C_5  and  C_7
REMARK    6  A    between atoms: C_7  and  N_8
REMARK    7  A    between atoms: N_8  and  C_9
REMARK    8  A    between atoms: C_9  and  C_10
REMARK    9  A    between atoms: C_20  and  C_21
REMARK   10  A    between atoms: C_21  and  O_22
REMARK                            x       y       z     vdW  Elec       q    Type
REMARK                         _______ _______ _______ _____ _____    ______ ____
ROOT
ATOM      1  N   UNL     1       5.245   4.927  18.500  0.00  0.00    +0.000 N 
ATOM      2  C   UNL     1       4.533   4.079  19.295  0.00  0.00    +0.000 C 
ATOM      3  O   UNL     1       5.036   3.042  19.710  0.00  0.00    +0.000 OA
ATOM      4  H   UNL     1       4.784   5.794  18.177  0.00  0.00    +0.000 HD
ENDROOT
BRANCH   1   5
ATOM      5  C   UNL     1       6.617   4.696  18.071  0.00  0.00    +0.000 C 
BRANCH   5   6
ATOM      6  C   UNL     1       6.660   4.634  16.568  0.00  0.00    +0.000 A 
ATOM      7  N   UNL     1       7.481   5.395  15.809  0.00  0.00    +0.000 NA
ATOM      8  C   UNL     1       7.335   5.135  14.481  0.00  0.00    +0.000 A 
ATOM      9  C   UNL     1       6.400   4.151  14.183  0.00  0.00    +0.000 A 
ATOM     10  S   UNL     1       5.715   3.608  15.617  0.00  0.00    +0.000 S 
BRANCH   9  11
ATOM     11  C   UNL     1       6.063   3.638  12.820  0.00  0.00    +0.000 C 
BRANCH  11  12
ATOM     12  O   UNL     1       7.055   3.997  11.899  0.00  0.00    +0.000 OA
ATOM     13  H   UNL     1       7.723   4.534  12.400  0.00  0.00    +0.000 HD
ENDBRANCH  11  12
ENDBRANCH   9  11
ENDBRANCH   5   6
BRANCH   5  14
ATOM     14  C   UNL     1       7.520   5.834  18.571  0.00  0.00    +0.000 C 
BRANCH  14  15
ATOM     15  N   UNL     1       7.864   5.638  19.974  0.00  0.00    +0.000 NA
ATOM     16  H   UNL     1       7.459   6.422  20.536  0.00  0.00    +0.000 HD
ATOM     17  H   UNL     1       8.903   5.656  20.089  0.00  0.00    +0.000 HD
ENDBRANCH  14  15
ENDBRANCH   5  14
ENDBRANCH   1   5
BRANCH   2  18
ATOM     18  C   UNL     1       3.102   4.398  19.662  0.00  0.00    +0.000 C 
BRANCH  18  19
ATOM     19  N   UNL     1       2.744   5.754  19.227  0.00  0.00    +0.000 NA
ATOM     20  H   UNL     1       2.072   5.675  18.431  0.00  0.00    +0.000 HD
BRANCH  19  21
ATOM     21  C   UNL     1       2.059   6.480  20.305  0.00  0.00    +0.000 C 
BRANCH  21  22
ATOM     22  C   UNL     1       1.728   7.885  19.864  0.00  0.00    +0.000 A 
ATOM     23  C   UNL     1       2.061   8.328  18.571  0.00  0.00    +0.000 A 
ATOM     24  C   UNL     1       1.749   9.630  18.168  0.00  0.00    +0.000 A 
ATOM     25  C   UNL     1       1.101  10.500  19.050  0.00  0.00    +0.000 A 
ATOM     26 CL   UNL     1       0.708  12.134  18.542  0.00  0.00    +0.000 Cl
ATOM     27  C   UNL     1       0.766  10.068  20.338  0.00  0.00    +0.000 A 
ATOM     28  C   UNL     1       1.077   8.766  20.744  0.00  0.00    +0.000 A 
ENDBRANCH  21  22
ENDBRANCH  19  21
ENDBRANCH  18  19
ENDBRANCH   2  18
TORSDOF 10
ENDMDL
MODEL 3
REMARK VINA RESULT:      -6.4      0.964      1.444
REMARK  Name = 
REMARK  10 active torsions:
REMARK  status: ('A' for Active; 'I' for Inactive)
REMARK    1  A    between atoms: N_1  and  C_2
REMARK    2  A    between atoms: C_2  and  C_3
REMARK    3  A    between atoms: C_3  and  N_4
REMARK    4  A    between atoms: C_3  and  C_17
REMARK    5  A    between atoms: C_5  and  C_7
REMARK    6  A    between atoms: C_7  and  N_8
REMARK    7  A    between atoms: N_8  and  C_9
REMARK    8  A    between atoms: C_9  and  C_10
REMARK    9  A    between atoms: C_20  and  C_21
REMARK   10  A    between atoms: C_21  and  O_22
REMARK                            x       y       z     vdW  Elec       q    Type
REMARK                         _______ _______ _______ _____ _____    ______ ____
ROOT
ATOM      1  N   UNL     1       5.888   4.312  17.732  0.00  0.00    +0.000 N 
ATOM      2  C   UNL     1       5.729   4.272  19.085  0.00  0.00    +0.000 C 
ATOM      3  O   UNL     1       6.422   4.970  19.815  0.00  0.00    +0.000 OA
ATOM      4  H   UNL     1       5.278   3.712  17.152  0.00  0.00    +0.000 HD
ENDROOT
BRANCH   1   5
ATOM      5  C   UNL     1       6.861   5.146  17.040  0.00  0.00    +0.000 C 
BRANCH   5   6
ATOM      6  C   UNL     1       6.838   4.816  15.572  0.00  0.00    +0.000 A 
ATOM      7  N   UNL     1       7.673   5.373  14.665  0.00  0.00    +0.000 NA
ATOM      8  C   UNL     1       7.457   4.893  13.410  0.00  0.00    +0.000 A 
ATOM      9  C   UNL     1       6.450   3.939  13.320  0.00  0.00    +0.000 A 
ATOM     10  S   UNL     1       5.792   3.706  14.848  0.00  0.00    +0.000 S 
BRANCH   9  11
ATOM     11  C   UNL     1       6.026   3.217  12.082  0.00  0.00    +0.000 C 
BRANCH  11  12
ATOM     12  O   UNL     1       4.652   3.376  11.865  0.00  0.00    +0.000 OA
ATOM     13  H   UNL     1       4.538   3.543  10.892  0.00  0.00    +0.000 HD
ENDBRANCH  11  12
ENDBRANCH   9  11
ENDBRANCH   5   6
BRANCH   5  14
ATOM     14  C   UNL     1       6.519   6.630  17.246  0.00  0.00    +0.000 C 
BRANCH  14  15
ATOM     15  N   UNL     1       5.603   7.094  16.211  0.00  0.00    +0.000 NA
ATOM     16  H   UNL     1       5.518   8.135  16.275  0.00  0.00    +0.000 HD
ATOM     17  H   UNL     1       4.656   6.679  16.365  0.00  0.00    +0.000 HD
ENDBRANCH  14  15
ENDBRANCH   5  14
ENDBRANCH   1   5
BRANCH   2  18
ATOM     18  C   UNL     1       4.706   3.351  19.706  0.00  0.00    +0.000 C 
BRANCH  18  19
ATOM     19  N   UNL     1       3.459   3.360  18.931  0.00  0.00    +0.000 NA
ATOM     20  H   UNL     1       3.191   2.370  18.731  0.00  0.00    +0.000 HD
BRANCH  19  21
ATOM     21  C   UNL     1       2.367   3.957  19.712  0.00  0.00    +0.000 C 
BRANCH  21  22
ATOM     22  C   UNL     1       2.249   5.430  19.409  0.00  0.00    +0.000 A 
ATOM     23  C   UNL     1       1.905   6.345  20.421  0.00  0.00    +0.000 A 
ATOM     24  C   UNL     1       1.799   7.709  20.133  0.00  0.00    +0.000 A 
ATOM     25  C   UNL     1       2.038   8.173  18.835  0.00  0.00    +0.000 A 
ATOM     26 CL   UNL     1       1.907   9.886  18.477  0.00  0.00    +0.000 Cl
ATOM     27  C   UNL     1       2.381   7.270  17.824  0.00  0.00    +0.000 A 
ATOM     28  C   UNL     1       2.486   5.904  18.108  0.00  0.00    +0.000 A 
ENDBRANCH  21  22
ENDBRANCH  19  21
ENDBRANCH  18  19
ENDBRANCH   2  18
TORSDOF 10
ENDMDL
MODEL 4
REMARK VINA RESULT:      -6.3      1.111      1.585
REMARK  Name = 
REMARK  10 active torsions:
REMARK  status: ('A' for Active; 'I' for Inactive)
REMARK    1  A    between atoms: N_1  and  C_2
REMARK    2  A    between atoms: C_2  and  C_3
REMARK    3  A    between atoms: C_3  and  N_4
REMARK    4  A    between atoms: C_3  and  C_17
REMARK    5  A    between atoms: C_5  and  C_7
REMARK    6  A    between atoms: C_7  and  N_8
REMARK    7  A    between atoms: N_8  and  C_9
REMARK    8  A    between atoms: C_9  and  C_10
REMARK    9  A    between atoms: C_20  and  C_21
REMARK   10  A    between atoms: C_21  and  O_22
REMARK                            x       y       z     vdW  Elec       q    Type
REMARK                         _______ _______ _______ _____ _____    ______ ____
ROOT
ATOM      1  N   UNL     1       5.442   4.833  17.649  0.00  0.00    +0.000 N 
ATOM      2  C   UNL     1       5.072   4.456  18.905  0.00  0.00    +0.000 C 
ATOM      3  O   UNL     1       5.917   4.167  19.744  0.00  0.00    +0.000 OA
ATOM      4  H   UNL     1       4.698   5.076  16.973  0.00  0.00    +0.000 HD
ENDROOT
BRANCH   1   5
ATOM      5  C   UNL     1       6.821   4.921  17.187  0.00  0.00    +0.000 C 
BRANCH   5   6
ATOM      6  C   UNL     1       6.856   4.716  15.697  0.00  0.00    +0.000 A 
ATOM      7  N   UNL     1       7.734   5.335  14.875  0.00  0.00    +0.000 NA
ATOM      8  C   UNL     1       7.565   4.965  13.576  0.00  0.00    +0.000 A 
ATOM      9  C   UNL     1       6.554   4.034  13.366  0.00  0.00    +0.000 A 
ATOM     10  S   UNL     1       5.831   3.684  14.841  0.00  0.00    +0.000 S 
BRANCH   9  11
ATOM     11  C   UNL     1       6.175   3.424  12.055  0.00  0.00    +0.000 C 
BRANCH  11  12
ATOM     12  O   UNL     1       4.783   3.398  11.907  0.00  0.00    +0.000 OA
ATOM     13  H   UNL     1       4.443   2.726  12.556  0.00  0.00    +0.000 HD
ENDBRANCH  11  12
ENDBRANCH   9  11
ENDBRANCH   5   6
BRANCH   5  14
ATOM     14  C   UNL     1       7.403   6.299  17.537  0.00  0.00    +0.000 C 
BRANCH  14  15
ATOM     15  N   UNL     1       6.655   7.357  16.869  0.00  0.00    +0.000 NA
ATOM     16  H   UNL     1       6.052   7.843  17.572  0.00  0.00    +0.000 HD
ATOM     17  H   UNL     1       6.034   6.942  16.137  0.00  0.00    +0.000 HD
ENDBRANCH  14  15
ENDBRANCH   5  14
ENDBRANCH   1   5
BRANCH   2  18
ATOM     18  C   UNL     1       3.610   4.372  19.276  0.00  0.00    +0.000 C 
BRANCH  18  19
ATOM     19  N   UNL     1       3.112   5.678  19.726  0.00  0.00    +0.000 NA
ATOM     20  H   UNL     1       3.762   6.042  20.458  0.00  0.00    +0.000 HD
BRANCH  19  21
ATOM     21  C   UNL     1       3.119   6.644  18.619  0.00  0.00    +0.000 C 
BRANCH  21  22
ATOM     22  C   UNL     1       2.217   7.812  18.935  0.00  0.00    +0.000 A 
ATOM     23  C   UNL     1       1.739   8.015  20.242  0.00  0.00    +0.000 A 
ATOM     24  C   UNL     1       0.906   9.101  20.528  0.00  0.00    +0.000 A 
ATOM     25  C   UNL     1       0.544   9.994  19.514  0.00  0.00    +0.000 A 
ATOM     26 CL   UNL     1      -0.501  11.357  19.877  0.00  0.00    +0.000 Cl
ATOM     27  C   UNL     1       1.015   9.799  18.212  0.00  0.00    +0.000 A 
ATOM     28  C   UNL     1       1.848   8.713  17.922  0.00  0.00    +0.000 A 
ENDBRANCH  21  22
ENDBRANCH  19  21
ENDBRANCH  18  19
ENDBRANCH   2  18
TORSDOF 10
ENDMDL
MODEL 5
REMARK VINA RESULT:      -6.3      2.641      4.206
REMARK  Name = 
REMARK  10 active torsions:
REMARK  status: ('A' for Active; 'I' for Inactive)
REMARK    1  A    between atoms: N_1  and  C_2
REMARK    2  A    between atoms: C_2  and  C_3
REMARK    3  A    between atoms: C_3  and  N_4
REMARK    4  A    between atoms: C_3  and  C_17
REMARK    5  A    between atoms: C_5  and  C_7
REMARK    6  A    between atoms: C_7  and  N_8
REMARK    7  A    between atoms: N_8  and  C_9
REMARK    8  A    between atoms: C_9  and  C_10
REMARK    9  A    between atoms: C_20  and  C_21
REMARK   10  A    between atoms: C_21  and  O_22
REMARK                            x       y       z     vdW  Elec       q    Type
REMARK                         _______ _______ _______ _____ _____    ______ ____
ROOT
ATOM      1  N   UNL     1       3.106   4.467  19.859  0.00  0.00    +0.000 N 
ATOM      2  C   UNL     1       1.759   4.509  20.063  0.00  0.00    +0.000 C 
ATOM      3  O   UNL     1       1.056   3.545  19.787  0.00  0.00    +0.000 OA
ATOM      4  H   UNL     1       3.664   5.300  20.112  0.00  0.00    +0.000 HD
ENDROOT
BRANCH   1   5
ATOM      5  C   UNL     1       3.821   3.325  19.306  0.00  0.00    +0.000 C 
BRANCH   5   6
ATOM      6  C   UNL     1       4.915   3.819  18.400  0.00  0.00    +0.000 A 
ATOM      7  N   UNL     1       6.123   4.237  18.842  0.00  0.00    +0.000 NA
ATOM      8  C   UNL     1       6.937   4.619  17.819  0.00  0.00    +0.000 A 
ATOM      9  C   UNL     1       6.375   4.491  16.554  0.00  0.00    +0.000 A 
ATOM     10  S   UNL     1       4.807   3.911  16.718  0.00  0.00    +0.000 S 
BRANCH   9  11
ATOM     11  C   UNL     1       7.048   4.797  15.254  0.00  0.00    +0.000 C 
BRANCH  11  12
ATOM     12  O   UNL     1       6.242   4.406  14.178  0.00  0.00    +0.000 OA
ATOM     13  H   UNL     1       6.162   3.417  14.231  0.00  0.00    +0.000 HD
ENDBRANCH  11  12
ENDBRANCH   9  11
ENDBRANCH   5   6
BRANCH   5  14
ATOM     14  C   UNL     1       4.424   2.486  20.442  0.00  0.00    +0.000 C 
BRANCH  14  15
ATOM     15  N   UNL     1       5.120   1.322  19.908  0.00  0.00    +0.000 NA
ATOM     16  H   UNL     1       5.794   1.637  19.173  0.00  0.00    +0.000 HD
ATOM     17  H   UNL     1       4.432   0.673  19.462  0.00  0.00    +0.000 HD
ENDBRANCH  14  15
ENDBRANCH   5  14
ENDBRANCH   1   5
BRANCH   2  18
ATOM     18  C   UNL     1       1.110   5.755  20.619  0.00  0.00    +0.000 C 
BRANCH  18  19
ATOM     19  N   UNL     1       2.107   6.815  20.821  0.00  0.00    +0.000 NA
ATOM     20  H   UNL     1       3.033   6.460  20.493  0.00  0.00    +0.000 HD
BRANCH  19  21
ATOM     21  C   UNL     1       1.781   7.994  20.008  0.00  0.00    +0.000 C 
BRANCH  21  22
ATOM     22  C   UNL     1       0.903   8.943  20.786  0.00  0.00    +0.000 A 
ATOM     23  C   UNL     1       0.875   8.904  22.192  0.00  0.00    +0.000 A 
ATOM     24  C   UNL     1       0.061   9.788  22.906  0.00  0.00    +0.000 A 
ATOM     25  C   UNL     1      -0.731  10.718  22.226  0.00  0.00    +0.000 A 
ATOM     26 CL   UNL     1      -1.751  11.828  23.125  0.00  0.00    +0.000 Cl
ATOM     27  C   UNL     1      -0.709  10.764  20.828  0.00  0.00    +0.000 A 
ATOM     28  C   UNL     1       0.104   9.880  20.110  0.00  0.00    +0.000 A 
ENDBRANCH  21  22
ENDBRANCH  19  21
ENDBRANCH  18  19
ENDBRANCH   2  18
TORSDOF 10
ENDMDL
MODEL 6
REMARK VINA RESULT:      -6.2      4.857      7.206
REMARK  Name = 
REMARK  10 active torsions:
REMARK  status: ('A' for Active; 'I' for Inactive)
REMARK    1  A    between atoms: N_1  and  C_2
REMARK    2  A    between atoms: C_2  and  C_3
REMARK    3  A    between atoms: C_3  and  N_4
REMARK    4  A    between atoms: C_3  and  C_17
REMARK    5  A    between atoms: C_5  and  C_7
REMARK    6  A    between atoms: C_7  and  N_8
REMARK    7  A    between atoms: N_8  and  C_9
REMARK    8  A    between atoms: C_9  and  C_10
REMARK    9  A    between atoms: C_20  and  C_21
REMARK   10  A    between atoms: C_21  and  O_22
REMARK                            x       y       z     vdW  Elec       q    Type
REMARK                         _______ _______ _______ _____ _____    ______ ____
ROOT
ATOM      1  N   UNL     1       7.059   6.776  16.819  0.00  0.00    +0.000 N 
ATOM      2  C   UNL     1       7.764   7.487  17.744  0.00  0.00    +0.000 C 
ATOM      3  O   UNL     1       8.247   6.931  18.723  0.00  0.00    +0.000 OA
ATOM      4  H   UNL     1       6.675   7.282  16.004  0.00  0.00    +0.000 HD
ENDROOT
BRANCH   1   5
ATOM      5  C   UNL     1       6.810   5.342  16.896  0.00  0.00    +0.000 C 
BRANCH   5   6
ATOM      6  C   UNL     1       5.487   5.109  17.574  0.00  0.00    +0.000 A 
ATOM      7  N   UNL     1       4.297   5.152  16.931  0.00  0.00    +0.000 NA
ATOM      8  C   UNL     1       3.256   4.890  17.768  0.00  0.00    +0.000 A 
ATOM      9  C   UNL     1       3.621   4.625  19.082  0.00  0.00    +0.000 A 
ATOM     10  S   UNL     1       5.292   4.747  19.211  0.00  0.00    +0.000 S 
BRANCH   9  11
ATOM     11  C   UNL     1       2.696   4.269  20.201  0.00  0.00    +0.000 C 
BRANCH  11  12
ATOM     12  O   UNL     1       2.449   5.386  21.010  0.00  0.00    +0.000 OA
ATOM     13  H   UNL     1       2.146   5.036  21.889  0.00  0.00    +0.000 HD
ENDBRANCH  11  12
ENDBRANCH   9  11
ENDBRANCH   5   6
BRANCH   5  14
ATOM     14  C   UNL     1       6.786   4.739  15.484  0.00  0.00    +0.000 C 
BRANCH  14  15
ATOM     15  N   UNL     1       6.274   3.374  15.517  0.00  0.00    +0.000 NA
ATOM     16  H   UNL     1       6.981   2.735  15.086  0.00  0.00    +0.000 HD
ATOM     17  H   UNL     1       5.395   3.313  14.955  0.00  0.00    +0.000 HD
ENDBRANCH  14  15
ENDBRANCH   5  14
ENDBRANCH   1   5
BRANCH   2  18
ATOM     18  C   UNL     1       7.944   8.978  17.584  0.00  0.00    +0.000 C 
BRANCH  18  19
ATOM     19  N   UNL     1       8.722   9.531  18.700  0.00  0.00    +0.000 NA
ATOM     20  H   UNL     1       9.347   8.779  19.067  0.00  0.00    +0.000 HD
BRANCH  19  21
ATOM     21  C   UNL     1       9.584  10.627  18.239  0.00  0.00    +0.000 C 
BRANCH  21  22
ATOM     22  C   UNL     1       9.616  11.736  19.261  0.00  0.00    +0.000 A 
ATOM     23  C   UNL     1       9.815  11.450  20.624  0.00  0.00    +0.000 A 
ATOM     24  C   UNL     1       9.846  12.483  21.565  0.00  0.00    +0.000 A 
ATOM     25  C   UNL     1       9.680  13.810  21.156  0.00  0.00    +0.000 A 
ATOM     26 CL   UNL     1       9.722  15.106  22.339  0.00  0.00    +0.000 Cl
ATOM     27  C   UNL     1       9.482  14.103  19.803  0.00  0.00    +0.000 A 
ATOM     28  C   UNL     1       9.450  13.072  18.858  0.00  0.00    +0.000 A 
ENDBRANCH  21  22
ENDBRANCH  19  21
ENDBRANCH  18  19
ENDBRANCH   2  18
TORSDOF 10
ENDMDL
MODEL 7
REMARK VINA RESULT:      -6.2      4.787      7.162
REMARK  Name = 
REMARK  10 active torsions:
REMARK  status: ('A' for Active; 'I' for Inactive)
REMARK    1  A    between atoms: N_1  and  C_2
REMARK    2  A    between atoms: C_2  and  C_3
REMARK    3  A    between atoms: C_3  and  N_4
REMARK    4  A    between atoms: C_3  and  C_17
REMARK    5  A    between atoms: C_5  and  C_7
REMARK    6  A    between atoms: C_7  and  N_8
REMARK    7  A    between atoms: N_8  and  C_9
REMARK    8  A    between atoms: C_9  and  C_10
REMARK    9  A    between atoms: C_20  and  C_21
REMARK   10  A    between atoms: C_21  and  O_22
REMARK                            x       y       z     vdW  Elec       q    Type
REMARK                         _______ _______ _______ _____ _____    ______ ____
ROOT
ATOM      1  N   UNL     1       7.080   6.710  16.900  0.00  0.00    +0.000 N 
ATOM      2  C   UNL     1       7.774   7.451  17.810  0.00  0.00    +0.000 C 
ATOM      3  O   UNL     1       8.295   6.917  18.782  0.00  0.00    +0.000 OA
ATOM      4  H   UNL     1       6.662   7.199  16.091  0.00  0.00    +0.000 HD
ENDROOT
BRANCH   1   5
ATOM      5  C   UNL     1       6.884   5.269  16.988  0.00  0.00    +0.000 C 
BRANCH   5   6
ATOM      6  C   UNL     1       5.715   4.984  17.890  0.00  0.00    +0.000 A 
ATOM      7  N   UNL     1       5.665   3.936  18.744  0.00  0.00    +0.000 NA
ATOM      8  C   UNL     1       4.505   3.913  19.457  0.00  0.00    +0.000 A 
ATOM      9  C   UNL     1       3.632   4.959  19.176  0.00  0.00    +0.000 A 
ATOM     10  S   UNL     1       4.316   5.924  17.984  0.00  0.00    +0.000 S 
BRANCH   9  11
ATOM     11  C   UNL     1       2.311   5.206  19.831  0.00  0.00    +0.000 C 
BRANCH  11  12
ATOM     12  O   UNL     1       2.292   6.466  20.441  0.00  0.00    +0.000 OA
ATOM     13  H   UNL     1       1.986   6.322  21.376  0.00  0.00    +0.000 HD
ENDBRANCH  11  12
ENDBRANCH   9  11
ENDBRANCH   5   6
BRANCH   5  14
ATOM     14  C   UNL     1       6.617   4.692  15.589  0.00  0.00    +0.000 C 
BRANCH  14  15
ATOM     15  N   UNL     1       7.522   5.281  14.610  0.00  0.00    +0.000 NA
ATOM     16  H   UNL     1       7.149   6.215  14.321  0.00  0.00    +0.000 HD
ATOM     17  H   UNL     1       7.567   4.672  13.761  0.00  0.00    +0.000 HD
ENDBRANCH  14  15
ENDBRANCH   5  14
ENDBRANCH   1   5
BRANCH   2  18
ATOM     18  C   UNL     1       7.897   8.947  17.641  0.00  0.00    +0.000 C 
BRANCH  18  19
ATOM     19  N   UNL     1       8.741   9.522  18.696  0.00  0.00    +0.000 NA
ATOM     20  H   UNL     1       9.446   8.805  18.979  0.00  0.00    +0.000 HD
BRANCH  19  21
ATOM     21  C   UNL     1       9.482  10.686  18.192  0.00  0.00    +0.000 C 
BRANCH  21  22
ATOM     22  C   UNL     1       9.552  11.762  19.246  0.00  0.00    +0.000 A 
ATOM     23  C   UNL     1       9.421  13.118  18.897  0.00  0.00    +0.000 A 
ATOM     24  C   UNL     1       9.484  14.110  19.880  0.00  0.00    +0.000 A 
ATOM     25  C   UNL     1       9.677  13.758  21.220  0.00  0.00    +0.000 A 
ATOM     26 CL   UNL     1       9.753  15.006  22.453  0.00  0.00    +0.000 Cl
ATOM     27  C   UNL     1       9.808  12.412  21.576  0.00  0.00    +0.000 A 
ATOM     28  C   UNL     1       9.746  11.417  20.595  0.00  0.00    +0.000 A 
ENDBRANCH  21  22
ENDBRANCH  19  21
ENDBRANCH  18  19
ENDBRANCH   2  18
TORSDOF 10
ENDMDL
MODEL 8
REMARK VINA RESULT:      -6.2      1.271      1.917
REMARK  Name = 
REMARK  10 active torsions:
REMARK  status: ('A' for Active; 'I' for Inactive)
REMARK    1  A    between atoms: N_1  and  C_2
REMARK    2  A    between atoms: C_2  and  C_3
REMARK    3  A    between atoms: C_3  and  N_4
REMARK    4  A    between atoms: C_3  and  C_17
REMARK    5  A    between atoms: C_5  and  C_7
REMARK    6  A    between atoms: C_7  and  N_8
REMARK    7  A    between atoms: N_8  and  C_9
REMARK    8  A    between atoms: C_9  and  C_10
REMARK    9  A    between atoms: C_20  and  C_21
REMARK   10  A    between atoms: C_21  and  O_22
REMARK                            x       y       z     vdW  Elec       q    Type
REMARK                         _______ _______ _______ _____ _____    ______ ____
ROOT
ATOM      1  N   UNL     1       5.949   4.347  17.436  0.00  0.00    +0.000 N 
ATOM      2  C   UNL     1       5.845   4.176  18.784  0.00  0.00    +0.000 C 
ATOM      3  O   UNL     1       6.640   4.715  19.545  0.00  0.00    +0.000 OA
ATOM      4  H   UNL     1       5.254   3.881  16.830  0.00  0.00    +0.000 HD
ENDROOT
BRANCH   1   5
ATOM      5  C   UNL     1       6.976   5.148  16.784  0.00  0.00    +0.000 C 
BRANCH   5   6
ATOM      6  C   UNL     1       6.967   4.856  15.308  0.00  0.00    +0.000 A 
ATOM      7  N   UNL     1       7.765   5.483  14.414  0.00  0.00    +0.000 NA
ATOM      8  C   UNL     1       7.571   5.024  13.147  0.00  0.00    +0.000 A 
ATOM      9  C   UNL     1       6.621   4.016  13.035  0.00  0.00    +0.000 A 
ATOM     10  S   UNL     1       5.984   3.707  14.558  0.00  0.00    +0.000 S 
BRANCH   9  11
ATOM     11  C   UNL     1       6.234   3.303  11.779  0.00  0.00    +0.000 C 
BRANCH  11  12
ATOM     12  O   UNL     1       6.006   1.945  12.034  0.00  0.00    +0.000 OA
ATOM     13  H   UNL     1       6.899   1.528  12.160  0.00  0.00    +0.000 HD
ENDBRANCH  11  12
ENDBRANCH   9  11
ENDBRANCH   5   6
BRANCH   5  14
ATOM     14  C   UNL     1       6.705   6.641  17.021  0.00  0.00    +0.000 C 
BRANCH  14  15
ATOM     15  N   UNL     1       5.538   7.078  16.265  0.00  0.00    +0.000 NA
ATOM     16  H   UNL     1       5.548   8.121  16.197  0.00  0.00    +0.000 HD
ATOM     17  H   UNL     1       4.666   6.792  16.766  0.00  0.00    +0.000 HD
ENDBRANCH  14  15
ENDBRANCH   5  14
ENDBRANCH   1   5
BRANCH   2  18
ATOM     18  C   UNL     1       4.755   3.302  19.360  0.00  0.00    +0.000 C 
BRANCH  18  19
ATOM     19  N   UNL     1       3.983   2.660  18.289  0.00  0.00    +0.000 NA
ATOM     20  H   UNL     1       4.126   1.627  18.356  0.00  0.00    +0.000 HD
BRANCH  19  21
ATOM     21  C   UNL     1       2.546   2.912  18.462  0.00  0.00    +0.000 C 
BRANCH  21  22
ATOM     22  C   UNL     1       2.314   4.327  18.933  0.00  0.00    +0.000 A 
ATOM     23  C   UNL     1       1.870   4.583  20.242  0.00  0.00    +0.000 A 
ATOM     24  C   UNL     1       1.660   5.897  20.672  0.00  0.00    +0.000 A 
ATOM     25  C   UNL     1       1.892   6.966  19.801  0.00  0.00    +0.000 A 
ATOM     26 CL   UNL     1       1.629   8.614  20.344  0.00  0.00    +0.000 Cl
ATOM     27  C   UNL     1       2.334   6.719  18.497  0.00  0.00    +0.000 A 
ATOM     28  C   UNL     1       2.544   5.407  18.063  0.00  0.00    +0.000 A 
ENDBRANCH  21  22
ENDBRANCH  19  21
ENDBRANCH  18  19
ENDBRANCH   2  18
TORSDOF 10
ENDMDL
MODEL 9
REMARK VINA RESULT:      -6.2      3.318      6.781
REMARK  Name = 
REMARK  10 active torsions:
REMARK  status: ('A' for Active; 'I' for Inactive)
REMARK    1  A    between atoms: N_1  and  C_2
REMARK    2  A    between atoms: C_2  and  C_3
REMARK    3  A    between atoms: C_3  and  N_4
REMARK    4  A    between atoms: C_3  and  C_17
REMARK    5  A    between atoms: C_5  and  C_7
REMARK    6  A    between atoms: C_7  and  N_8
REMARK    7  A    between atoms: N_8  and  C_9
REMARK    8  A    between atoms: C_9  and  C_10
REMARK    9  A    between atoms: C_20  and  C_21
REMARK   10  A    between atoms: C_21  and  O_22
REMARK                            x       y       z     vdW  Elec       q    Type
REMARK                         _______ _______ _______ _____ _____    ______ ____
ROOT
ATOM      1  N   UNL     1       3.044   4.720  18.875  0.00  0.00    +0.000 N 
ATOM      2  C   UNL     1       3.923   3.708  18.629  0.00  0.00    +0.000 C 
ATOM      3  O   UNL     1       4.627   3.261  19.527  0.00  0.00    +0.000 OA
ATOM      4  H   UNL     1       2.464   5.063  18.091  0.00  0.00    +0.000 HD
ENDROOT
BRANCH   1   5
ATOM      5  C   UNL     1       2.860   5.356  20.173  0.00  0.00    +0.000 C 
BRANCH   5   6
ATOM      6  C   UNL     1       2.250   6.716  19.973  0.00  0.00    +0.000 A 
ATOM      7  N   UNL     1       1.530   7.361  20.920  0.00  0.00    +0.000 NA
ATOM      8  C   UNL     1       1.104   8.582  20.493  0.00  0.00    +0.000 A 
ATOM      9  C   UNL     1       1.499   8.915  19.202  0.00  0.00    +0.000 A 
ATOM     10  S   UNL     1       2.383   7.637  18.565  0.00  0.00    +0.000 S 
BRANCH   9  11
ATOM     11  C   UNL     1       1.209  10.199  18.494  0.00  0.00    +0.000 C 
BRANCH  11  12
ATOM     12  O   UNL     1       2.041  10.344  17.377  0.00  0.00    +0.000 OA
ATOM     13  H   UNL     1       2.785   9.696  17.494  0.00  0.00    +0.000 HD
ENDBRANCH  11  12
ENDBRANCH   9  11
ENDBRANCH   5   6
BRANCH   5  14
ATOM     14  C   UNL     1       1.940   4.495  21.051  0.00  0.00    +0.000 C 
BRANCH  14  15
ATOM     15  N   UNL     1       0.701   4.186  20.348  0.00  0.00    +0.000 NA
ATOM     16  H   UNL     1       0.085   5.031  20.359  0.00  0.00    +0.000 HD
ATOM     17  H   UNL     1       0.200   3.412  20.840  0.00  0.00    +0.000 HD
ENDBRANCH  14  15
ENDBRANCH   5  14
ENDBRANCH   1   5
BRANCH   2  18
ATOM     18  C   UNL     1       4.056   3.134  17.238  0.00  0.00    +0.000 C 
BRANCH  18  19
ATOM     19  N   UNL     1       4.720   4.088  16.342  0.00  0.00    +0.000 NA
ATOM     20  H   UNL     1       4.496   5.055  16.669  0.00  0.00    +0.000 HD
BRANCH  19  21
ATOM     21  C   UNL     1       6.180   3.934  16.411  0.00  0.00    +0.000 C 
BRANCH  21  22
ATOM     22  C   UNL     1       6.808   5.157  17.032  0.00  0.00    +0.000 A 
ATOM     23  C   UNL     1       7.521   5.063  18.240  0.00  0.00    +0.000 A 
ATOM     24  C   UNL     1       8.103   6.200  18.808  0.00  0.00    +0.000 A 
ATOM     25  C   UNL     1       7.981   7.441  18.175  0.00  0.00    +0.000 A 
ATOM     26 CL   UNL     1       8.714   8.867  18.888  0.00  0.00    +0.000 Cl
ATOM     27  C   UNL     1       7.274   7.544  16.973  0.00  0.00    +0.000 A 
ATOM     28  C   UNL     1       6.689   6.408  16.402  0.00  0.00    +0.000 A 
ENDBRANCH  21  22
ENDBRANCH  19  21
ENDBRANCH  18  19
ENDBRANCH   2  18
TORSDOF 10
ENDMDL
