MODEL 1
REMARK VINA RESULT:      -8.3      0.000      0.000
REMARK  Name = 
REMARK  4 active torsions:
REMARK  status: ('A' for Active; 'I' for Inactive)
REMARK    1  A    between atoms: C_1  and  C_2
REMARK    2  A    between atoms: C_2  and  C_3
REMARK    3  A    between atoms: C_14  and  C_15
REMARK    4  A    between atoms: C_18  and  C_19
REMARK                            x       y       z     vdW  Elec       q    Type
REMARK                         _______ _______ _______ _____ _____    ______ ____
ROOT
ATOM      1  C   UNL     1      -4.407  11.905  18.580  0.00  0.00    +0.000 C 
ATOM      2  C   UNL     1      -4.670  10.519  17.956  0.00  0.00    +0.000 C 
ATOM      3  C   UNL     1      -3.860  10.328  16.665  0.00  0.00    +0.000 C 
ATOM      4  C   UNL     1      -2.375  10.600  16.881  0.00  0.00    +0.000 C 
ATOM      5  C   UNL     1      -2.160  11.939  17.582  0.00  0.00    +0.000 C 
ATOM      6  N   UNL     1      -2.953  12.001  18.819  0.00  0.00    +0.000 N 
ATOM      7  C   UNL     1      -2.395  11.961  20.112  0.00  0.00    +0.000 C 
ATOM      8  O   UNL     1      -2.947  12.261  21.164  0.00  0.00    +0.000 OA
ATOM      9  N   UNL     1      -1.051  11.500  20.163  0.00  0.00    +0.000 N 
ATOM     10  N   UNL     1      -0.098  12.101  20.928  0.00  0.00    +0.000 NA
ATOM     11  C   UNL     1       0.964  11.335  20.682  0.00  0.00    +0.000 A 
ATOM     12  C   UNL     1       0.628  10.247  19.845  0.00  0.00    +0.000 A 
ATOM     13  N   UNL     1      -0.664  10.367  19.511  0.00  0.00    +0.000 NA
ENDROOT
BRANCH  12  14
ATOM     14  C   UNL     1       1.454   9.159  19.342  0.00  0.00    +0.000 A 
ATOM     15  C   UNL     1       1.995   9.208  18.058  0.00  0.00    +0.000 A 
ATOM     16  C   UNL     1       2.724   8.129  17.555  0.00  0.00    +0.000 A 
ATOM     17  C   UNL     1       2.971   6.977  18.318  0.00  0.00    +0.000 A 
ATOM     18  C   UNL     1       2.461   6.951  19.625  0.00  0.00    +0.000 A 
ATOM     19  C   UNL     1       1.712   8.020  20.128  0.00  0.00    +0.000 A 
BRANCH  17  20
ATOM     20  C   UNL     1       3.708   5.834  17.729  0.00  0.00    +0.000 A 
ATOM     21  C   UNL     1       4.787   6.047  16.853  0.00  0.00    +0.000 A 
ATOM     22  C   UNL     1       5.415   4.990  16.194  0.00  0.00    +0.000 A 
ATOM     23  C   UNL     1       4.999   3.685  16.423  0.00  0.00    +0.000 A 
ATOM     24  C   UNL     1       3.964   3.440  17.322  0.00  0.00    +0.000 A 
ATOM     25  C   UNL     1       3.324   4.502  17.965  0.00  0.00    +0.000 A 
ENDBRANCH  17  20
ENDBRANCH  12  14
BRANCH   1  27
ATOM     26  C   UNL     1      -6.697  11.517  19.648  0.00  0.00    +0.000 C 
ATOM     27  C   UNL     1      -5.335  12.192  19.773  0.00  0.00    +0.000 C 
ENDBRANCH   1  27
TORSDOF 3
ENDMDL
MODEL 2
REMARK VINA RESULT:      -8.2      0.781      1.292
REMARK  Name = 
REMARK  4 active torsions:
REMARK  status: ('A' for Active; 'I' for Inactive)
REMARK    1  A    between atoms: C_1  and  C_2
REMARK    2  A    between atoms: C_2  and  C_3
REMARK    3  A    between atoms: C_14  and  C_15
REMARK    4  A    between atoms: C_18  and  C_19
REMARK                            x       y       z     vdW  Elec       q    Type
REMARK                         _______ _______ _______ _____ _____    ______ ____
ROOT
ATOM      1  C   UNL     1      -4.147  12.530  19.382  0.00  0.00    +0.000 C 
ATOM      2  C   UNL     1      -4.530  11.354  18.461  0.00  0.00    +0.000 C 
ATOM      3  C   UNL     1      -3.689  11.359  17.176  0.00  0.00    +0.000 C 
ATOM      4  C   UNL     1      -2.194  11.404  17.474  0.00  0.00    +0.000 C 
ATOM      5  C   UNL     1      -1.867  12.523  18.461  0.00  0.00    +0.000 C 
ATOM      6  N   UNL     1      -2.703  12.404  19.665  0.00  0.00    +0.000 N 
ATOM      7  C   UNL     1      -2.210  12.017  20.927  0.00  0.00    +0.000 C 
ATOM      8  O   UNL     1      -2.772  12.140  22.008  0.00  0.00    +0.000 OA
ATOM      9  N   UNL     1      -0.928  11.404  20.899  0.00  0.00    +0.000 N 
ATOM     10  N   UNL     1       0.050  11.710  21.797  0.00  0.00    +0.000 NA
ATOM     11  C   UNL     1       1.034  10.900  21.407  0.00  0.00    +0.000 A 
ATOM     12  C   UNL     1       0.619  10.067  20.343  0.00  0.00    +0.000 A 
ATOM     13  N   UNL     1      -0.636  10.405  20.019  0.00  0.00    +0.000 NA
ENDROOT
BRANCH  12  14
ATOM     14  C   UNL     1       1.344   9.028  19.625  0.00  0.00    +0.000 A 
ATOM     15  C   UNL     1       1.688   7.833  20.254  0.00  0.00    +0.000 A 
ATOM     16  C   UNL     1       2.447   6.873  19.584  0.00  0.00    +0.000 A 
ATOM     17  C   UNL     1       2.864   7.048  18.255  0.00  0.00    +0.000 A 
ATOM     18  C   UNL     1       2.478   8.234  17.612  0.00  0.00    +0.000 A 
ATOM     19  C   UNL     1       1.735   9.210  18.285  0.00  0.00    +0.000 A 
BRANCH  17  20
ATOM     20  C   UNL     1       3.710   6.025  17.596  0.00  0.00    +0.000 A 
ATOM     21  C   UNL     1       4.708   6.398  16.678  0.00  0.00    +0.000 A 
ATOM     22  C   UNL     1       5.432   5.447  15.957  0.00  0.00    +0.000 A 
ATOM     23  C   UNL     1       5.197   4.094  16.164  0.00  0.00    +0.000 A 
ATOM     24  C   UNL     1       4.248   3.695  17.102  0.00  0.00    +0.000 A 
ATOM     25  C   UNL     1       3.511   4.649  17.807  0.00  0.00    +0.000 A 
ENDBRANCH  17  20
ENDBRANCH  12  14
BRANCH   1  27
ATOM     26  C   UNL     1      -5.603  14.073  20.807  0.00  0.00    +0.000 C 
ATOM     27  C   UNL     1      -5.090  12.654  20.592  0.00  0.00    +0.000 C 
ENDBRANCH   1  27
TORSDOF 3
ENDMDL
MODEL 3
REMARK VINA RESULT:      -8.2      0.673      1.481
REMARK  Name = 
REMARK  4 active torsions:
REMARK  status: ('A' for Active; 'I' for Inactive)
REMARK    1  A    between atoms: C_1  and  C_2
REMARK    2  A    between atoms: C_2  and  C_3
REMARK    3  A    between atoms: C_14  and  C_15
REMARK    4  A    between atoms: C_18  and  C_19
REMARK                            x       y       z     vdW  Elec       q    Type
REMARK                         _______ _______ _______ _____ _____    ______ ____
ROOT
ATOM      1  C   UNL     1      -4.230  12.528  19.418  0.00  0.00    +0.000 C 
ATOM      2  C   UNL     1      -4.631  11.317  18.552  0.00  0.00    +0.000 C 
ATOM      3  C   UNL     1      -3.825  11.276  17.245  0.00  0.00    +0.000 C 
ATOM      4  C   UNL     1      -2.323  11.339  17.501  0.00  0.00    +0.000 C 
ATOM      5  C   UNL     1      -1.976  12.496  18.435  0.00  0.00    +0.000 C 
ATOM      6  N   UNL     1      -2.778  12.419  19.666  0.00  0.00    +0.000 N 
ATOM      7  C   UNL     1      -2.248  12.083  20.927  0.00  0.00    +0.000 C 
ATOM      8  O   UNL     1      -2.782  12.245  22.019  0.00  0.00    +0.000 OA
ATOM      9  N   UNL     1      -0.964  11.475  20.888  0.00  0.00    +0.000 N 
ATOM     10  N   UNL     1       0.036  11.818  21.747  0.00  0.00    +0.000 NA
ATOM     11  C   UNL     1       1.013  10.998  21.361  0.00  0.00    +0.000 A 
ATOM     12  C   UNL     1       0.574  10.124  20.341  0.00  0.00    +0.000 A 
ATOM     13  N   UNL     1      -0.691  10.444  20.039  0.00  0.00    +0.000 NA
ENDROOT
BRANCH  12  14
ATOM     14  C   UNL     1       1.284   9.062  19.644  0.00  0.00    +0.000 A 
ATOM     15  C   UNL     1       1.630   7.882  20.301  0.00  0.00    +0.000 A 
ATOM     16  C   UNL     1       2.375   6.899  19.648  0.00  0.00    +0.000 A 
ATOM     17  C   UNL     1       2.777   7.036  18.310  0.00  0.00    +0.000 A 
ATOM     18  C   UNL     1       2.390   8.206  17.640  0.00  0.00    +0.000 A 
ATOM     19  C   UNL     1       1.660   9.204  18.294  0.00  0.00    +0.000 A 
BRANCH  17  20
ATOM     20  C   UNL     1       3.610   5.990  17.670  0.00  0.00    +0.000 A 
ATOM     21  C   UNL     1       3.318   4.626  17.849  0.00  0.00    +0.000 A 
ATOM     22  C   UNL     1       4.157   3.627  17.356  0.00  0.00    +0.000 A 
ATOM     23  C   UNL     1       5.296   3.969  16.639  0.00  0.00    +0.000 A 
ATOM     24  C   UNL     1       5.585   5.312  16.404  0.00  0.00    +0.000 A 
ATOM     25  C   UNL     1       4.753   6.311  16.916  0.00  0.00    +0.000 A 
ENDBRANCH  17  20
ENDBRANCH  12  14
BRANCH   1  27
ATOM     26  C   UNL     1      -6.511  12.051  20.467  0.00  0.00    +0.000 C 
ATOM     27  C   UNL     1      -5.140  12.694  20.647  0.00  0.00    +0.000 C 
ENDBRANCH   1  27
TORSDOF 3
ENDMDL
MODEL 4
REMARK VINA RESULT:      -7.9      2.944      3.440
REMARK  Name = 
REMARK  4 active torsions:
REMARK  status: ('A' for Active; 'I' for Inactive)
REMARK    1  A    between atoms: C_1  and  C_2
REMARK    2  A    between atoms: C_2  and  C_3
REMARK    3  A    between atoms: C_14  and  C_15
REMARK    4  A    between atoms: C_18  and  C_19
REMARK                            x       y       z     vdW  Elec       q    Type
REMARK                         _______ _______ _______ _____ _____    ______ ____
ROOT
ATOM      1  C   UNL     1      -0.606  14.752  20.816  0.00  0.00    +0.000 C 
ATOM      2  C   UNL     1      -0.446  14.650  19.285  0.00  0.00    +0.000 C 
ATOM      3  C   UNL     1       1.028  14.473  18.892  0.00  0.00    +0.000 C 
ATOM      4  C   UNL     1       1.676  13.304  19.626  0.00  0.00    +0.000 C 
ATOM      5  C   UNL     1       1.418  13.391  21.129  0.00  0.00    +0.000 C 
ATOM      6  N   UNL     1      -0.023  13.524  21.393  0.00  0.00    +0.000 N 
ATOM      7  C   UNL     1      -0.812  12.507  21.965  0.00  0.00    +0.000 C 
ATOM      8  O   UNL     1      -1.933  12.624  22.445  0.00  0.00    +0.000 OA
ATOM      9  N   UNL     1      -0.219  11.215  21.946  0.00  0.00    +0.000 N 
ATOM     10  N   UNL     1      -0.258  10.375  23.018  0.00  0.00    +0.000 NA
ATOM     11  C   UNL     1       0.386   9.309  22.545  0.00  0.00    +0.000 A 
ATOM     12  C   UNL     1       0.733   9.482  21.185  0.00  0.00    +0.000 A 
ATOM     13  N   UNL     1       0.349  10.710  20.814  0.00  0.00    +0.000 NA
ENDROOT
BRANCH  12  14
ATOM     14  C   UNL     1       1.415   8.580  20.268  0.00  0.00    +0.000 A 
ATOM     15  C   UNL     1       1.859   7.329  20.693  0.00  0.00    +0.000 A 
ATOM     16  C   UNL     1       2.577   6.501  19.830  0.00  0.00    +0.000 A 
ATOM     17  C   UNL     1       2.853   6.869  18.503  0.00  0.00    +0.000 A 
ATOM     18  C   UNL     1       2.367   8.110  18.067  0.00  0.00    +0.000 A 
ATOM     19  C   UNL     1       1.664   8.955  18.934  0.00  0.00    +0.000 A 
BRANCH  17  20
ATOM     20  C   UNL     1       3.661   5.981  17.634  0.00  0.00    +0.000 A 
ATOM     21  C   UNL     1       4.636   6.511  16.770  0.00  0.00    +0.000 A 
ATOM     22  C   UNL     1       5.321   5.707  15.858  0.00  0.00    +0.000 A 
ATOM     23  C   UNL     1       5.071   4.342  15.813  0.00  0.00    +0.000 A 
ATOM     24  C   UNL     1       4.145   3.781  16.691  0.00  0.00    +0.000 A 
ATOM     25  C   UNL     1       3.447   4.592  17.589  0.00  0.00    +0.000 A 
ENDBRANCH  17  20
ENDBRANCH  12  14
BRANCH   1  27
ATOM     26  C   UNL     1      -2.111  16.198  22.290  0.00  0.00    +0.000 C 
ATOM     27  C   UNL     1      -2.046  15.105  21.229  0.00  0.00    +0.000 C 
ENDBRANCH   1  27
TORSDOF 3
ENDMDL
MODEL 5
REMARK VINA RESULT:      -7.9      2.098      2.929
REMARK  Name = 
REMARK  4 active torsions:
REMARK  status: ('A' for Active; 'I' for Inactive)
REMARK    1  A    between atoms: C_1  and  C_2
REMARK    2  A    between atoms: C_2  and  C_3
REMARK    3  A    between atoms: C_14  and  C_15
REMARK    4  A    between atoms: C_18  and  C_19
REMARK                            x       y       z     vdW  Elec       q    Type
REMARK                         _______ _______ _______ _____ _____    ______ ____
ROOT
ATOM      1  C   UNL     1      -1.601  13.737  20.859  0.00  0.00    +0.000 C 
ATOM      2  C   UNL     1      -1.764  13.498  19.344  0.00  0.00    +0.000 C 
ATOM      3  C   UNL     1      -0.418  13.620  18.614  0.00  0.00    +0.000 C 
ATOM      4  C   UNL     1       0.649  12.725  19.235  0.00  0.00    +0.000 C 
ATOM      5  C   UNL     1       0.717  12.925  20.748  0.00  0.00    +0.000 C 
ATOM      6  N   UNL     1      -0.614  12.752  21.347  0.00  0.00    +0.000 N 
ATOM      7  C   UNL     1      -0.976  11.654  22.152  0.00  0.00    +0.000 C 
ATOM      8  O   UNL     1      -1.955  11.565  22.883  0.00  0.00    +0.000 OA
ATOM      9  N   UNL     1      -0.097  10.541  22.064  0.00  0.00    +0.000 N 
ATOM     10  N   UNL     1       0.315   9.844  23.161  0.00  0.00    +0.000 NA
ATOM     11  C   UNL     1       1.085   8.907  22.608  0.00  0.00    +0.000 A 
ATOM     12  C   UNL     1       1.066   8.996  21.197  0.00  0.00    +0.000 A 
ATOM     13  N   UNL     1       0.313  10.051  20.860  0.00  0.00    +0.000 NA
ENDROOT
BRANCH  12  14
ATOM     14  C   UNL     1       1.731   8.176  20.195  0.00  0.00    +0.000 A 
ATOM     15  C   UNL     1       2.090   6.858  20.475  0.00  0.00    +0.000 A 
ATOM     16  C   UNL     1       2.793   6.102  19.536  0.00  0.00    +0.000 A 
ATOM     17  C   UNL     1       3.137   6.613  18.275  0.00  0.00    +0.000 A 
ATOM     18  C   UNL     1       2.735   7.925  17.982  0.00  0.00    +0.000 A 
ATOM     19  C   UNL     1       2.048   8.696  18.926  0.00  0.00    +0.000 A 
BRANCH  17  20
ATOM     20  C   UNL     1       3.927   5.792  17.326  0.00  0.00    +0.000 A 
ATOM     21  C   UNL     1       3.821   4.390  17.324  0.00  0.00    +0.000 A 
ATOM     22  C   UNL     1       4.642   3.594  16.525  0.00  0.00    +0.000 A 
ATOM     23  C   UNL     1       5.571   4.187  15.679  0.00  0.00    +0.000 A 
ATOM     24  C   UNL     1       5.666   5.576  15.624  0.00  0.00    +0.000 A 
ATOM     25  C   UNL     1       4.855   6.369  16.440  0.00  0.00    +0.000 A 
ENDBRANCH  17  20
ENDBRANCH  12  14
BRANCH   1  27
ATOM     26  C   UNL     1      -4.121  13.335  20.723  0.00  0.00    +0.000 C 
ATOM     27  C   UNL     1      -2.954  13.796  21.590  0.00  0.00    +0.000 C 
ENDBRANCH   1  27
TORSDOF 3
ENDMDL
MODEL 6
REMARK VINA RESULT:      -7.9      2.786      4.055
REMARK  Name = 
REMARK  4 active torsions:
REMARK  status: ('A' for Active; 'I' for Inactive)
REMARK    1  A    between atoms: C_1  and  C_2
REMARK    2  A    between atoms: C_2  and  C_3
REMARK    3  A    between atoms: C_14  and  C_15
REMARK    4  A    between atoms: C_18  and  C_19
REMARK                            x       y       z     vdW  Elec       q    Type
REMARK                         _______ _______ _______ _____ _____    ______ ____
ROOT
ATOM      1  C   UNL     1       0.787  16.045  19.780  0.00  0.00    +0.000 C 
ATOM      2  C   UNL     1       1.681  15.847  18.538  0.00  0.00    +0.000 C 
ATOM      3  C   UNL     1       3.043  15.251  18.923  0.00  0.00    +0.000 C 
ATOM      4  C   UNL     1       2.893  13.975  19.745  0.00  0.00    +0.000 C 
ATOM      5  C   UNL     1       1.931  14.185  20.911  0.00  0.00    +0.000 C 
ATOM      6  N   UNL     1       0.651  14.725  20.428  0.00  0.00    +0.000 N 
ATOM      7  C   UNL     1      -0.551  13.990  20.403  0.00  0.00    +0.000 C 
ATOM      8  O   UNL     1      -1.684  14.434  20.263  0.00  0.00    +0.000 OA
ATOM      9  N   UNL     1      -0.389  12.585  20.538  0.00  0.00    +0.000 N 
ATOM     10  N   UNL     1      -1.189  11.828  21.340  0.00  0.00    +0.000 NA
ATOM     11  C   UNL     1      -0.694  10.608  21.137  0.00  0.00    +0.000 A 
ATOM     12  C   UNL     1       0.334  10.628  20.167  0.00  0.00    +0.000 A 
ATOM     13  N   UNL     1       0.528  11.900  19.797  0.00  0.00    +0.000 NA
ENDROOT
BRANCH  12  14
ATOM     14  C   UNL     1       1.132   9.539  19.622  0.00  0.00    +0.000 A 
ATOM     15  C   UNL     1       1.563   9.563  18.296  0.00  0.00    +0.000 A 
ATOM     16  C   UNL     1       2.264   8.482  17.760  0.00  0.00    +0.000 A 
ATOM     17  C   UNL     1       2.593   7.353  18.527  0.00  0.00    +0.000 A 
ATOM     18  C   UNL     1       2.195   7.354  19.872  0.00  0.00    +0.000 A 
ATOM     19  C   UNL     1       1.474   8.424  20.411  0.00  0.00    +0.000 A 
BRANCH  17  20
ATOM     20  C   UNL     1       3.296   6.206  17.905  0.00  0.00    +0.000 A 
ATOM     21  C   UNL     1       4.477   6.400  17.166  0.00  0.00    +0.000 A 
ATOM     22  C   UNL     1       5.087   5.354  16.473  0.00  0.00    +0.000 A 
ATOM     23  C   UNL     1       4.546   4.075  16.531  0.00  0.00    +0.000 A 
ATOM     24  C   UNL     1       3.404   3.844  17.295  0.00  0.00    +0.000 A 
ATOM     25  C   UNL     1       2.785   4.898  17.972  0.00  0.00    +0.000 A 
ENDBRANCH  17  20
ENDBRANCH  12  14
BRANCH   1  27
ATOM     26  C   UNL     1      -0.536  17.355  18.029  0.00  0.00    +0.000 C 
ATOM     27  C   UNL     1      -0.511  16.802  19.450  0.00  0.00    +0.000 C 
ENDBRANCH   1  27
TORSDOF 3
ENDMDL
MODEL 7
REMARK VINA RESULT:      -7.8      3.076      4.198
REMARK  Name = 
REMARK  4 active torsions:
REMARK  status: ('A' for Active; 'I' for Inactive)
REMARK    1  A    between atoms: C_1  and  C_2
REMARK    2  A    between atoms: C_2  and  C_3
REMARK    3  A    between atoms: C_14  and  C_15
REMARK    4  A    between atoms: C_18  and  C_19
REMARK                            x       y       z     vdW  Elec       q    Type
REMARK                         _______ _______ _______ _____ _____    ______ ____
ROOT
ATOM      1  C   UNL     1       0.912  15.900  20.013  0.00  0.00    +0.000 C 
ATOM      2  C   UNL     1       1.416  15.681  18.572  0.00  0.00    +0.000 C 
ATOM      3  C   UNL     1       2.831  15.085  18.564  0.00  0.00    +0.000 C 
ATOM      4  C   UNL     1       2.921  13.821  19.413  0.00  0.00    +0.000 C 
ATOM      5  C   UNL     1       2.329  14.052  20.802  0.00  0.00    +0.000 C 
ATOM      6  N   UNL     1       0.965  14.590  20.693  0.00  0.00    +0.000 N 
ATOM      7  C   UNL     1      -0.194  13.860  21.021  0.00  0.00    +0.000 C 
ATOM      8  O   UNL     1      -1.321  14.306  21.202  0.00  0.00    +0.000 OA
ATOM      9  N   UNL     1      -0.001  12.456  21.126  0.00  0.00    +0.000 N 
ATOM     10  N   UNL     1      -0.540  11.715  22.133  0.00  0.00    +0.000 NA
ATOM     11  C   UNL     1      -0.123  10.489  21.816  0.00  0.00    +0.000 A 
ATOM     12  C   UNL     1       0.588  10.491  20.594  0.00  0.00    +0.000 A 
ATOM     13  N   UNL     1       0.668  11.757  20.165  0.00  0.00    +0.000 NA
ENDROOT
BRANCH  12  14
ATOM     14  C   UNL     1       1.198   9.392  19.862  0.00  0.00    +0.000 A 
ATOM     15  C   UNL     1       1.517   8.195  20.503  0.00  0.00    +0.000 A 
ATOM     16  C   UNL     1       2.169   7.173  19.812  0.00  0.00    +0.000 A 
ATOM     17  C   UNL     1       2.500   7.287  18.452  0.00  0.00    +0.000 A 
ATOM     18  C   UNL     1       2.138   8.476  17.801  0.00  0.00    +0.000 A 
ATOM     19  C   UNL     1       1.503   9.513  18.492  0.00  0.00    +0.000 A 
BRANCH  17  20
ATOM     20  C   UNL     1       3.237   6.197  17.769  0.00  0.00    +0.000 A 
ATOM     21  C   UNL     1       2.798   4.864  17.858  0.00  0.00    +0.000 A 
ATOM     22  C   UNL     1       3.541   3.811  17.325  0.00  0.00    +0.000 A 
ATOM     23  C   UNL     1       4.731   4.071  16.656  0.00  0.00    +0.000 A 
ATOM     24  C   UNL     1       5.166   5.386  16.511  0.00  0.00    +0.000 A 
ATOM     25  C   UNL     1       4.429   6.437  17.063  0.00  0.00    +0.000 A 
ENDBRANCH  17  20
ENDBRANCH  12  14
BRANCH   1  27
ATOM     26  C   UNL     1      -0.884  17.139  18.681  0.00  0.00    +0.000 C 
ATOM     27  C   UNL     1      -0.428  16.658  20.054  0.00  0.00    +0.000 C 
ENDBRANCH   1  27
TORSDOF 3
ENDMDL
MODEL 8
REMARK VINA RESULT:      -7.7      2.766      3.351
REMARK  Name = 
REMARK  4 active torsions:
REMARK  status: ('A' for Active; 'I' for Inactive)
REMARK    1  A    between atoms: C_1  and  C_2
REMARK    2  A    between atoms: C_2  and  C_3
REMARK    3  A    between atoms: C_14  and  C_15
REMARK    4  A    between atoms: C_18  and  C_19
REMARK                            x       y       z     vdW  Elec       q    Type
REMARK                         _______ _______ _______ _____ _____    ______ ____
ROOT
ATOM      1  C   UNL     1      -0.630  14.822  20.378  0.00  0.00    +0.000 C 
ATOM      2  C   UNL     1      -0.186  14.778  18.902  0.00  0.00    +0.000 C 
ATOM      3  C   UNL     1       1.335  14.598  18.785  0.00  0.00    +0.000 C 
ATOM      4  C   UNL     1       1.828  13.393  19.579  0.00  0.00    +0.000 C 
ATOM      5  C   UNL     1       1.293  13.425  21.009  0.00  0.00    +0.000 C 
ATOM      6  N   UNL     1      -0.171  13.565  21.004  0.00  0.00    +0.000 N 
ATOM      7  C   UNL     1      -1.059  12.537  21.376  0.00  0.00    +0.000 C 
ATOM      8  O   UNL     1      -2.249  12.649  21.642  0.00  0.00    +0.000 OA
ATOM      9  N   UNL     1      -0.479  11.239  21.416  0.00  0.00    +0.000 N 
ATOM     10  N   UNL     1      -0.722  10.359  22.426  0.00  0.00    +0.000 NA
ATOM     11  C   UNL     1      -0.006   9.304  22.039  0.00  0.00    +0.000 A 
ATOM     12  C   UNL     1       0.590   9.525  20.777  0.00  0.00    +0.000 A 
ATOM     13  N   UNL     1       0.288  10.772  20.391  0.00  0.00    +0.000 NA
ENDROOT
BRANCH  12  14
ATOM     14  C   UNL     1       1.428   8.652  19.968  0.00  0.00    +0.000 A 
ATOM     15  C   UNL     1       1.788   9.010  18.669  0.00  0.00    +0.000 A 
ATOM     16  C   UNL     1       2.530   8.135  17.874  0.00  0.00    +0.000 A 
ATOM     17  C   UNL     1       2.969   6.889  18.347  0.00  0.00    +0.000 A 
ATOM     18  C   UNL     1       2.641   6.552  19.669  0.00  0.00    +0.000 A 
ATOM     19  C   UNL     1       1.880   7.415  20.465  0.00  0.00    +0.000 A 
BRANCH  17  20
ATOM     20  C   UNL     1       3.712   5.969  17.453  0.00  0.00    +0.000 A 
ATOM     21  C   UNL     1       3.487   4.582  17.497  0.00  0.00    +0.000 A 
ATOM     22  C   UNL     1       4.259   3.690  16.753  0.00  0.00    +0.000 A 
ATOM     23  C   UNL     1       5.258   4.170  15.916  0.00  0.00    +0.000 A 
ATOM     24  C   UNL     1       5.472   5.543  15.815  0.00  0.00    +0.000 A 
ATOM     25  C   UNL     1       4.710   6.432  16.577  0.00  0.00    +0.000 A 
ENDBRANCH  17  20
ENDBRANCH  12  14
BRANCH   1  27
ATOM     26  C   UNL     1      -2.390  16.675  20.437  0.00  0.00    +0.000 C 
ATOM     27  C   UNL     1      -2.120  15.177  20.529  0.00  0.00    +0.000 C 
ENDBRANCH   1  27
TORSDOF 3
ENDMDL
MODEL 9
REMARK VINA RESULT:      -7.7      2.952      3.975
REMARK  Name = 
REMARK  4 active torsions:
REMARK  status: ('A' for Active; 'I' for Inactive)
REMARK    1  A    between atoms: C_1  and  C_2
REMARK    2  A    between atoms: C_2  and  C_3
REMARK    3  A    between atoms: C_14  and  C_15
REMARK    4  A    between atoms: C_18  and  C_19
REMARK                            x       y       z     vdW  Elec       q    Type
REMARK                         _______ _______ _______ _____ _____    ______ ____
ROOT
ATOM      1  C   UNL     1       0.546  15.714  20.129  0.00  0.00    +0.000 C 
ATOM      2  C   UNL     1       1.100  15.543  18.700  0.00  0.00    +0.000 C 
ATOM      3  C   UNL     1       2.542  15.015  18.724  0.00  0.00    +0.000 C 
ATOM      4  C   UNL     1       2.669  13.743  19.556  0.00  0.00    +0.000 C 
ATOM      5  C   UNL     1       2.029  13.923  20.930  0.00  0.00    +0.000 C 
ATOM      6  N   UNL     1       0.643  14.397  20.791  0.00  0.00    +0.000 N 
ATOM      7  C   UNL     1      -0.488  13.607  21.075  0.00  0.00    +0.000 C 
ATOM      8  O   UNL     1      -1.640  13.996  21.230  0.00  0.00    +0.000 OA
ATOM      9  N   UNL     1      -0.230  12.212  21.164  0.00  0.00    +0.000 N 
ATOM     10  N   UNL     1      -0.761  11.430  22.144  0.00  0.00    +0.000 NA
ATOM     11  C   UNL     1      -0.276  10.231  21.821  0.00  0.00    +0.000 A 
ATOM     12  C   UNL     1       0.467  10.287  20.620  0.00  0.00    +0.000 A 
ATOM     13  N   UNL     1       0.498  11.562  20.212  0.00  0.00    +0.000 NA
ENDROOT
BRANCH  12  14
ATOM     14  C   UNL     1       1.150   9.230  19.889  0.00  0.00    +0.000 A 
ATOM     15  C   UNL     1       1.558   8.063  20.534  0.00  0.00    +0.000 A 
ATOM     16  C   UNL     1       2.277   7.086  19.843  0.00  0.00    +0.000 A 
ATOM     17  C   UNL     1       2.590   7.216  18.481  0.00  0.00    +0.000 A 
ATOM     18  C   UNL     1       2.140   8.372  17.826  0.00  0.00    +0.000 A 
ATOM     19  C   UNL     1       1.436   9.364  18.517  0.00  0.00    +0.000 A 
BRANCH  17  20
ATOM     20  C   UNL     1       3.399   6.178  17.798  0.00  0.00    +0.000 A 
ATOM     21  C   UNL     1       4.541   6.527  17.056  0.00  0.00    +0.000 A 
ATOM     22  C   UNL     1       5.245   5.583  16.307  0.00  0.00    +0.000 A 
ATOM     23  C   UNL     1       4.840   4.254  16.311  0.00  0.00    +0.000 A 
ATOM     24  C   UNL     1       3.740   3.870  17.076  0.00  0.00    +0.000 A 
ATOM     25  C   UNL     1       3.026   4.822  17.808  0.00  0.00    +0.000 A 
ENDBRANCH  17  20
ENDBRANCH  12  14
BRANCH   1  27
ATOM     26  C   UNL     1      -0.918  17.538  21.161  0.00  0.00    +0.000 C 
ATOM     27  C   UNL     1      -0.829  16.406  20.143  0.00  0.00    +0.000 C 
ENDBRANCH   1  27
TORSDOF 3
ENDMDL
