MODEL 1
REMARK VINA RESULT:      -8.7      0.000      0.000
REMARK  Name = 
REMARK  6 active torsions:
REMARK  status: ('A' for Active; 'I' for Inactive)
REMARK    1  A    between atoms: C_7  and  O_8
REMARK    2  A    between atoms: O_8  and  C_9
REMARK    3  A    between atoms: C_9  and  C_10
REMARK    4  A    between atoms: C_10  and  C_11
REMARK    5  A    between atoms: C_11  and  N_12
REMARK    6  A    between atoms: N_15  and  C_16
REMARK                            x       y       z     vdW  Elec       q    Type
REMARK                         _______ _______ _______ _____ _____    ______ ____
ROOT
ATOM      1  C   UNL     1       7.344   7.730  17.430  0.00  0.00    +0.000 C 
ENDROOT
BRANCH   1   2
ATOM      2  N   UNL     1       7.670   6.307  17.218  0.00  0.00    +0.000 NA
ATOM      3  C   UNL     1       7.607   5.501  18.462  0.00  0.00    +0.000 C 
ATOM      4  C   UNL     1       6.196   5.342  19.078  0.00  0.00    +0.000 C 
ATOM      5  N   UNL     1       5.244   4.878  18.062  0.00  0.00    +0.000 N 
ATOM      6  C   UNL     1       5.259   5.622  16.791  0.00  0.00    +0.000 C 
ATOM      7  C   UNL     1       6.710   5.707  16.257  0.00  0.00    +0.000 C 
BRANCH   5   8
ATOM      8  C   UNL     1       4.190   4.014  18.364  0.00  0.00    +0.000 A 
ATOM      9  C   UNL     1       4.222   2.713  17.798  0.00  0.00    +0.000 A 
ATOM     10  C   UNL     1       3.263   1.745  18.053  0.00  0.00    +0.000 A 
ATOM     11  C   UNL     1       2.222   2.020  18.919  0.00  0.00    +0.000 A 
ATOM     12  C   UNL     1       2.157   3.291  19.519  0.00  0.00    +0.000 A 
ATOM     13  S   UNL     1       0.951   3.793  20.648  0.00  0.00    +0.000 S 
ATOM     14  C   UNL     1       1.610   5.351  20.770  0.00  0.00    +0.000 A 
ATOM     15  C   UNL     1       2.715   5.500  19.967  0.00  0.00    +0.000 A 
ATOM     16  C   UNL     1       3.097   4.298  19.254  0.00  0.00    +0.000 A 
ENDBRANCH   5   8
ENDBRANCH   1   2
BRANCH   1  17
ATOM     17  C   UNL     1       8.348   8.494  18.284  0.00  0.00    +0.000 C 
BRANCH  17  18
ATOM     18  C   UNL     1       8.621   9.871  17.707  0.00  0.00    +0.000 C 
BRANCH  18  19
ATOM     19  O   UNL     1       9.189  10.683  18.731  0.00  0.00    +0.000 OA
BRANCH  19  26
ATOM     20  O   UNL     1      11.515  17.747  17.186  0.00  0.00    +0.000 OA
ATOM     21  C   UNL     1      11.017  16.701  17.588  0.00  0.00    +0.000 C 
ATOM     22  C   UNL     1       9.986  16.661  18.692  0.00  0.00    +0.000 C 
ATOM     23  C   UNL     1       8.993  15.526  18.501  0.00  0.00    +0.000 C 
ATOM     24  C   UNL     1       9.715  14.235  18.239  0.00  0.00    +0.000 A 
ATOM     25  C   UNL     1       9.164  13.007  18.613  0.00  0.00    +0.000 A 
ATOM     26  C   UNL     1       9.819  11.817  18.290  0.00  0.00    +0.000 A 
ATOM     27  C   UNL     1      11.014  11.857  17.568  0.00  0.00    +0.000 A 
ATOM     28  C   UNL     1      11.558  13.077  17.173  0.00  0.00    +0.000 A 
ATOM     29  C   UNL     1      10.915  14.261  17.522  0.00  0.00    +0.000 A 
ATOM     30  N   UNL     1      11.465  15.485  17.137  0.00  0.00    +0.000 N 
ATOM     31  H   UNL     1      12.254  15.511  16.504  0.00  0.00    +0.000 HD
ENDBRANCH  19  26
ENDBRANCH  18  19
ENDBRANCH  17  18
ENDBRANCH   1  17
TORSDOF 6
ENDMDL
MODEL 2
REMARK VINA RESULT:      -8.4      1.171      1.430
REMARK  Name = 
REMARK  6 active torsions:
REMARK  status: ('A' for Active; 'I' for Inactive)
REMARK    1  A    between atoms: C_7  and  O_8
REMARK    2  A    between atoms: O_8  and  C_9
REMARK    3  A    between atoms: C_9  and  C_10
REMARK    4  A    between atoms: C_10  and  C_11
REMARK    5  A    between atoms: C_11  and  N_12
REMARK    6  A    between atoms: N_15  and  C_16
REMARK                            x       y       z     vdW  Elec       q    Type
REMARK                         _______ _______ _______ _____ _____    ______ ____
ROOT
ATOM      1  C   UNL     1       7.413   7.730  17.218  0.00  0.00    +0.000 C 
ENDROOT
BRANCH   1   2
ATOM      2  N   UNL     1       7.601   6.318  16.839  0.00  0.00    +0.000 NA
ATOM      3  C   UNL     1       7.610   5.396  18.002  0.00  0.00    +0.000 C 
ATOM      4  C   UNL     1       6.266   5.271  18.759  0.00  0.00    +0.000 C 
ATOM      5  N   UNL     1       5.176   4.978  17.822  0.00  0.00    +0.000 N 
ATOM      6  C   UNL     1       5.111   5.844  16.632  0.00  0.00    +0.000 C 
ATOM      7  C   UNL     1       6.498   5.884  15.944  0.00  0.00    +0.000 C 
BRANCH   5   8
ATOM      8  C   UNL     1       4.096   4.162  18.163  0.00  0.00    +0.000 A 
ATOM      9  C   UNL     1       4.055   2.857  17.605  0.00  0.00    +0.000 A 
ATOM     10  C   UNL     1       3.065   1.933  17.897  0.00  0.00    +0.000 A 
ATOM     11  C   UNL     1       2.064   2.257  18.793  0.00  0.00    +0.000 A 
ATOM     12  C   UNL     1       2.071   3.533  19.384  0.00  0.00    +0.000 A 
ATOM     13  S   UNL     1       0.923   4.092  20.547  0.00  0.00    +0.000 S 
ATOM     14  C   UNL     1       1.651   5.621  20.637  0.00  0.00    +0.000 A 
ATOM     15  C   UNL     1       2.736   5.719  19.800  0.00  0.00    +0.000 A 
ATOM     16  C   UNL     1       3.044   4.497  19.084  0.00  0.00    +0.000 A 
ENDBRANCH   5   8
ENDBRANCH   1   2
BRANCH   1  17
ATOM     17  C   UNL     1       8.370   8.235  18.291  0.00  0.00    +0.000 C 
BRANCH  17  18
ATOM     18  C   UNL     1       8.309   9.748  18.410  0.00  0.00    +0.000 C 
BRANCH  18  19
ATOM     19  O   UNL     1       9.499  10.291  17.843  0.00  0.00    +0.000 OA
BRANCH  19  26
ATOM     20  O   UNL     1      12.190  17.062  19.989  0.00  0.00    +0.000 OA
ATOM     21  C   UNL     1      11.694  16.072  19.463  0.00  0.00    +0.000 C 
ATOM     22  C   UNL     1      11.075  16.107  18.084  0.00  0.00    +0.000 C 
ATOM     23  C   UNL     1      11.251  14.789  17.349  0.00  0.00    +0.000 C 
ATOM     24  C   UNL     1      10.830  13.640  18.221  0.00  0.00    +0.000 A 
ATOM     25  C   UNL     1      10.322  12.460  17.673  0.00  0.00    +0.000 A 
ATOM     26  C   UNL     1      10.009  11.380  18.499  0.00  0.00    +0.000 A 
ATOM     27  C   UNL     1      10.232  11.472  19.875  0.00  0.00    +0.000 A 
ATOM     28  C   UNL     1      10.759  12.638  20.427  0.00  0.00    +0.000 A 
ATOM     29  C   UNL     1      11.043  13.722  19.601  0.00  0.00    +0.000 A 
ATOM     30  N   UNL     1      11.560  14.894  20.154  0.00  0.00    +0.000 N 
ATOM     31  H   UNL     1      11.845  14.915  21.125  0.00  0.00    +0.000 HD
ENDBRANCH  19  26
ENDBRANCH  18  19
ENDBRANCH  17  18
ENDBRANCH   1  17
TORSDOF 6
ENDMDL
MODEL 3
REMARK VINA RESULT:      -8.3      4.956      7.793
REMARK  Name = 
REMARK  6 active torsions:
REMARK  status: ('A' for Active; 'I' for Inactive)
REMARK    1  A    between atoms: C_7  and  O_8
REMARK    2  A    between atoms: O_8  and  C_9
REMARK    3  A    between atoms: C_9  and  C_10
REMARK    4  A    between atoms: C_10  and  C_11
REMARK    5  A    between atoms: C_11  and  N_12
REMARK    6  A    between atoms: N_15  and  C_16
REMARK                            x       y       z     vdW  Elec       q    Type
REMARK                         _______ _______ _______ _____ _____    ______ ____
ROOT
ATOM      1  C   UNL     1       2.898   2.165  20.080  0.00  0.00    +0.000 C 
ENDROOT
BRANCH   1   2
ATOM      2  N   UNL     1       1.706   2.871  20.585  0.00  0.00    +0.000 NA
ATOM      3  C   UNL     1       2.034   3.978  21.518  0.00  0.00    +0.000 C 
ATOM      4  C   UNL     1       2.780   5.177  20.885  0.00  0.00    +0.000 C 
ATOM      5  N   UNL     1       2.075   5.645  19.687  0.00  0.00    +0.000 N 
ATOM      6  C   UNL     1       1.703   4.598  18.720  0.00  0.00    +0.000 C 
ATOM      7  C   UNL     1       0.949   3.460  19.451  0.00  0.00    +0.000 C 
BRANCH   5   8
ATOM      8  C   UNL     1       2.031   6.992  19.324  0.00  0.00    +0.000 A 
ATOM      9  C   UNL     1       2.547   7.348  18.051  0.00  0.00    +0.000 A 
ATOM     10  C   UNL     1       2.522   8.641  17.551  0.00  0.00    +0.000 A 
ATOM     11  C   UNL     1       1.949   9.655  18.295  0.00  0.00    +0.000 A 
ATOM     12  C   UNL     1       1.409   9.348  19.557  0.00  0.00    +0.000 A 
ATOM     13  S   UNL     1       0.627  10.479  20.601  0.00  0.00    +0.000 S 
ATOM     14  C   UNL     1       0.372   9.305  21.799  0.00  0.00    +0.000 A 
ATOM     15  C   UNL     1       0.875   8.082  21.429  0.00  0.00    +0.000 A 
ATOM     16  C   UNL     1       1.448   8.054  20.098  0.00  0.00    +0.000 A 
ENDBRANCH   5   8
ENDBRANCH   1   2
BRANCH   1  17
ATOM     17  C   UNL     1       2.787   1.673  18.643  0.00  0.00    +0.000 C 
BRANCH  17  18
ATOM     18  C   UNL     1       4.078   1.911  17.881  0.00  0.00    +0.000 C 
BRANCH  18  19
ATOM     19  O   UNL     1       3.797   2.767  16.777  0.00  0.00    +0.000 OA
BRANCH  19  26
ATOM     20  O   UNL     1       8.464   8.633  18.003  0.00  0.00    +0.000 OA
ATOM     21  C   UNL     1       7.817   7.593  17.970  0.00  0.00    +0.000 C 
ATOM     22  C   UNL     1       8.049   6.457  18.940  0.00  0.00    +0.000 C 
ATOM     23  C   UNL     1       6.766   5.703  19.249  0.00  0.00    +0.000 C 
ATOM     24  C   UNL     1       6.052   5.336  17.979  0.00  0.00    +0.000 A 
ATOM     25  C   UNL     1       5.246   4.199  17.902  0.00  0.00    +0.000 A 
ATOM     26  C   UNL     1       4.533   3.921  16.734  0.00  0.00    +0.000 A 
ATOM     27  C   UNL     1       4.608   4.800  15.651  0.00  0.00    +0.000 A 
ATOM     28  C   UNL     1       5.394   5.948  15.728  0.00  0.00    +0.000 A 
ATOM     29  C   UNL     1       6.123   6.205  16.885  0.00  0.00    +0.000 A 
ATOM     30  N   UNL     1       6.920   7.348  16.959  0.00  0.00    +0.000 N 
ATOM     31  H   UNL     1       6.871   8.050  16.231  0.00  0.00    +0.000 HD
ENDBRANCH  19  26
ENDBRANCH  18  19
ENDBRANCH  17  18
ENDBRANCH   1  17
TORSDOF 6
ENDMDL
MODEL 4
REMARK VINA RESULT:      -8.2      0.863      1.361
REMARK  Name = 
REMARK  6 active torsions:
REMARK  status: ('A' for Active; 'I' for Inactive)
REMARK    1  A    between atoms: C_7  and  O_8
REMARK    2  A    between atoms: O_8  and  C_9
REMARK    3  A    between atoms: C_9  and  C_10
REMARK    4  A    between atoms: C_10  and  C_11
REMARK    5  A    between atoms: C_11  and  N_12
REMARK    6  A    between atoms: N_15  and  C_16
REMARK                            x       y       z     vdW  Elec       q    Type
REMARK                         _______ _______ _______ _____ _____    ______ ____
ROOT
ATOM      1  C   UNL     1       7.428   7.723  17.844  0.00  0.00    +0.000 C 
ENDROOT
BRANCH   1   2
ATOM      2  N   UNL     1       7.416   6.528  16.980  0.00  0.00    +0.000 NA
ATOM      3  C   UNL     1       7.528   5.257  17.738  0.00  0.00    +0.000 C 
ATOM      4  C   UNL     1       6.320   4.917  18.644  0.00  0.00    +0.000 C 
ATOM      5  N   UNL     1       5.069   5.007  17.883  0.00  0.00    +0.000 N 
ATOM      6  C   UNL     1       4.893   6.237  17.091  0.00  0.00    +0.000 C 
ATOM      7  C   UNL     1       6.146   6.471  16.213  0.00  0.00    +0.000 C 
BRANCH   5   8
ATOM      8  C   UNL     1       3.987   4.158  18.121  0.00  0.00    +0.000 A 
ATOM      9  C   UNL     1       3.931   2.942  17.391  0.00  0.00    +0.000 A 
ATOM     10  C   UNL     1       2.937   1.992  17.565  0.00  0.00    +0.000 A 
ATOM     11  C   UNL     1       1.947   2.196  18.508  0.00  0.00    +0.000 A 
ATOM     12  C   UNL     1       1.970   3.379  19.269  0.00  0.00    +0.000 A 
ATOM     13  S   UNL     1       0.839   3.780  20.510  0.00  0.00    +0.000 S 
ATOM     14  C   UNL     1       1.579   5.279  20.800  0.00  0.00    +0.000 A 
ATOM     15  C   UNL     1       2.656   5.483  19.972  0.00  0.00    +0.000 A 
ATOM     16  C   UNL     1       2.948   4.369  19.092  0.00  0.00    +0.000 A 
ENDBRANCH   5   8
ENDBRANCH   1   2
BRANCH   1  17
ATOM     17  C   UNL     1       8.355   8.838  17.378  0.00  0.00    +0.000 C 
BRANCH  17  18
ATOM     18  C   UNL     1       8.648   9.812  18.506  0.00  0.00    +0.000 C 
BRANCH  18  19
ATOM     19  O   UNL     1       9.799  10.575  18.153  0.00  0.00    +0.000 OA
BRANCH  19  26
ATOM     20  O   UNL     1      10.254  18.097  17.198  0.00  0.00    +0.000 OA
ATOM     21  C   UNL     1      10.388  16.881  17.288  0.00  0.00    +0.000 C 
ATOM     22  C   UNL     1      11.695  16.181  16.994  0.00  0.00    +0.000 C 
ATOM     23  C   UNL     1      11.885  14.946  17.858  0.00  0.00    +0.000 C 
ATOM     24  C   UNL     1      10.659  14.079  17.813  0.00  0.00    +0.000 A 
ATOM     25  C   UNL     1      10.743  12.694  17.978  0.00  0.00    +0.000 A 
ATOM     26  C   UNL     1       9.582  11.920  18.008  0.00  0.00    +0.000 A 
ATOM     27  C   UNL     1       8.333  12.537  17.900  0.00  0.00    +0.000 A 
ATOM     28  C   UNL     1       8.241  13.920  17.756  0.00  0.00    +0.000 A 
ATOM     29  C   UNL     1       9.404  14.684  17.699  0.00  0.00    +0.000 A 
ATOM     30  N   UNL     1       9.313  16.067  17.544  0.00  0.00    +0.000 N 
ATOM     31  H   UNL     1       8.413  16.527  17.599  0.00  0.00    +0.000 HD
ENDBRANCH  19  26
ENDBRANCH  18  19
ENDBRANCH  17  18
ENDBRANCH   1  17
TORSDOF 6
ENDMDL
MODEL 5
REMARK VINA RESULT:      -7.9      4.299     11.581
REMARK  Name = 
REMARK  6 active torsions:
REMARK  status: ('A' for Active; 'I' for Inactive)
REMARK    1  A    between atoms: C_7  and  O_8
REMARK    2  A    between atoms: O_8  and  C_9
REMARK    3  A    between atoms: C_9  and  C_10
REMARK    4  A    between atoms: C_10  and  C_11
REMARK    5  A    between atoms: C_11  and  N_12
REMARK    6  A    between atoms: N_15  and  C_16
REMARK                            x       y       z     vdW  Elec       q    Type
REMARK                         _______ _______ _______ _____ _____    ______ ____
ROOT
ATOM      1  C   UNL     1       8.985  10.068  19.049  0.00  0.00    +0.000 C 
ENDROOT
BRANCH   1   2
ATOM      2  N   UNL     1      10.210  10.884  19.140  0.00  0.00    +0.000 NA
ATOM      3  C   UNL     1      10.486  11.665  17.909  0.00  0.00    +0.000 C 
ATOM      4  C   UNL     1       9.467  12.786  17.594  0.00  0.00    +0.000 C 
ATOM      5  N   UNL     1       9.270  13.644  18.768  0.00  0.00    +0.000 N 
ATOM      6  C   UNL     1       9.006  12.937  20.033  0.00  0.00    +0.000 C 
ATOM      7  C   UNL     1      10.089  11.854  20.258  0.00  0.00    +0.000 C 
BRANCH   5   8
ATOM      8  C   UNL     1       9.035  15.015  18.661  0.00  0.00    +0.000 A 
ATOM      9  C   UNL     1       7.787  15.508  19.125  0.00  0.00    +0.000 A 
ATOM     10  C   UNL     1       7.446  16.851  19.118  0.00  0.00    +0.000 A 
ATOM     11  C   UNL     1       8.354  17.789  18.665  0.00  0.00    +0.000 A 
ATOM     12  C   UNL     1       9.611  17.350  18.210  0.00  0.00    +0.000 A 
ATOM     13  S   UNL     1      10.875  18.383  17.645  0.00  0.00    +0.000 S 
ATOM     14  C   UNL     1      11.892  17.069  17.303  0.00  0.00    +0.000 A 
ATOM     15  C   UNL     1      11.292  15.870  17.598  0.00  0.00    +0.000 A 
ATOM     16  C   UNL     1       9.970  15.995  18.179  0.00  0.00    +0.000 A 
ENDBRANCH   5   8
ENDBRANCH   1   2
BRANCH   1  17
ATOM     17  C   UNL     1       8.735   9.443  17.682  0.00  0.00    +0.000 C 
BRANCH  17  18
ATOM     18  C   UNL     1       7.552   8.493  17.724  0.00  0.00    +0.000 C 
BRANCH  18  19
ATOM     19  O   UNL     1       7.900   7.310  17.010  0.00  0.00    +0.000 OA
BRANCH  19  26
ATOM     20  O   UNL     1       1.600   3.109  17.605  0.00  0.00    +0.000 OA
ATOM     21  C   UNL     1       2.496   3.945  17.595  0.00  0.00    +0.000 C 
ATOM     22  C   UNL     1       2.307   5.348  18.125  0.00  0.00    +0.000 C 
ATOM     23  C   UNL     1       3.586   5.904  18.730  0.00  0.00    +0.000 C 
ATOM     24  C   UNL     1       4.739   5.716  17.786  0.00  0.00    +0.000 A 
ATOM     25  C   UNL     1       5.822   6.599  17.776  0.00  0.00    +0.000 A 
ATOM     26  C   UNL     1       6.915   6.360  16.943  0.00  0.00    +0.000 A 
ATOM     27  C   UNL     1       6.937   5.219  16.137  0.00  0.00    +0.000 A 
ATOM     28  C   UNL     1       5.871   4.323  16.156  0.00  0.00    +0.000 A 
ATOM     29  C   UNL     1       4.771   4.581  16.969  0.00  0.00    +0.000 A 
ATOM     30  N   UNL     1       3.697   3.690  16.981  0.00  0.00    +0.000 N 
ATOM     31  H   UNL     1       3.769   2.801  16.501  0.00  0.00    +0.000 HD
ENDBRANCH  19  26
ENDBRANCH  18  19
ENDBRANCH  17  18
ENDBRANCH   1  17
TORSDOF 6
ENDMDL
MODEL 6
REMARK VINA RESULT:      -7.9      4.312     11.419
REMARK  Name = 
REMARK  6 active torsions:
REMARK  status: ('A' for Active; 'I' for Inactive)
REMARK    1  A    between atoms: C_7  and  O_8
REMARK    2  A    between atoms: O_8  and  C_9
REMARK    3  A    between atoms: C_9  and  C_10
REMARK    4  A    between atoms: C_10  and  C_11
REMARK    5  A    between atoms: C_11  and  N_12
REMARK    6  A    between atoms: N_15  and  C_16
REMARK                            x       y       z     vdW  Elec       q    Type
REMARK                         _______ _______ _______ _____ _____    ______ ____
ROOT
ATOM      1  C   UNL     1       8.596  10.370  18.425  0.00  0.00    +0.000 C 
ENDROOT
BRANCH   1   2
ATOM      2  N   UNL     1       9.785  11.092  17.934  0.00  0.00    +0.000 NA
ATOM      3  C   UNL     1       9.506  12.507  17.584  0.00  0.00    +0.000 C 
ATOM      4  C   UNL     1       9.136  13.423  18.775  0.00  0.00    +0.000 C 
ATOM      5  N   UNL     1      10.132  13.297  19.846  0.00  0.00    +0.000 N 
ATOM      6  C   UNL     1      10.472  11.918  20.238  0.00  0.00    +0.000 C 
ATOM      7  C   UNL     1      10.840  11.097  18.978  0.00  0.00    +0.000 C 
BRANCH   5   8
ATOM      8  C   UNL     1      10.502  14.374  20.653  0.00  0.00    +0.000 A 
ATOM      9  C   UNL     1      11.496  15.258  20.156  0.00  0.00    +0.000 A 
ATOM     10  C   UNL     1      11.921  16.388  20.835  0.00  0.00    +0.000 A 
ATOM     11  C   UNL     1      11.351  16.715  22.051  0.00  0.00    +0.000 A 
ATOM     12  C   UNL     1      10.349  15.879  22.577  0.00  0.00    +0.000 A 
ATOM     13  S   UNL     1       9.507  16.153  24.059  0.00  0.00    +0.000 S 
ATOM     14  C   UNL     1       8.607  14.725  23.895  0.00  0.00    +0.000 A 
ATOM     15  C   UNL     1       8.938  14.043  22.750  0.00  0.00    +0.000 A 
ATOM     16  C   UNL     1       9.922  14.713  21.924  0.00  0.00    +0.000 A 
ENDBRANCH   5   8
ENDBRANCH   1   2
BRANCH   1  17
ATOM     17  C   UNL     1       8.657   8.856  18.265  0.00  0.00    +0.000 C 
BRANCH  17  18
ATOM     18  C   UNL     1       7.397   8.325  17.604  0.00  0.00    +0.000 C 
BRANCH  18  19
ATOM     19  O   UNL     1       7.749   7.198  16.806  0.00  0.00    +0.000 OA
BRANCH  19  26
ATOM     20  O   UNL     1       1.702   2.670  17.589  0.00  0.00    +0.000 OA
ATOM     21  C   UNL     1       2.547   3.556  17.539  0.00  0.00    +0.000 C 
ATOM     22  C   UNL     1       2.271   4.971  17.993  0.00  0.00    +0.000 C 
ATOM     23  C   UNL     1       3.510   5.633  18.574  0.00  0.00    +0.000 C 
ATOM     24  C   UNL     1       4.680   5.464  17.648  0.00  0.00    +0.000 A 
ATOM     25  C   UNL     1       5.709   6.407  17.597  0.00  0.00    +0.000 A 
ATOM     26  C   UNL     1       6.822   6.190  16.784  0.00  0.00    +0.000 A 
ATOM     27  C   UNL     1       6.918   5.011  16.040  0.00  0.00    +0.000 A 
ATOM     28  C   UNL     1       5.906   4.056  16.101  0.00  0.00    +0.000 A 
ATOM     29  C   UNL     1       4.785   4.291  16.893  0.00  0.00    +0.000 A 
ATOM     30  N   UNL     1       3.766   3.340  16.946  0.00  0.00    +0.000 N 
ATOM     31  H   UNL     1       3.894   2.433  16.515  0.00  0.00    +0.000 HD
ENDBRANCH  19  26
ENDBRANCH  18  19
ENDBRANCH  17  18
ENDBRANCH   1  17
TORSDOF 6
ENDMDL
MODEL 7
REMARK VINA RESULT:      -7.9      6.035      7.959
REMARK  Name = 
REMARK  6 active torsions:
REMARK  status: ('A' for Active; 'I' for Inactive)
REMARK    1  A    between atoms: C_7  and  O_8
REMARK    2  A    between atoms: O_8  and  C_9
REMARK    3  A    between atoms: C_9  and  C_10
REMARK    4  A    between atoms: C_10  and  C_11
REMARK    5  A    between atoms: C_11  and  N_12
REMARK    6  A    between atoms: N_15  and  C_16
REMARK                            x       y       z     vdW  Elec       q    Type
REMARK                         _______ _______ _______ _____ _____    ______ ____
ROOT
ATOM      1  C   UNL     1       1.791   2.845  20.694  0.00  0.00    +0.000 C 
ENDROOT
BRANCH   1   2
ATOM      2  N   UNL     1       2.125   1.969  19.556  0.00  0.00    +0.000 NA
ATOM      3  C   UNL     1       1.720   2.535  18.245  0.00  0.00    +0.000 C 
ATOM      4  C   UNL     1       2.486   3.808  17.809  0.00  0.00    +0.000 C 
ATOM      5  N   UNL     1       3.934   3.592  17.902  0.00  0.00    +0.000 N 
ATOM      6  C   UNL     1       4.409   3.017  19.173  0.00  0.00    +0.000 C 
ATOM      7  C   UNL     1       3.592   1.744  19.504  0.00  0.00    +0.000 C 
BRANCH   5   8
ATOM      8  C   UNL     1       4.835   4.166  17.004  0.00  0.00    +0.000 A 
ATOM      9  C   UNL     1       4.709   3.818  15.634  0.00  0.00    +0.000 A 
ATOM     10  C   UNL     1       5.509   4.350  14.634  0.00  0.00    +0.000 A 
ATOM     11  C   UNL     1       6.472   5.289  14.952  0.00  0.00    +0.000 A 
ATOM     12  C   UNL     1       6.623   5.678  16.295  0.00  0.00    +0.000 A 
ATOM     13  S   UNL     1       7.747   6.860  16.863  0.00  0.00    +0.000 S 
ATOM     14  C   UNL     1       7.271   6.640  18.476  0.00  0.00    +0.000 A 
ATOM     15  C   UNL     1       6.290   5.687  18.593  0.00  0.00    +0.000 A 
ATOM     16  C   UNL     1       5.847   5.134  17.328  0.00  0.00    +0.000 A 
ENDBRANCH   5   8
ENDBRANCH   1   2
BRANCH   1  17
ATOM     17  C   UNL     1       0.976   4.080  20.332  0.00  0.00    +0.000 C 
BRANCH  17  18
ATOM     18  C   UNL     1       1.550   5.325  20.984  0.00  0.00    +0.000 C 
BRANCH  18  19
ATOM     19  O   UNL     1       2.563   5.852  20.131  0.00  0.00    +0.000 OA
BRANCH  19  26
ATOM     20  O   UNL     1       0.516  12.963  18.417  0.00  0.00    +0.000 OA
ATOM     21  C   UNL     1       0.844  11.885  18.899  0.00  0.00    +0.000 C 
ATOM     22  C   UNL     1       0.984  11.667  20.389  0.00  0.00    +0.000 C 
ATOM     23  C   UNL     1       0.617  10.248  20.792  0.00  0.00    +0.000 C 
ATOM     24  C   UNL     1       1.329   9.253  19.920  0.00  0.00    +0.000 A 
ATOM     25  C   UNL     1       1.667   7.983  20.394  0.00  0.00    +0.000 A 
ATOM     26  C   UNL     1       2.260   7.051  19.541  0.00  0.00    +0.000 A 
ATOM     27  C   UNL     1       2.490   7.382  18.203  0.00  0.00    +0.000 A 
ATOM     28  C   UNL     1       2.137   8.639  17.719  0.00  0.00    +0.000 A 
ATOM     29  C   UNL     1       1.571   9.574  18.581  0.00  0.00    +0.000 A 
ATOM     30  N   UNL     1       1.227  10.838  18.099  0.00  0.00    +0.000 N 
ATOM     31  H   UNL     1       1.270  11.032  17.106  0.00  0.00    +0.000 HD
ENDBRANCH  19  26
ENDBRANCH  18  19
ENDBRANCH  17  18
ENDBRANCH   1  17
TORSDOF 6
ENDMDL
MODEL 8
REMARK VINA RESULT:      -7.9      1.494      2.497
REMARK  Name = 
REMARK  6 active torsions:
REMARK  status: ('A' for Active; 'I' for Inactive)
REMARK    1  A    between atoms: C_7  and  O_8
REMARK    2  A    between atoms: O_8  and  C_9
REMARK    3  A    between atoms: C_9  and  C_10
REMARK    4  A    between atoms: C_10  and  C_11
REMARK    5  A    between atoms: C_11  and  N_12
REMARK    6  A    between atoms: N_15  and  C_16
REMARK                            x       y       z     vdW  Elec       q    Type
REMARK                         _______ _______ _______ _____ _____    ______ ____
ROOT
ATOM      1  C   UNL     1       7.053   7.873  17.210  0.00  0.00    +0.000 C 
ENDROOT
BRANCH   1   2
ATOM      2  N   UNL     1       6.436   6.736  16.501  0.00  0.00    +0.000 NA
ATOM      3  C   UNL     1       6.528   5.460  17.253  0.00  0.00    +0.000 C 
ATOM      4  C   UNL     1       5.712   5.404  18.567  0.00  0.00    +0.000 C 
ATOM      5  N   UNL     1       4.323   5.812  18.325  0.00  0.00    +0.000 N 
ATOM      6  C   UNL     1       4.152   7.065  17.569  0.00  0.00    +0.000 C 
ATOM      7  C   UNL     1       4.994   7.007  16.271  0.00  0.00    +0.000 C 
BRANCH   5   8
ATOM      8  C   UNL     1       3.248   5.246  19.011  0.00  0.00    +0.000 A 
ATOM      9  C   UNL     1       2.582   6.053  19.971  0.00  0.00    +0.000 A 
ATOM     10  C   UNL     1       1.475   5.629  20.688  0.00  0.00    +0.000 A 
ATOM     11  C   UNL     1       0.950   4.371  20.463  0.00  0.00    +0.000 A 
ATOM     12  C   UNL     1       1.565   3.541  19.508  0.00  0.00    +0.000 A 
ATOM     13  S   UNL     1       1.024   1.959  19.075  0.00  0.00    +0.000 S 
ATOM     14  C   UNL     1       2.301   1.744  17.980  0.00  0.00    +0.000 A 
ATOM     15  C   UNL     1       3.131   2.838  17.945  0.00  0.00    +0.000 A 
ATOM     16  C   UNL     1       2.704   3.934  18.791  0.00  0.00    +0.000 A 
ENDBRANCH   5   8
ENDBRANCH   1   2
BRANCH   1  17
ATOM     17  C   UNL     1       8.275   7.516  18.047  0.00  0.00    +0.000 C 
BRANCH  17  18
ATOM     18  C   UNL     1       8.679   8.671  18.945  0.00  0.00    +0.000 C 
BRANCH  18  19
ATOM     19  O   UNL     1       8.626   9.873  18.182  0.00  0.00    +0.000 OA
BRANCH  19  26
ATOM     20  O   UNL     1      12.333  16.336  19.658  0.00  0.00    +0.000 OA
ATOM     21  C   UNL     1      11.698  15.381  19.225  0.00  0.00    +0.000 C 
ATOM     22  C   UNL     1      11.146  15.341  17.818  0.00  0.00    +0.000 C 
ATOM     23  C   UNL     1      11.125  13.928  17.257  0.00  0.00    +0.000 C 
ATOM     24  C   UNL     1      10.486  12.983  18.234  0.00  0.00    +0.000 A 
ATOM     25  C   UNL     1       9.807  11.841  17.802  0.00  0.00    +0.000 A 
ATOM     26  C   UNL     1       9.287  10.940  18.731  0.00  0.00    +0.000 A 
ATOM     27  C   UNL     1       9.471  11.168  20.097  0.00  0.00    +0.000 A 
ATOM     28  C   UNL     1      10.165  12.294  20.535  0.00  0.00    +0.000 A 
ATOM     29  C   UNL     1      10.657  13.204  19.604  0.00  0.00    +0.000 A 
ATOM     30  N   UNL     1      11.342  14.338  20.042  0.00  0.00    +0.000 N 
ATOM     31  H   UNL     1      11.591  14.436  21.019  0.00  0.00    +0.000 HD
ENDBRANCH  19  26
ENDBRANCH  18  19
ENDBRANCH  17  18
ENDBRANCH   1  17
TORSDOF 6
ENDMDL
MODEL 9
REMARK VINA RESULT:      -7.8      6.120      8.169
REMARK  Name = 
REMARK  6 active torsions:
REMARK  status: ('A' for Active; 'I' for Inactive)
REMARK    1  A    between atoms: C_7  and  O_8
REMARK    2  A    between atoms: O_8  and  C_9
REMARK    3  A    between atoms: C_9  and  C_10
REMARK    4  A    between atoms: C_10  and  C_11
REMARK    5  A    between atoms: C_11  and  N_12
REMARK    6  A    between atoms: N_15  and  C_16
REMARK                            x       y       z     vdW  Elec       q    Type
REMARK                         _______ _______ _______ _____ _____    ______ ____
ROOT
ATOM      1  C   UNL     1       1.512   2.501  19.930  0.00  0.00    +0.000 C 
ENDROOT
BRANCH   1   2
ATOM      2  N   UNL     1       2.499   1.776  19.108  0.00  0.00    +0.000 NA
ATOM      3  C   UNL     1       2.486   2.188  17.682  0.00  0.00    +0.000 C 
ATOM      4  C   UNL     1       2.953   3.638  17.407  0.00  0.00    +0.000 C 
ATOM      5  N   UNL     1       4.248   3.890  18.051  0.00  0.00    +0.000 N 
ATOM      6  C   UNL     1       4.341   3.491  19.466  0.00  0.00    +0.000 C 
ATOM      7  C   UNL     1       3.868   2.025  19.625  0.00  0.00    +0.000 C 
BRANCH   5   8
ATOM      8  C   UNL     1       5.216   4.719  17.483  0.00  0.00    +0.000 A 
ATOM      9  C   UNL     1       5.768   5.741  18.300  0.00  0.00    +0.000 A 
ATOM     10  C   UNL     1       6.766   6.602  17.875  0.00  0.00    +0.000 A 
ATOM     11  C   UNL     1       7.293   6.471  16.603  0.00  0.00    +0.000 A 
ATOM     12  C   UNL     1       6.790   5.461  15.763  0.00  0.00    +0.000 A 
ATOM     13  S   UNL     1       7.353   5.132  14.164  0.00  0.00    +0.000 S 
ATOM     14  C   UNL     1       6.223   3.886  13.945  0.00  0.00    +0.000 A 
ATOM     15  C   UNL     1       5.425   3.723  15.051  0.00  0.00    +0.000 A 
ATOM     16  C   UNL     1       5.759   4.596  16.158  0.00  0.00    +0.000 A 
ENDBRANCH   5   8
ENDBRANCH   1   2
BRANCH   1  17
ATOM     17  C   UNL     1       2.091   3.627  20.777  0.00  0.00    +0.000 C 
BRANCH  17  18
ATOM     18  C   UNL     1       1.308   4.913  20.586  0.00  0.00    +0.000 C 
BRANCH  18  19
ATOM     19  O   UNL     1       2.156   6.009  20.918  0.00  0.00    +0.000 OA
BRANCH  19  26
ATOM     20  O   UNL     1       0.697  12.954  18.209  0.00  0.00    +0.000 OA
ATOM     21  C   UNL     1       0.925  11.928  18.841  0.00  0.00    +0.000 C 
ATOM     22  C   UNL     1       0.975  11.896  20.351  0.00  0.00    +0.000 C 
ATOM     23  C   UNL     1       0.492  10.567  20.907  0.00  0.00    +0.000 C 
ATOM     24  C   UNL     1       1.175   9.425  20.210  0.00  0.00    +0.000 A 
ATOM     25  C   UNL     1       1.399   8.209  20.859  0.00  0.00    +0.000 A 
ATOM     26  C   UNL     1       1.967   7.139  20.166  0.00  0.00    +0.000 A 
ATOM     27  C   UNL     1       2.286   7.279  18.813  0.00  0.00    +0.000 A 
ATOM     28  C   UNL     1       2.045   8.482  18.154  0.00  0.00    +0.000 A 
ATOM     29  C   UNL     1       1.504   9.555  18.858  0.00  0.00    +0.000 A 
ATOM     30  N   UNL     1       1.273  10.765  18.201  0.00  0.00    +0.000 N 
ATOM     31  H   UNL     1       1.378  10.826  17.196  0.00  0.00    +0.000 HD
ENDBRANCH  19  26
ENDBRANCH  18  19
ENDBRANCH  17  18
ENDBRANCH   1  17
TORSDOF 6
ENDMDL
