MODEL 1
REMARK VINA RESULT:      -8.0      0.000      0.000
REMARK  Name = 
REMARK  7 active torsions:
REMARK  status: ('A' for Active; 'I' for Inactive)
REMARK    1  A    between atoms: C_1  and  C_2
REMARK    2  A    between atoms: C_5  and  C_6
REMARK    3  A    between atoms: N_8  and  C_9
REMARK    4  A    between atoms: C_15  and  S_16
REMARK    5  A    between atoms: S_16  and  C_17
REMARK    6  A    between atoms: C_17  and  C_18
REMARK    7  A    between atoms: C_23  and  C_24
REMARK                            x       y       z     vdW  Elec       q    Type
REMARK                         _______ _______ _______ _____ _____    ______ ____
ROOT
ATOM      1  C   UNL     1       2.506   6.905  18.966  0.00  0.00    +0.000 A 
ATOM      2  C   UNL     1       3.683   6.895  18.251  0.00  0.00    +0.000 A 
ATOM      3  N   UNL     1       3.950   5.578  17.937  0.00  0.00    +0.000 N 
ATOM      4  C   UNL     1       2.955   4.844  18.568  0.00  0.00    +0.000 A 
ATOM      5  N   UNL     1       2.077   5.614  19.177  0.00  0.00    +0.000 NA
ENDROOT
BRANCH   1  10
ATOM      6  C   UNL     1      -0.197  11.674  20.857  0.00  0.00    +0.000 C 
ATOM      7  C   UNL     1       0.483  10.417  20.388  0.00  0.00    +0.000 A 
ATOM      8  C   UNL     1       0.868  10.309  19.047  0.00  0.00    +0.000 A 
ATOM      9  C   UNL     1       1.520   9.166  18.579  0.00  0.00    +0.000 A 
ATOM     10  C   UNL     1       1.808   8.097  19.439  0.00  0.00    +0.000 A 
ATOM     11  C   UNL     1       1.406   8.198  20.777  0.00  0.00    +0.000 A 
ATOM     12  C   UNL     1       0.748   9.346  21.264  0.00  0.00    +0.000 A 
ATOM     13  C   UNL     1       0.344   9.408  22.711  0.00  0.00    +0.000 C 
ENDBRANCH   1  10
BRANCH   3  14
ATOM     14  C   UNL     1       5.036   5.160  17.121  0.00  0.00    +0.000 A 
ATOM     15  C   UNL     1       6.307   5.009  17.696  0.00  0.00    +0.000 A 
ATOM     16  C   UNL     1       7.382   4.582  16.916  0.00  0.00    +0.000 A 
ATOM     17  C   UNL     1       7.200   4.321  15.560  0.00  0.00    +0.000 A 
ATOM     18  C   UNL     1       5.943   4.487  14.980  0.00  0.00    +0.000 A 
ATOM     19  C   UNL     1       4.861   4.909  15.755  0.00  0.00    +0.000 A 
ENDBRANCH   3  14
BRANCH   4  20
ATOM     20  S   UNL     1       2.909   3.109  18.715  0.00  0.00    +0.000 S 
BRANCH  20  21
ATOM     21  C   UNL     1       2.992   2.892  20.523  0.00  0.00    +0.000 C 
BRANCH  21  22
ATOM     22  C   UNL     1       1.624   2.813  21.170  0.00  0.00    +0.000 C 
ATOM     23  N   UNL     1       0.552   3.109  20.378  0.00  0.00    +0.000 N 
ATOM     24  O   UNL     1       1.457   2.415  22.320  0.00  0.00    +0.000 OA
ATOM     25  H   UNL     1       0.692   3.749  19.601  0.00  0.00    +0.000 HD
ATOM     26  H   UNL     1      -0.340   3.167  20.851  0.00  0.00    +0.000 HD
ENDBRANCH  21  22
ENDBRANCH  20  21
ENDBRANCH   4  20
TORSDOF 5
ENDMDL
MODEL 2
REMARK VINA RESULT:      -8.0      0.594      1.137
REMARK  Name = 
REMARK  7 active torsions:
REMARK  status: ('A' for Active; 'I' for Inactive)
REMARK    1  A    between atoms: C_1  and  C_2
REMARK    2  A    between atoms: C_5  and  C_6
REMARK    3  A    between atoms: N_8  and  C_9
REMARK    4  A    between atoms: C_15  and  S_16
REMARK    5  A    between atoms: S_16  and  C_17
REMARK    6  A    between atoms: C_17  and  C_18
REMARK    7  A    between atoms: C_23  and  C_24
REMARK                            x       y       z     vdW  Elec       q    Type
REMARK                         _______ _______ _______ _____ _____    ______ ____
ROOT
ATOM      1  C   UNL     1       2.740   6.842  19.196  0.00  0.00    +0.000 A 
ATOM      2  C   UNL     1       3.659   6.832  18.170  0.00  0.00    +0.000 A 
ATOM      3  N   UNL     1       4.209   5.566  18.138  0.00  0.00    +0.000 N 
ATOM      4  C   UNL     1       3.653   4.899  19.220  0.00  0.00    +0.000 A 
ATOM      5  N   UNL     1       2.766   5.636  19.859  0.00  0.00    +0.000 NA
ENDROOT
BRANCH   1  10
ATOM      6  C   UNL     1      -0.669  11.319  20.595  0.00  0.00    +0.000 C 
ATOM      7  C   UNL     1       0.195  10.136  20.252  0.00  0.00    +0.000 A 
ATOM      8  C   UNL     1       0.715  10.024  18.959  0.00  0.00    +0.000 A 
ATOM      9  C   UNL     1       1.538   8.951  18.610  0.00  0.00    +0.000 A 
ATOM     10  C   UNL     1       1.866   7.958  19.544  0.00  0.00    +0.000 A 
ATOM     11  C   UNL     1       1.329   8.062  20.834  0.00  0.00    +0.000 A 
ATOM     12  C   UNL     1       0.498   9.140  21.201  0.00  0.00    +0.000 A 
ATOM     13  C   UNL     1      -0.047   9.209  22.601  0.00  0.00    +0.000 C 
ENDBRANCH   1  10
BRANCH   3  14
ATOM     14  C   UNL     1       5.135   5.128  17.153  0.00  0.00    +0.000 A 
ATOM     15  C   UNL     1       4.657   4.709  15.901  0.00  0.00    +0.000 A 
ATOM     16  C   UNL     1       5.552   4.292  14.915  0.00  0.00    +0.000 A 
ATOM     17  C   UNL     1       6.920   4.276  15.175  0.00  0.00    +0.000 A 
ATOM     18  C   UNL     1       7.398   4.673  16.422  0.00  0.00    +0.000 A 
ATOM     19  C   UNL     1       6.510   5.097  17.413  0.00  0.00    +0.000 A 
ENDBRANCH   3  14
BRANCH   4  20
ATOM     20  S   UNL     1       4.145   3.339  19.815  0.00  0.00    +0.000 S 
BRANCH  20  21
ATOM     21  C   UNL     1       2.591   2.394  19.700  0.00  0.00    +0.000 C 
BRANCH  21  22
ATOM     22  C   UNL     1       1.608   2.742  20.799  0.00  0.00    +0.000 C 
ATOM     23  N   UNL     1       0.485   3.423  20.426  0.00  0.00    +0.000 N 
ATOM     24  O   UNL     1       1.748   2.360  21.958  0.00  0.00    +0.000 OA
ATOM     25  H   UNL     1       0.537   4.020  19.606  0.00  0.00    +0.000 HD
ATOM     26  H   UNL     1      -0.101   3.749  21.183  0.00  0.00    +0.000 HD
ENDBRANCH  21  22
ENDBRANCH  20  21
ENDBRANCH   4  20
TORSDOF 5
ENDMDL
MODEL 3
REMARK VINA RESULT:      -8.0      1.284      1.284
REMARK  Name = 
REMARK  7 active torsions:
REMARK  status: ('A' for Active; 'I' for Inactive)
REMARK    1  A    between atoms: C_1  and  C_2
REMARK    2  A    between atoms: C_5  and  C_6
REMARK    3  A    between atoms: N_8  and  C_9
REMARK    4  A    between atoms: C_15  and  S_16
REMARK    5  A    between atoms: S_16  and  C_17
REMARK    6  A    between atoms: C_17  and  C_18
REMARK    7  A    between atoms: C_23  and  C_24
REMARK                            x       y       z     vdW  Elec       q    Type
REMARK                         _______ _______ _______ _____ _____    ______ ____
ROOT
ATOM      1  C   UNL     1       2.583   6.821  19.518  0.00  0.00    +0.000 A 
ATOM      2  C   UNL     1       3.569   6.793  18.556  0.00  0.00    +0.000 A 
ATOM      3  N   UNL     1       4.048   5.499  18.512  0.00  0.00    +0.000 N 
ATOM      4  C   UNL     1       3.382   4.829  19.528  0.00  0.00    +0.000 A 
ATOM      5  N   UNL     1       2.496   5.593  20.134  0.00  0.00    +0.000 NA
ENDROOT
BRANCH   1  10
ATOM      6  C   UNL     1      -0.658  11.440  20.851  0.00  0.00    +0.000 C 
ATOM      7  C   UNL     1       0.161  10.221  20.525  0.00  0.00    +0.000 A 
ATOM      8  C   UNL     1       0.695  10.083  19.240  0.00  0.00    +0.000 A 
ATOM      9  C   UNL     1       1.478   8.975  18.907  0.00  0.00    +0.000 A 
ATOM     10  C   UNL     1       1.751   7.974  19.849  0.00  0.00    +0.000 A 
ATOM     11  C   UNL     1       1.201   8.104  21.131  0.00  0.00    +0.000 A 
ATOM     12  C   UNL     1       0.409   9.217  21.482  0.00  0.00    +0.000 A 
ATOM     13  C   UNL     1      -0.152   9.314  22.874  0.00  0.00    +0.000 C 
ENDBRANCH   1  10
BRANCH   3  14
ATOM     14  C   UNL     1       5.014   5.042  17.575  0.00  0.00    +0.000 A 
ATOM     15  C   UNL     1       6.374   5.080  17.920  0.00  0.00    +0.000 A 
ATOM     16  C   UNL     1       7.337   4.619  17.022  0.00  0.00    +0.000 A 
ATOM     17  C   UNL     1       6.952   4.134  15.774  0.00  0.00    +0.000 A 
ATOM     18  C   UNL     1       5.605   4.110  15.420  0.00  0.00    +0.000 A 
ATOM     19  C   UNL     1       4.634   4.565  16.315  0.00  0.00    +0.000 A 
ENDBRANCH   3  14
BRANCH   4  20
ATOM     20  S   UNL     1       3.744   3.222  20.094  0.00  0.00    +0.000 S 
BRANCH  20  21
ATOM     21  C   UNL     1       2.661   2.207  19.037  0.00  0.00    +0.000 C 
BRANCH  21  22
ATOM     22  C   UNL     1       1.308   2.846  18.795  0.00  0.00    +0.000 C 
ATOM     23  N   UNL     1       0.473   2.943  19.871  0.00  0.00    +0.000 N 
ATOM     24  O   UNL     1       0.994   3.342  17.715  0.00  0.00    +0.000 OA
ATOM     25  H   UNL     1       0.567   2.255  20.613  0.00  0.00    +0.000 HD
ATOM     26  H   UNL     1      -0.465   3.261  19.670  0.00  0.00    +0.000 HD
ENDBRANCH  21  22
ENDBRANCH  20  21
ENDBRANCH   4  20
TORSDOF 5
ENDMDL
MODEL 4
REMARK VINA RESULT:      -7.8      2.599      4.037
REMARK  Name = 
REMARK  7 active torsions:
REMARK  status: ('A' for Active; 'I' for Inactive)
REMARK    1  A    between atoms: C_1  and  C_2
REMARK    2  A    between atoms: C_5  and  C_6
REMARK    3  A    between atoms: N_8  and  C_9
REMARK    4  A    between atoms: C_15  and  S_16
REMARK    5  A    between atoms: S_16  and  C_17
REMARK    6  A    between atoms: C_17  and  C_18
REMARK    7  A    between atoms: C_23  and  C_24
REMARK                            x       y       z     vdW  Elec       q    Type
REMARK                         _______ _______ _______ _____ _____    ______ ____
ROOT
ATOM      1  C   UNL     1       2.256   7.681  19.017  0.00  0.00    +0.000 A 
ATOM      2  C   UNL     1       2.081   6.333  19.235  0.00  0.00    +0.000 A 
ATOM      3  N   UNL     1       3.041   5.679  18.490  0.00  0.00    +0.000 N 
ATOM      4  C   UNL     1       3.694   6.676  17.780  0.00  0.00    +0.000 A 
ATOM      5  N   UNL     1       3.251   7.879  18.086  0.00  0.00    +0.000 NA
ENDROOT
BRANCH   1  10
ATOM      6  C   UNL     1      -0.665  11.970  21.605  0.00  0.00    +0.000 C 
ATOM      7  C   UNL     1       0.073  10.833  20.952  0.00  0.00    +0.000 A 
ATOM      8  C   UNL     1       0.446  10.946  19.609  0.00  0.00    +0.000 A 
ATOM      9  C   UNL     1       1.150   9.920  18.974  0.00  0.00    +0.000 A 
ATOM     10  C   UNL     1       1.504   8.752  19.664  0.00  0.00    +0.000 A 
ATOM     11  C   UNL     1       1.115   8.633  21.004  0.00  0.00    +0.000 A 
ATOM     12  C   UNL     1       0.404   9.660  21.659  0.00  0.00    +0.000 A 
ATOM     13  C   UNL     1       0.016   9.487  23.101  0.00  0.00    +0.000 C 
ENDBRANCH   1  10
BRANCH   3  14
ATOM     14  C   UNL     1       3.249   4.273  18.522  0.00  0.00    +0.000 A 
ATOM     15  C   UNL     1       2.535   3.455  17.632  0.00  0.00    +0.000 A 
ATOM     16  C   UNL     1       2.738   2.075  17.635  0.00  0.00    +0.000 A 
ATOM     17  C   UNL     1       3.639   1.503  18.530  0.00  0.00    +0.000 A 
ATOM     18  C   UNL     1       4.337   2.309  19.427  0.00  0.00    +0.000 A 
ATOM     19  C   UNL     1       4.143   3.692  19.428  0.00  0.00    +0.000 A 
ENDBRANCH   3  14
BRANCH   4  20
ATOM     20  S   UNL     1       4.851   6.425  16.503  0.00  0.00    +0.000 S 
BRANCH  20  21
ATOM     21  C   UNL     1       6.414   6.336  17.436  0.00  0.00    +0.000 C 
BRANCH  21  22
ATOM     22  C   UNL     1       7.237   5.112  17.089  0.00  0.00    +0.000 C 
ATOM     23  N   UNL     1       7.583   4.291  18.123  0.00  0.00    +0.000 N 
ATOM     24  O   UNL     1       7.513   4.806  15.931  0.00  0.00    +0.000 OA
ATOM     25  H   UNL     1       7.675   4.699  19.049  0.00  0.00    +0.000 HD
ATOM     26  H   UNL     1       8.228   3.547  17.895  0.00  0.00    +0.000 HD
ENDBRANCH  21  22
ENDBRANCH  20  21
ENDBRANCH   4  20
TORSDOF 5
ENDMDL
MODEL 5
REMARK VINA RESULT:      -7.8      1.220      1.496
REMARK  Name = 
REMARK  7 active torsions:
REMARK  status: ('A' for Active; 'I' for Inactive)
REMARK    1  A    between atoms: C_1  and  C_2
REMARK    2  A    between atoms: C_5  and  C_6
REMARK    3  A    between atoms: N_8  and  C_9
REMARK    4  A    between atoms: C_15  and  S_16
REMARK    5  A    between atoms: S_16  and  C_17
REMARK    6  A    between atoms: C_17  and  C_18
REMARK    7  A    between atoms: C_23  and  C_24
REMARK                            x       y       z     vdW  Elec       q    Type
REMARK                         _______ _______ _______ _____ _____    ______ ____
ROOT
ATOM      1  C   UNL     1       2.438   7.312  19.063  0.00  0.00    +0.000 A 
ATOM      2  C   UNL     1       3.462   7.288  18.141  0.00  0.00    +0.000 A 
ATOM      3  N   UNL     1       3.949   5.997  18.118  0.00  0.00    +0.000 N 
ATOM      4  C   UNL     1       3.246   5.324  19.108  0.00  0.00    +0.000 A 
ATOM      5  N   UNL     1       2.333   6.084  19.676  0.00  0.00    +0.000 NA
ENDROOT
BRANCH   1  10
ATOM      6  C   UNL     1      -0.877  11.919  20.251  0.00  0.00    +0.000 C 
ATOM      7  C   UNL     1      -0.037  10.704  19.965  0.00  0.00    +0.000 A 
ATOM      8  C   UNL     1       0.455  10.505  18.671  0.00  0.00    +0.000 A 
ATOM      9  C   UNL     1       1.255   9.399  18.372  0.00  0.00    +0.000 A 
ATOM     10  C   UNL     1       1.588   8.461  19.359  0.00  0.00    +0.000 A 
ATOM     11  C   UNL     1       1.080   8.652  20.650  0.00  0.00    +0.000 A 
ATOM     12  C   UNL     1       0.272   9.763  20.967  0.00  0.00    +0.000 A 
ATOM     13  C   UNL     1      -0.243   9.926  22.371  0.00  0.00    +0.000 C 
ENDBRANCH   1  10
BRANCH   3  14
ATOM     14  C   UNL     1       4.955   5.543  17.222  0.00  0.00    +0.000 A 
ATOM     15  C   UNL     1       4.628   4.578  16.257  0.00  0.00    +0.000 A 
ATOM     16  C   UNL     1       5.596   4.134  15.356  0.00  0.00    +0.000 A 
ATOM     17  C   UNL     1       6.894   4.634  15.422  0.00  0.00    +0.000 A 
ATOM     18  C   UNL     1       7.228   5.579  16.391  0.00  0.00    +0.000 A 
ATOM     19  C   UNL     1       6.264   6.033  17.293  0.00  0.00    +0.000 A 
ENDBRANCH   3  14
BRANCH   4  20
ATOM     20  S   UNL     1       3.594   3.720  19.690  0.00  0.00    +0.000 S 
BRANCH  20  21
ATOM     21  C   UNL     1       2.516   2.703  18.629  0.00  0.00    +0.000 C 
BRANCH  21  22
ATOM     22  C   UNL     1       1.094   2.617  19.145  0.00  0.00    +0.000 C 
ATOM     23  N   UNL     1       0.844   3.194  20.357  0.00  0.00    +0.000 N 
ATOM     24  O   UNL     1       0.176   2.137  18.482  0.00  0.00    +0.000 OA
ATOM     25  H   UNL     1       1.607   3.254  21.025  0.00  0.00    +0.000 HD
ATOM     26  H   UNL     1      -0.076   3.026  20.741  0.00  0.00    +0.000 HD
ENDBRANCH  21  22
ENDBRANCH  20  21
ENDBRANCH   4  20
TORSDOF 5
ENDMDL
MODEL 6
REMARK VINA RESULT:      -7.7      1.595      2.294
REMARK  Name = 
REMARK  7 active torsions:
REMARK  status: ('A' for Active; 'I' for Inactive)
REMARK    1  A    between atoms: C_1  and  C_2
REMARK    2  A    between atoms: C_5  and  C_6
REMARK    3  A    between atoms: N_8  and  C_9
REMARK    4  A    between atoms: C_15  and  S_16
REMARK    5  A    between atoms: S_16  and  C_17
REMARK    6  A    between atoms: C_17  and  C_18
REMARK    7  A    between atoms: C_23  and  C_24
REMARK                            x       y       z     vdW  Elec       q    Type
REMARK                         _______ _______ _______ _____ _____    ______ ____
ROOT
ATOM      1  C   UNL     1       2.738   6.584  19.518  0.00  0.00    +0.000 A 
ATOM      2  C   UNL     1       3.693   6.661  18.528  0.00  0.00    +0.000 A 
ATOM      3  N   UNL     1       4.226   5.396  18.386  0.00  0.00    +0.000 N 
ATOM      4  C   UNL     1       3.622   4.633  19.376  0.00  0.00    +0.000 A 
ATOM      5  N   UNL     1       2.724   5.317  20.056  0.00  0.00    +0.000 NA
ENDROOT
BRANCH   1  10
ATOM      6  C   UNL     1      -0.777  10.879  21.196  0.00  0.00    +0.000 C 
ATOM      7  C   UNL     1       0.157   9.789  20.745  0.00  0.00    +0.000 A 
ATOM      8  C   UNL     1       0.383   8.695  21.587  0.00  0.00    +0.000 A 
ATOM      9  C   UNL     1       1.228   7.654  21.194  0.00  0.00    +0.000 A 
ATOM     10  C   UNL     1       1.869   7.675  19.947  0.00  0.00    +0.000 A 
ATOM     11  C   UNL     1       1.655   8.780  19.113  0.00  0.00    +0.000 A 
ATOM     12  C   UNL     1       0.805   9.838  19.495  0.00  0.00    +0.000 A 
ATOM     13  C   UNL     1       0.603  10.998  18.560  0.00  0.00    +0.000 C 
ENDBRANCH   1  10
BRANCH   3  14
ATOM     14  C   UNL     1       5.180   5.042  17.394  0.00  0.00    +0.000 A 
ATOM     15  C   UNL     1       4.750   4.825  16.076  0.00  0.00    +0.000 A 
ATOM     16  C   UNL     1       5.673   4.496  15.084  0.00  0.00    +0.000 A 
ATOM     17  C   UNL     1       7.023   4.365  15.402  0.00  0.00    +0.000 A 
ATOM     18  C   UNL     1       7.453   4.562  16.713  0.00  0.00    +0.000 A 
ATOM     19  C   UNL     1       6.536   4.897  17.711  0.00  0.00    +0.000 A 
ENDBRANCH   3  14
BRANCH   4  20
ATOM     20  S   UNL     1       4.071   3.012  19.827  0.00  0.00    +0.000 S 
BRANCH  20  21
ATOM     21  C   UNL     1       3.519   2.061  18.373  0.00  0.00    +0.000 C 
BRANCH  21  22
ATOM     22  C   UNL     1       2.109   2.410  17.942  0.00  0.00    +0.000 C 
ATOM     23  N   UNL     1       1.092   1.900  18.697  0.00  0.00    +0.000 N 
ATOM     24  O   UNL     1       1.872   3.186  17.019  0.00  0.00    +0.000 OA
ATOM     25  H   UNL     1       1.254   1.028  19.191  0.00  0.00    +0.000 HD
ATOM     26  H   UNL     1       0.161   2.043  18.331  0.00  0.00    +0.000 HD
ENDBRANCH  21  22
ENDBRANCH  20  21
ENDBRANCH   4  20
TORSDOF 5
ENDMDL
MODEL 7
REMARK VINA RESULT:      -7.7      0.467      1.398
REMARK  Name = 
REMARK  7 active torsions:
REMARK  status: ('A' for Active; 'I' for Inactive)
REMARK    1  A    between atoms: C_1  and  C_2
REMARK    2  A    between atoms: C_5  and  C_6
REMARK    3  A    between atoms: N_8  and  C_9
REMARK    4  A    between atoms: C_15  and  S_16
REMARK    5  A    between atoms: S_16  and  C_17
REMARK    6  A    between atoms: C_17  and  C_18
REMARK    7  A    between atoms: C_23  and  C_24
REMARK                            x       y       z     vdW  Elec       q    Type
REMARK                         _______ _______ _______ _____ _____    ______ ____
ROOT
ATOM      1  C   UNL     1       2.461   6.798  19.151  0.00  0.00    +0.000 A 
ATOM      2  C   UNL     1       3.680   6.833  18.509  0.00  0.00    +0.000 A 
ATOM      3  N   UNL     1       3.903   5.567  18.005  0.00  0.00    +0.000 N 
ATOM      4  C   UNL     1       2.837   4.803  18.457  0.00  0.00    +0.000 A 
ATOM      5  N   UNL     1       1.959   5.517  19.132  0.00  0.00    +0.000 NA
ENDROOT
BRANCH   1  10
ATOM      6  C   UNL     1      -0.261  11.301  21.586  0.00  0.00    +0.000 C 
ATOM      7  C   UNL     1       0.465  10.156  20.936  0.00  0.00    +0.000 A 
ATOM      8  C   UNL     1       0.755   9.016  21.691  0.00  0.00    +0.000 A 
ATOM      9  C   UNL     1       1.410   7.924  21.116  0.00  0.00    +0.000 A 
ATOM     10  C   UNL     1       1.793   7.940  19.768  0.00  0.00    +0.000 A 
ATOM     11  C   UNL     1       1.518   9.090  19.016  0.00  0.00    +0.000 A 
ATOM     12  C   UNL     1       0.857  10.199  19.583  0.00  0.00    +0.000 A 
ATOM     13  C   UNL     1       0.578  11.407  18.732  0.00  0.00    +0.000 C 
ENDBRANCH   1  10
BRANCH   3  14
ATOM     14  C   UNL     1       5.017   5.221  17.193  0.00  0.00    +0.000 A 
ATOM     15  C   UNL     1       6.251   4.948  17.803  0.00  0.00    +0.000 A 
ATOM     16  C   UNL     1       7.351   4.588  17.025  0.00  0.00    +0.000 A 
ATOM     17  C   UNL     1       7.232   4.514  15.639  0.00  0.00    +0.000 A 
ATOM     18  C   UNL     1       6.014   4.802  15.027  0.00  0.00    +0.000 A 
ATOM     19  C   UNL     1       4.906   5.158  15.799  0.00  0.00    +0.000 A 
ENDBRANCH   3  14
BRANCH   4  20
ATOM     20  S   UNL     1       2.699   3.071  18.324  0.00  0.00    +0.000 S 
BRANCH  20  21
ATOM     21  C   UNL     1       3.060   2.543  20.031  0.00  0.00    +0.000 C 
BRANCH  21  22
ATOM     22  C   UNL     1       1.912   2.804  20.984  0.00  0.00    +0.000 C 
ATOM     23  N   UNL     1       0.672   2.942  20.428  0.00  0.00    +0.000 N 
ATOM     24  O   UNL     1       2.050   2.804  22.205  0.00  0.00    +0.000 OA
ATOM     25  H   UNL     1       0.610   3.290  19.476  0.00  0.00    +0.000 HD
ATOM     26  H   UNL     1      -0.062   3.232  21.060  0.00  0.00    +0.000 HD
ENDBRANCH  21  22
ENDBRANCH  20  21
ENDBRANCH   4  20
TORSDOF 5
ENDMDL
MODEL 8
REMARK VINA RESULT:      -7.6      1.035      1.542
REMARK  Name = 
REMARK  7 active torsions:
REMARK  status: ('A' for Active; 'I' for Inactive)
REMARK    1  A    between atoms: C_1  and  C_2
REMARK    2  A    between atoms: C_5  and  C_6
REMARK    3  A    between atoms: N_8  and  C_9
REMARK    4  A    between atoms: C_15  and  S_16
REMARK    5  A    between atoms: S_16  and  C_17
REMARK    6  A    between atoms: C_17  and  C_18
REMARK    7  A    between atoms: C_23  and  C_24
REMARK                            x       y       z     vdW  Elec       q    Type
REMARK                         _______ _______ _______ _____ _____    ______ ____
ROOT
ATOM      1  C   UNL     1       2.530   6.941  18.534  0.00  0.00    +0.000 A 
ATOM      2  C   UNL     1       3.782   6.945  17.959  0.00  0.00    +0.000 A 
ATOM      3  N   UNL     1       4.004   5.671  17.475  0.00  0.00    +0.000 N 
ATOM      4  C   UNL     1       2.898   4.933  17.872  0.00  0.00    +0.000 A 
ATOM      5  N   UNL     1       2.001   5.671  18.494  0.00  0.00    +0.000 NA
ENDROOT
BRANCH   1  10
ATOM      6  C   UNL     1      -0.082  11.585  20.822  0.00  0.00    +0.000 C 
ATOM      7  C   UNL     1       0.576  10.359  20.250  0.00  0.00    +0.000 A 
ATOM      8  C   UNL     1       0.863  10.314  18.882  0.00  0.00    +0.000 A 
ATOM      9  C   UNL     1       1.492   9.202  18.319  0.00  0.00    +0.000 A 
ATOM     10  C   UNL     1       1.855   8.101  19.108  0.00  0.00    +0.000 A 
ATOM     11  C   UNL     1       1.552   8.140  20.475  0.00  0.00    +0.000 A 
ATOM     12  C   UNL     1       0.918   9.256  21.057  0.00  0.00    +0.000 A 
ATOM     13  C   UNL     1       0.620   9.250  22.531  0.00  0.00    +0.000 C 
ENDBRANCH   1  10
BRANCH   3  14
ATOM     14  C   UNL     1       5.152   5.294  16.727  0.00  0.00    +0.000 A 
ATOM     15  C   UNL     1       5.098   5.331  15.324  0.00  0.00    +0.000 A 
ATOM     16  C   UNL     1       6.220   4.983  14.572  0.00  0.00    +0.000 A 
ATOM     17  C   UNL     1       7.391   4.582  15.210  0.00  0.00    +0.000 A 
ATOM     18  C   UNL     1       7.444   4.525  16.601  0.00  0.00    +0.000 A 
ATOM     19  C   UNL     1       6.327   4.877  17.362  0.00  0.00    +0.000 A 
ENDBRANCH   3  14
BRANCH   4  20
ATOM     20  S   UNL     1       2.728   3.204  17.742  0.00  0.00    +0.000 S 
BRANCH  20  21
ATOM     21  C   UNL     1       2.328   2.744  19.459  0.00  0.00    +0.000 C 
BRANCH  21  22
ATOM     22  C   UNL     1       3.560   2.470  20.297  0.00  0.00    +0.000 C 
ATOM     23  N   UNL     1       4.759   2.460  19.643  0.00  0.00    +0.000 N 
ATOM     24  O   UNL     1       3.517   2.352  21.520  0.00  0.00    +0.000 OA
ATOM     25  H   UNL     1       4.766   2.204  18.660  0.00  0.00    +0.000 HD
ATOM     26  H   UNL     1       5.554   2.161  20.191  0.00  0.00    +0.000 HD
ENDBRANCH  21  22
ENDBRANCH  20  21
ENDBRANCH   4  20
TORSDOF 5
ENDMDL
MODEL 9
REMARK VINA RESULT:      -7.6      1.369      1.909
REMARK  Name = 
REMARK  7 active torsions:
REMARK  status: ('A' for Active; 'I' for Inactive)
REMARK    1  A    between atoms: C_1  and  C_2
REMARK    2  A    between atoms: C_5  and  C_6
REMARK    3  A    between atoms: N_8  and  C_9
REMARK    4  A    between atoms: C_15  and  S_16
REMARK    5  A    between atoms: S_16  and  C_17
REMARK    6  A    between atoms: C_17  and  C_18
REMARK    7  A    between atoms: C_23  and  C_24
REMARK                            x       y       z     vdW  Elec       q    Type
REMARK                         _______ _______ _______ _____ _____    ______ ____
ROOT
ATOM      1  C   UNL     1       2.601   6.811  19.487  0.00  0.00    +0.000 A 
ATOM      2  C   UNL     1       3.522   6.889  18.466  0.00  0.00    +0.000 A 
ATOM      3  N   UNL     1       4.049   5.623  18.305  0.00  0.00    +0.000 N 
ATOM      4  C   UNL     1       3.477   4.860  19.314  0.00  0.00    +0.000 A 
ATOM      5  N   UNL     1       2.603   5.544  20.023  0.00  0.00    +0.000 NA
ENDROOT
BRANCH   1  10
ATOM      6  C   UNL     1      -0.852  11.109  21.284  0.00  0.00    +0.000 C 
ATOM      7  C   UNL     1       0.065  10.019  20.802  0.00  0.00    +0.000 A 
ATOM      8  C   UNL     1       0.318   8.924  21.634  0.00  0.00    +0.000 A 
ATOM      9  C   UNL     1       1.148   7.882  21.213  0.00  0.00    +0.000 A 
ATOM     10  C   UNL     1       1.747   7.903  19.946  0.00  0.00    +0.000 A 
ATOM     11  C   UNL     1       1.507   9.009  19.120  0.00  0.00    +0.000 A 
ATOM     12  C   UNL     1       0.672  10.068  19.531  0.00  0.00    +0.000 A 
ATOM     13  C   UNL     1       0.440  11.229  18.604  0.00  0.00    +0.000 C 
ENDBRANCH   1  10
BRANCH   3  14
ATOM     14  C   UNL     1       4.969   5.269  17.282  0.00  0.00    +0.000 A 
ATOM     15  C   UNL     1       6.233   5.881  17.256  0.00  0.00    +0.000 A 
ATOM     16  C   UNL     1       7.157   5.535  16.270  0.00  0.00    +0.000 A 
ATOM     17  C   UNL     1       6.824   4.593  15.300  0.00  0.00    +0.000 A 
ATOM     18  C   UNL     1       5.564   3.996  15.311  0.00  0.00    +0.000 A 
ATOM     19  C   UNL     1       4.635   4.333  16.297  0.00  0.00    +0.000 A 
ENDBRANCH   3  14
BRANCH   4  20
ATOM     20  S   UNL     1       3.939   3.238  19.748  0.00  0.00    +0.000 S 
BRANCH  20  21
ATOM     21  C   UNL     1       2.318   2.466  20.062  0.00  0.00    +0.000 C 
BRANCH  21  22
ATOM     22  C   UNL     1       1.534   2.205  18.792  0.00  0.00    +0.000 C 
ATOM     23  N   UNL     1       2.252   1.839  17.691  0.00  0.00    +0.000 N 
ATOM     24  O   UNL     1       0.305   2.225  18.756  0.00  0.00    +0.000 OA
ATOM     25  H   UNL     1       3.214   2.159  17.618  0.00  0.00    +0.000 HD
ATOM     26  H   UNL     1       1.732   1.783  16.826  0.00  0.00    +0.000 HD
ENDBRANCH  21  22
ENDBRANCH  20  21
ENDBRANCH   4  20
TORSDOF 5
ENDMDL
