MODEL 1
REMARK VINA RESULT:      -7.5      0.000      0.000
REMARK  Name = 
REMARK  8 active torsions:
REMARK  status: ('A' for Active; 'I' for Inactive)
REMARK    1  A    between atoms: C_1  and  C_2
REMARK    2  A    between atoms: C_2  and  N_3
REMARK    3  A    between atoms: C_2  and  C_20
REMARK    4  A    between atoms: N_6  and  C_7
REMARK    5  A    between atoms: C_7  and  C_8
REMARK    6  A    between atoms: C_7  and  C_9
REMARK    7  A    between atoms: C_11  and  C_12
REMARK    8  A    between atoms: N_23  and  C_24
REMARK                            x       y       z     vdW  Elec       q    Type
REMARK                         _______ _______ _______ _____ _____    ______ ____
ROOT
ATOM      1  N   UNL     1       6.822   5.260  14.441  0.00  0.00    +0.000 N 
ATOM      2  C   UNL     1       7.122   4.828  15.700  0.00  0.00    +0.000 C 
ATOM      3  O   UNL     1       7.858   3.868  15.920  0.00  0.00    +0.000 OA
ATOM      4  N   UNL     1       6.573   5.568  16.706  0.00  0.00    +0.000 N 
ATOM      5  H   UNL     1       6.146   5.994  14.302  0.00  0.00    +0.000 HD
ATOM      6  H   UNL     1       5.871   6.271  16.509  0.00  0.00    +0.000 HD
ENDROOT
BRANCH   1   8
ATOM      7  C   UNL     1       8.026   5.643  12.307  0.00  0.00    +0.000 C 
ATOM      8  C   UNL     1       7.419   4.619  13.272  0.00  0.00    +0.000 C 
BRANCH   8   9
ATOM      9  C   UNL     1       6.395   3.785  12.573  0.00  0.00    +0.000 A 
ATOM     10  C   UNL     1       6.584   2.507  11.991  0.00  0.00    +0.000 A 
ATOM     11  N   UNL     1       5.495   2.059  11.363  0.00  0.00    +0.000 NA
ATOM     12  N   UNL     1       4.604   3.049  11.527  0.00  0.00    +0.000 N 
ATOM     13  C   UNL     1       3.277   2.939  10.967  0.00  0.00    +0.000 C 
ATOM     14  C   UNL     1       5.089   4.101  12.247  0.00  0.00    +0.000 A 
ENDBRANCH   8   9
ENDBRANCH   1   8
BRANCH   4  15
ATOM     15  C   UNL     1       6.854   5.245  18.109  0.00  0.00    +0.000 C 
ATOM     16  C   UNL     1       7.483   6.429  18.842  0.00  0.00    +0.000 C 
BRANCH  15  17
ATOM     17  C   UNL     1       5.604   4.806  18.793  0.00  0.00    +0.000 A 
ATOM     18  N   UNL     1       5.175   3.598  19.085  0.00  0.00    +0.000 NA
ATOM     19  C   UNL     1       4.013   3.862  19.778  0.00  0.00    +0.000 A 
ATOM     20  N   UNL     1       3.700   5.162  19.861  0.00  0.00    +0.000 NA
ATOM     21  O   UNL     1       4.763   5.794  19.218  0.00  0.00    +0.000 OA
BRANCH  19  22
ATOM     22  C   UNL     1       3.186   2.768  20.393  0.00  0.00    +0.000 C 
ATOM     23  C   UNL     1       2.004   3.333  21.206  0.00  0.00    +0.000 C 
ATOM     24  C   UNL     1       0.927   3.950  20.313  0.00  0.00    +0.000 C 
ATOM     25  C   UNL     1       0.432   2.969  19.253  0.00  0.00    +0.000 C 
ATOM     26  C   UNL     1       1.571   2.332  18.460  0.00  0.00    +0.000 C 
ATOM     27  C   UNL     1       2.649   1.745  19.373  0.00  0.00    +0.000 C 
ENDBRANCH  19  22
ENDBRANCH  15  17
ENDBRANCH   4  15
TORSDOF 5
ENDMDL
MODEL 2
REMARK VINA RESULT:      -7.3      4.337      7.591
REMARK  Name = 
REMARK  8 active torsions:
REMARK  status: ('A' for Active; 'I' for Inactive)
REMARK    1  A    between atoms: C_1  and  C_2
REMARK    2  A    between atoms: C_2  and  N_3
REMARK    3  A    between atoms: C_2  and  C_20
REMARK    4  A    between atoms: N_6  and  C_7
REMARK    5  A    between atoms: C_7  and  C_8
REMARK    6  A    between atoms: C_7  and  C_9
REMARK    7  A    between atoms: C_11  and  C_12
REMARK    8  A    between atoms: N_23  and  C_24
REMARK                            x       y       z     vdW  Elec       q    Type
REMARK                         _______ _______ _______ _____ _____    ______ ____
ROOT
ATOM      1  N   UNL     1       8.916   9.096  18.980  0.00  0.00    +0.000 N 
ATOM      2  C   UNL     1       8.142   8.256  18.235  0.00  0.00    +0.000 C 
ATOM      3  O   UNL     1       7.535   8.620  17.231  0.00  0.00    +0.000 OA
ATOM      4  N   UNL     1       8.122   6.961  18.667  0.00  0.00    +0.000 N 
ATOM      5  H   UNL     1       9.326   8.780  19.844  0.00  0.00    +0.000 HD
ATOM      6  H   UNL     1       8.521   6.708  19.562  0.00  0.00    +0.000 HD
ENDROOT
BRANCH   1   8
ATOM      7  C   UNL     1      10.378  10.674  17.745  0.00  0.00    +0.000 C 
ATOM      8  C   UNL     1       9.104  10.488  18.576  0.00  0.00    +0.000 C 
BRANCH   8   9
ATOM      9  C   UNL     1       9.136  11.366  19.785  0.00  0.00    +0.000 A 
ATOM     10  C   UNL     1       9.076  10.958  21.141  0.00  0.00    +0.000 A 
ATOM     11  N   UNL     1       9.036  11.988  21.989  0.00  0.00    +0.000 NA
ATOM     12  N   UNL     1       9.058  13.062  21.186  0.00  0.00    +0.000 N 
ATOM     13  C   UNL     1       9.017  14.393  21.743  0.00  0.00    +0.000 C 
ATOM     14  C   UNL     1       9.123  12.746  19.860  0.00  0.00    +0.000 A 
ENDBRANCH   8   9
ENDBRANCH   1   8
BRANCH   4  15
ATOM     15  C   UNL     1       7.371   5.940  17.930  0.00  0.00    +0.000 C 
ATOM     16  C   UNL     1       8.117   4.607  17.898  0.00  0.00    +0.000 C 
BRANCH  15  17
ATOM     17  C   UNL     1       6.016   5.771  18.529  0.00  0.00    +0.000 A 
ATOM     18  N   UNL     1       4.848   6.225  18.130  0.00  0.00    +0.000 NA
ATOM     19  C   UNL     1       3.989   5.664  19.050  0.00  0.00    +0.000 A 
ATOM     20  N   UNL     1       4.592   4.948  20.008  0.00  0.00    +0.000 NA
ATOM     21  O   UNL     1       5.940   5.006  19.658  0.00  0.00    +0.000 OA
BRANCH  19  22
ATOM     22  C   UNL     1       2.499   5.842  18.961  0.00  0.00    +0.000 C 
ATOM     23  C   UNL     1       1.879   4.935  17.879  0.00  0.00    +0.000 C 
ATOM     24  C   UNL     1       1.902   3.458  18.275  0.00  0.00    +0.000 C 
ATOM     25  C   UNL     1       1.235   3.218  19.627  0.00  0.00    +0.000 C 
ATOM     26  C   UNL     1       1.771   4.138  20.722  0.00  0.00    +0.000 C 
ATOM     27  C   UNL     1       1.763   5.606  20.294  0.00  0.00    +0.000 C 
ENDBRANCH  19  22
ENDBRANCH  15  17
ENDBRANCH   4  15
TORSDOF 5
ENDMDL
MODEL 3
REMARK VINA RESULT:      -7.2      0.940      1.435
REMARK  Name = 
REMARK  8 active torsions:
REMARK  status: ('A' for Active; 'I' for Inactive)
REMARK    1  A    between atoms: C_1  and  C_2
REMARK    2  A    between atoms: C_2  and  N_3
REMARK    3  A    between atoms: C_2  and  C_20
REMARK    4  A    between atoms: N_6  and  C_7
REMARK    5  A    between atoms: C_7  and  C_8
REMARK    6  A    between atoms: C_7  and  C_9
REMARK    7  A    between atoms: C_11  and  C_12
REMARK    8  A    between atoms: N_23  and  C_24
REMARK                            x       y       z     vdW  Elec       q    Type
REMARK                         _______ _______ _______ _____ _____    ______ ____
ROOT
ATOM      1  N   UNL     1       6.771   5.286  14.341  0.00  0.00    +0.000 N 
ATOM      2  C   UNL     1       7.100   4.945  15.620  0.00  0.00    +0.000 C 
ATOM      3  O   UNL     1       7.870   4.026  15.889  0.00  0.00    +0.000 OA
ATOM      4  N   UNL     1       6.538   5.729  16.585  0.00  0.00    +0.000 N 
ATOM      5  H   UNL     1       6.069   5.988  14.165  0.00  0.00    +0.000 HD
ATOM      6  H   UNL     1       5.811   6.395  16.354  0.00  0.00    +0.000 HD
ENDROOT
BRANCH   1   8
ATOM      7  C   UNL     1       8.022   5.568  12.218  0.00  0.00    +0.000 C 
ATOM      8  C   UNL     1       7.375   4.592  13.206  0.00  0.00    +0.000 C 
BRANCH   8   9
ATOM      9  C   UNL     1       6.346   3.756  12.517  0.00  0.00    +0.000 A 
ATOM     10  C   UNL     1       6.521   2.457  11.976  0.00  0.00    +0.000 A 
ATOM     11  N   UNL     1       5.432   2.011  11.346  0.00  0.00    +0.000 NA
ATOM     12  N   UNL     1       4.558   3.020  11.466  0.00  0.00    +0.000 N 
ATOM     13  C   UNL     1       3.237   2.917  10.891  0.00  0.00    +0.000 C 
ATOM     14  C   UNL     1       5.052   4.085  12.163  0.00  0.00    +0.000 A 
ENDBRANCH   8   9
ENDBRANCH   1   8
BRANCH   4  15
ATOM     15  C   UNL     1       6.847   5.506  18.001  0.00  0.00    +0.000 C 
ATOM     16  C   UNL     1       7.629   6.675  18.597  0.00  0.00    +0.000 C 
BRANCH  15  17
ATOM     17  C   UNL     1       5.589   5.270  18.767  0.00  0.00    +0.000 A 
ATOM     18  N   UNL     1       4.369   5.713  18.553  0.00  0.00    +0.000 NA
ATOM     19  C   UNL     1       3.653   5.082  19.548  0.00  0.00    +0.000 A 
ATOM     20  N   UNL     1       4.394   4.334  20.376  0.00  0.00    +0.000 NA
ATOM     21  O   UNL     1       5.681   4.446  19.851  0.00  0.00    +0.000 OA
BRANCH  19  22
ATOM     22  C   UNL     1       2.162   5.225  19.669  0.00  0.00    +0.000 C 
ATOM     23  C   UNL     1       1.452   4.973  18.324  0.00  0.00    +0.000 C 
ATOM     24  C   UNL     1       1.500   3.503  17.907  0.00  0.00    +0.000 C 
ATOM     25  C   UNL     1       0.943   2.583  18.991  0.00  0.00    +0.000 C 
ATOM     26  C   UNL     1       1.571   2.836  20.360  0.00  0.00    +0.000 C 
ATOM     27  C   UNL     1       1.535   4.317  20.745  0.00  0.00    +0.000 C 
ENDBRANCH  19  22
ENDBRANCH  15  17
ENDBRANCH   4  15
TORSDOF 5
ENDMDL
MODEL 4
REMARK VINA RESULT:      -7.2      5.005      8.735
REMARK  Name = 
REMARK  8 active torsions:
REMARK  status: ('A' for Active; 'I' for Inactive)
REMARK    1  A    between atoms: C_1  and  C_2
REMARK    2  A    between atoms: C_2  and  N_3
REMARK    3  A    between atoms: C_2  and  C_20
REMARK    4  A    between atoms: N_6  and  C_7
REMARK    5  A    between atoms: C_7  and  C_8
REMARK    6  A    between atoms: C_7  and  C_9
REMARK    7  A    between atoms: C_11  and  C_12
REMARK    8  A    between atoms: N_23  and  C_24
REMARK                            x       y       z     vdW  Elec       q    Type
REMARK                         _______ _______ _______ _____ _____    ______ ____
ROOT
ATOM      1  N   UNL     1       1.254   9.184  19.627  0.00  0.00    +0.000 N 
ATOM      2  C   UNL     1       1.625   8.095  20.360  0.00  0.00    +0.000 C 
ATOM      3  O   UNL     1       1.629   8.085  21.588  0.00  0.00    +0.000 OA
ATOM      4  N   UNL     1       1.958   6.996  19.623  0.00  0.00    +0.000 N 
ATOM      5  H   UNL     1       1.349   9.181  18.624  0.00  0.00    +0.000 HD
ATOM      6  H   UNL     1       2.072   7.059  18.619  0.00  0.00    +0.000 HD
ENDROOT
BRANCH   1   8
ATOM      7  C   UNL     1      -0.742  10.406  20.449  0.00  0.00    +0.000 C 
ATOM      8  C   UNL     1       0.782  10.399  20.287  0.00  0.00    +0.000 C 
BRANCH   8   9
ATOM      9  C   UNL     1       1.232  11.600  19.520  0.00  0.00    +0.000 A 
ATOM     10  C   UNL     1       2.096  11.624  18.397  0.00  0.00    +0.000 A 
ATOM     11  N   UNL     1       2.378  12.863  17.989  0.00  0.00    +0.000 NA
ATOM     12  N   UNL     1       1.709  13.642  18.851  0.00  0.00    +0.000 N 
ATOM     13  C   UNL     1       1.774  15.080  18.740  0.00  0.00    +0.000 C 
ATOM     14  C   UNL     1       1.004  12.938  19.783  0.00  0.00    +0.000 A 
ENDBRANCH   8   9
ENDBRANCH   1   8
BRANCH   4  15
ATOM     15  C   UNL     1       2.327   5.739  20.283  0.00  0.00    +0.000 C 
ATOM     16  C   UNL     1       1.145   4.774  20.355  0.00  0.00    +0.000 C 
BRANCH  15  17
ATOM     17  C   UNL     1       3.478   5.109  19.575  0.00  0.00    +0.000 A 
ATOM     18  N   UNL     1       4.154   5.518  18.523  0.00  0.00    +0.000 NA
ATOM     19  C   UNL     1       5.131   4.551  18.413  0.00  0.00    +0.000 A 
ATOM     20  N   UNL     1       5.034   3.559  19.308  0.00  0.00    +0.000 NA
ATOM     21  O   UNL     1       3.943   3.934  20.091  0.00  0.00    +0.000 OA
BRANCH  19  22
ATOM     22  C   UNL     1       6.214   4.628  17.375  0.00  0.00    +0.000 C 
ATOM     23  C   UNL     1       5.992   5.802  16.401  0.00  0.00    +0.000 C 
ATOM     24  C   UNL     1       6.224   7.160  17.064  0.00  0.00    +0.000 C 
ATOM     25  C   UNL     1       7.604   7.251  17.711  0.00  0.00    +0.000 C 
ATOM     26  C   UNL     1       7.900   6.075  18.639  0.00  0.00    +0.000 C 
ATOM     27  C   UNL     1       7.635   4.728  17.964  0.00  0.00    +0.000 C 
ENDBRANCH  19  22
ENDBRANCH  15  17
ENDBRANCH   4  15
TORSDOF 5
ENDMDL
MODEL 5
REMARK VINA RESULT:      -7.1      1.196      1.884
REMARK  Name = 
REMARK  8 active torsions:
REMARK  status: ('A' for Active; 'I' for Inactive)
REMARK    1  A    between atoms: C_1  and  C_2
REMARK    2  A    between atoms: C_2  and  N_3
REMARK    3  A    between atoms: C_2  and  C_20
REMARK    4  A    between atoms: N_6  and  C_7
REMARK    5  A    between atoms: C_7  and  C_8
REMARK    6  A    between atoms: C_7  and  C_9
REMARK    7  A    between atoms: C_11  and  C_12
REMARK    8  A    between atoms: N_23  and  C_24
REMARK                            x       y       z     vdW  Elec       q    Type
REMARK                         _______ _______ _______ _____ _____    ______ ____
ROOT
ATOM      1  N   UNL     1       6.823   5.546  13.835  0.00  0.00    +0.000 N 
ATOM      2  C   UNL     1       7.193   5.258  15.116  0.00  0.00    +0.000 C 
ATOM      3  O   UNL     1       8.076   4.449  15.391  0.00  0.00    +0.000 OA
ATOM      4  N   UNL     1       6.531   5.967  16.076  0.00  0.00    +0.000 N 
ATOM      5  H   UNL     1       6.035   6.148  13.655  0.00  0.00    +0.000 HD
ATOM      6  H   UNL     1       5.724   6.530  15.841  0.00  0.00    +0.000 HD
ENDROOT
BRANCH   1   8
ATOM      7  C   UNL     1       7.803   5.944  11.591  0.00  0.00    +0.000 C 
ATOM      8  C   UNL     1       7.515   4.931  12.705  0.00  0.00    +0.000 C 
BRANCH   8   9
ATOM      9  C   UNL     1       6.707   3.790  12.177  0.00  0.00    +0.000 A 
ATOM     10  C   UNL     1       5.294   3.692  12.127  0.00  0.00    +0.000 A 
ATOM     11  N   UNL     1       4.875   2.507  11.679  0.00  0.00    +0.000 NA
ATOM     12  N   UNL     1       6.011   1.832  11.450  0.00  0.00    +0.000 N 
ATOM     13  C   UNL     1       5.970   0.476  10.956  0.00  0.00    +0.000 C 
ATOM     14  C   UNL     1       7.135   2.555  11.726  0.00  0.00    +0.000 A 
ENDBRANCH   8   9
ENDBRANCH   1   8
BRANCH   4  15
ATOM     15  C   UNL     1       6.865   5.793  17.494  0.00  0.00    +0.000 C 
ATOM     16  C   UNL     1       7.509   7.051  18.077  0.00  0.00    +0.000 C 
BRANCH  15  17
ATOM     17  C   UNL     1       5.643   5.422  18.265  0.00  0.00    +0.000 A 
ATOM     18  N   UNL     1       4.436   5.943  18.243  0.00  0.00    +0.000 NA
ATOM     19  C   UNL     1       3.749   5.116  19.107  0.00  0.00    +0.000 A 
ATOM     20  N   UNL     1       4.500   4.169  19.684  0.00  0.00    +0.000 NA
ATOM     21  O   UNL     1       5.759   4.361  19.116  0.00  0.00    +0.000 OA
BRANCH  19  22
ATOM     22  C   UNL     1       2.276   5.274  19.357  0.00  0.00    +0.000 C 
ATOM     23  C   UNL     1       1.434   4.723  18.188  0.00  0.00    +0.000 C 
ATOM     24  C   UNL     1       1.483   3.196  18.105  0.00  0.00    +0.000 C 
ATOM     25  C   UNL     1       1.073   2.539  19.421  0.00  0.00    +0.000 C 
ATOM     26  C   UNL     1       1.834   3.096  20.622  0.00  0.00    +0.000 C 
ATOM     27  C   UNL     1       1.794   4.625  20.670  0.00  0.00    +0.000 C 
ENDBRANCH  19  22
ENDBRANCH  15  17
ENDBRANCH   4  15
TORSDOF 5
ENDMDL
MODEL 6
REMARK VINA RESULT:      -7.0      7.311      9.638
REMARK  Name = 
REMARK  8 active torsions:
REMARK  status: ('A' for Active; 'I' for Inactive)
REMARK    1  A    between atoms: C_1  and  C_2
REMARK    2  A    between atoms: C_2  and  N_3
REMARK    3  A    between atoms: C_2  and  C_20
REMARK    4  A    between atoms: N_6  and  C_7
REMARK    5  A    between atoms: C_7  and  C_8
REMARK    6  A    between atoms: C_7  and  C_9
REMARK    7  A    between atoms: C_11  and  C_12
REMARK    8  A    between atoms: N_23  and  C_24
REMARK                            x       y       z     vdW  Elec       q    Type
REMARK                         _______ _______ _______ _____ _____    ______ ____
ROOT
ATOM      1  N   UNL     1       1.846   8.235  17.860  0.00  0.00    +0.000 N 
ATOM      2  C   UNL     1       1.230   9.103  18.712  0.00  0.00    +0.000 C 
ATOM      3  O   UNL     1       1.486   9.156  19.913  0.00  0.00    +0.000 OA
ATOM      4  N   UNL     1       0.329   9.942  18.123  0.00  0.00    +0.000 N 
ATOM      5  H   UNL     1       1.545   8.162  16.901  0.00  0.00    +0.000 HD
ATOM      6  H   UNL     1       0.039   9.800  17.164  0.00  0.00    +0.000 HD
ENDROOT
BRANCH   1   8
ATOM      7  C   UNL     1       3.956   7.078  17.260  0.00  0.00    +0.000 C 
ATOM      8  C   UNL     1       2.901   7.344  18.339  0.00  0.00    +0.000 C 
BRANCH   8   9
ATOM      9  C   UNL     1       2.303   6.059  18.813  0.00  0.00    +0.000 A 
ATOM     10  C   UNL     1       2.053   5.676  20.155  0.00  0.00    +0.000 A 
ATOM     11  N   UNL     1       1.591   4.427  20.257  0.00  0.00    +0.000 NA
ATOM     12  N   UNL     1       1.552   3.998  18.987  0.00  0.00    +0.000 N 
ATOM     13  C   UNL     1       1.106   2.659  18.681  0.00  0.00    +0.000 C 
ATOM     14  C   UNL     1       1.962   4.936  18.084  0.00  0.00    +0.000 A 
ENDBRANCH   8   9
ENDBRANCH   1   8
BRANCH   4  15
ATOM     15  C   UNL     1      -0.368  10.961  18.914  0.00  0.00    +0.000 C 
ATOM     16  C   UNL     1       0.249  12.346  18.717  0.00  0.00    +0.000 C 
BRANCH  15  17
ATOM     17  C   UNL     1      -1.818  10.977  18.563  0.00  0.00    +0.000 A 
ATOM     18  N   UNL     1      -2.735  11.893  18.785  0.00  0.00    +0.000 NA
ATOM     19  C   UNL     1      -3.838  11.357  18.154  0.00  0.00    +0.000 A 
ATOM     20  N   UNL     1      -3.638  10.145  17.620  0.00  0.00    +0.000 NA
ATOM     21  O   UNL     1      -2.291   9.894  17.879  0.00  0.00    +0.000 OA
BRANCH  19  22
ATOM     22  C   UNL     1      -5.145  12.094  18.072  0.00  0.00    +0.000 C 
ATOM     23  C   UNL     1      -6.334  11.130  17.888  0.00  0.00    +0.000 C 
ATOM     24  C   UNL     1      -6.620  10.311  19.148  0.00  0.00    +0.000 C 
ATOM     25  C   UNL     1      -6.831  11.200  20.371  0.00  0.00    +0.000 C 
ATOM     26  C   UNL     1      -5.709  12.217  20.563  0.00  0.00    +0.000 C 
ATOM     27  C   UNL     1      -5.423  13.006  19.283  0.00  0.00    +0.000 C 
ENDBRANCH  19  22
ENDBRANCH  15  17
ENDBRANCH   4  15
TORSDOF 5
ENDMDL
MODEL 7
REMARK VINA RESULT:      -7.0      0.865      1.353
REMARK  Name = 
REMARK  8 active torsions:
REMARK  status: ('A' for Active; 'I' for Inactive)
REMARK    1  A    between atoms: C_1  and  C_2
REMARK    2  A    between atoms: C_2  and  N_3
REMARK    3  A    between atoms: C_2  and  C_20
REMARK    4  A    between atoms: N_6  and  C_7
REMARK    5  A    between atoms: C_7  and  C_8
REMARK    6  A    between atoms: C_7  and  C_9
REMARK    7  A    between atoms: C_11  and  C_12
REMARK    8  A    between atoms: N_23  and  C_24
REMARK                            x       y       z     vdW  Elec       q    Type
REMARK                         _______ _______ _______ _____ _____    ______ ____
ROOT
ATOM      1  N   UNL     1       6.778   5.345  14.416  0.00  0.00    +0.000 N 
ATOM      2  C   UNL     1       6.819   4.844  15.683  0.00  0.00    +0.000 C 
ATOM      3  O   UNL     1       7.344   3.768  15.960  0.00  0.00    +0.000 OA
ATOM      4  N   UNL     1       6.262   5.647  16.635  0.00  0.00    +0.000 N 
ATOM      5  H   UNL     1       6.260   6.187  14.216  0.00  0.00    +0.000 HD
ATOM      6  H   UNL     1       5.724   6.464  16.375  0.00  0.00    +0.000 HD
ENDROOT
BRANCH   1   8
ATOM      7  C   UNL     1       8.109   5.594  12.338  0.00  0.00    +0.000 C 
ATOM      8  C   UNL     1       7.420   4.633  13.313  0.00  0.00    +0.000 C 
BRANCH   8   9
ATOM      9  C   UNL     1       6.412   3.795  12.595  0.00  0.00    +0.000 A 
ATOM     10  C   UNL     1       6.624   2.529  11.994  0.00  0.00    +0.000 A 
ATOM     11  N   UNL     1       5.545   2.075  11.353  0.00  0.00    +0.000 NA
ATOM     12  N   UNL     1       4.638   3.048  11.528  0.00  0.00    +0.000 N 
ATOM     13  C   UNL     1       3.316   2.926  10.960  0.00  0.00    +0.000 C 
ATOM     14  C   UNL     1       5.104   4.096  12.268  0.00  0.00    +0.000 A 
ENDBRANCH   8   9
ENDBRANCH   1   8
BRANCH   4  15
ATOM     15  C   UNL     1       6.283   5.254  18.048  0.00  0.00    +0.000 C 
ATOM     16  C   UNL     1       7.322   6.050  18.838  0.00  0.00    +0.000 C 
BRANCH  15  17
ATOM     17  C   UNL     1       4.927   5.423  18.645  0.00  0.00    +0.000 A 
ATOM     18  N   UNL     1       4.331   4.747  19.604  0.00  0.00    +0.000 NA
ATOM     19  C   UNL     1       3.145   5.433  19.748  0.00  0.00    +0.000 A 
ATOM     20  N   UNL     1       2.980   6.445  18.885  0.00  0.00    +0.000 NA
ATOM     21  O   UNL     1       4.170   6.449  18.158  0.00  0.00    +0.000 OA
BRANCH  19  22
ATOM     22  C   UNL     1       2.136   5.069  20.801  0.00  0.00    +0.000 C 
ATOM     23  C   UNL     1       0.783   4.665  20.182  0.00  0.00    +0.000 C 
ATOM     24  C   UNL     1       0.852   3.315  19.466  0.00  0.00    +0.000 C 
ATOM     25  C   UNL     1       1.379   2.211  20.378  0.00  0.00    +0.000 C 
ATOM     26  C   UNL     1       2.689   2.588  21.066  0.00  0.00    +0.000 C 
ATOM     27  C   UNL     1       2.606   3.952  21.753  0.00  0.00    +0.000 C 
ENDBRANCH  19  22
ENDBRANCH  15  17
ENDBRANCH   4  15
TORSDOF 5
ENDMDL
MODEL 8
REMARK VINA RESULT:      -6.9      4.700      8.284
REMARK  Name = 
REMARK  8 active torsions:
REMARK  status: ('A' for Active; 'I' for Inactive)
REMARK    1  A    between atoms: C_1  and  C_2
REMARK    2  A    between atoms: C_2  and  N_3
REMARK    3  A    between atoms: C_2  and  C_20
REMARK    4  A    between atoms: N_6  and  C_7
REMARK    5  A    between atoms: C_7  and  C_8
REMARK    6  A    between atoms: C_7  and  C_9
REMARK    7  A    between atoms: C_11  and  C_12
REMARK    8  A    between atoms: N_23  and  C_24
REMARK                            x       y       z     vdW  Elec       q    Type
REMARK                         _______ _______ _______ _____ _____    ______ ____
ROOT
ATOM      1  N   UNL     1       1.659   9.054  19.501  0.00  0.00    +0.000 N 
ATOM      2  C   UNL     1       2.169   8.487  18.370  0.00  0.00    +0.000 C 
ATOM      3  O   UNL     1       1.873   8.867  17.239  0.00  0.00    +0.000 OA
ATOM      4  N   UNL     1       3.070   7.485  18.588  0.00  0.00    +0.000 N 
ATOM      5  H   UNL     1       1.859   8.656  20.405  0.00  0.00    +0.000 HD
ATOM      6  H   UNL     1       3.205   7.102  19.514  0.00  0.00    +0.000 HD
ENDROOT
BRANCH   1   8
ATOM      7  C   UNL     1       1.454  11.436  18.840  0.00  0.00    +0.000 C 
ATOM      8  C   UNL     1       0.756  10.199  19.417  0.00  0.00    +0.000 C 
BRANCH   8   9
ATOM      9  C   UNL     1       0.192  10.500  20.768  0.00  0.00    +0.000 A 
ATOM     10  C   UNL     1       0.579   9.925  22.004  0.00  0.00    +0.000 A 
ATOM     11  N   UNL     1      -0.176  10.339  23.024  0.00  0.00    +0.000 NA
ATOM     12  N   UNL     1      -1.058  11.170  22.451  0.00  0.00    +0.000 N 
ATOM     13  C   UNL     1      -2.070  11.824  23.246  0.00  0.00    +0.000 C 
ATOM     14  C   UNL     1      -0.879  11.306  21.105  0.00  0.00    +0.000 A 
ENDBRANCH   8   9
ENDBRANCH   1   8
BRANCH   4  15
ATOM     15  C   UNL     1       3.735   6.823  17.461  0.00  0.00    +0.000 C 
ATOM     16  C   UNL     1       5.139   7.382  17.230  0.00  0.00    +0.000 C 
BRANCH  15  17
ATOM     17  C   UNL     1       3.787   5.351  17.692  0.00  0.00    +0.000 A 
ATOM     18  N   UNL     1       3.344   4.634  18.702  0.00  0.00    +0.000 NA
ATOM     19  C   UNL     1       3.617   3.348  18.287  0.00  0.00    +0.000 A 
ATOM     20  N   UNL     1       4.251   3.268  17.109  0.00  0.00    +0.000 NA
ATOM     21  O   UNL     1       4.354   4.598  16.704  0.00  0.00    +0.000 OA
BRANCH  19  22
ATOM     22  C   UNL     1       3.216   2.148  19.097  0.00  0.00    +0.000 C 
ATOM     23  C   UNL     1       3.491   2.354  20.600  0.00  0.00    +0.000 C 
ATOM     24  C   UNL     1       2.541   3.373  21.231  0.00  0.00    +0.000 C 
ATOM     25  C   UNL     1       1.077   3.011  20.995  0.00  0.00    +0.000 C 
ATOM     26  C   UNL     1       0.765   2.734  19.526  0.00  0.00    +0.000 C 
ATOM     27  C   UNL     1       1.743   1.733  18.909  0.00  0.00    +0.000 C 
ENDBRANCH  19  22
ENDBRANCH  15  17
ENDBRANCH   4  15
TORSDOF 5
ENDMDL
MODEL 9
REMARK VINA RESULT:      -6.9      4.297      7.904
REMARK  Name = 
REMARK  8 active torsions:
REMARK  status: ('A' for Active; 'I' for Inactive)
REMARK    1  A    between atoms: C_1  and  C_2
REMARK    2  A    between atoms: C_2  and  N_3
REMARK    3  A    between atoms: C_2  and  C_20
REMARK    4  A    between atoms: N_6  and  C_7
REMARK    5  A    between atoms: C_7  and  C_8
REMARK    6  A    between atoms: C_7  and  C_9
REMARK    7  A    between atoms: C_11  and  C_12
REMARK    8  A    between atoms: N_23  and  C_24
REMARK                            x       y       z     vdW  Elec       q    Type
REMARK                         _______ _______ _______ _____ _____    ______ ____
ROOT
ATOM      1  N   UNL     1       1.984   9.015  18.954  0.00  0.00    +0.000 N 
ATOM      2  C   UNL     1       2.359   7.930  18.218  0.00  0.00    +0.000 C 
ATOM      3  O   UNL     1       1.552   7.171  17.686  0.00  0.00    +0.000 OA
ATOM      4  N   UNL     1       3.707   7.769  18.081  0.00  0.00    +0.000 N 
ATOM      5  H   UNL     1       2.674   9.561  19.446  0.00  0.00    +0.000 HD
ATOM      6  H   UNL     1       4.354   8.324  18.627  0.00  0.00    +0.000 HD
ENDROOT
BRANCH   1   8
ATOM      7  C   UNL     1       0.110  10.346  18.022  0.00  0.00    +0.000 C 
ATOM      8  C   UNL     1       0.572   9.362  19.102  0.00  0.00    +0.000 C 
BRANCH   8   9
ATOM      9  C   UNL     1       0.330   9.928  20.464  0.00  0.00    +0.000 A 
ATOM     10  C   UNL     1       0.931   9.518  21.681  0.00  0.00    +0.000 A 
ATOM     11  N   UNL     1       0.439  10.162  22.741  0.00  0.00    +0.000 NA
ATOM     12  N   UNL     1      -0.486  10.980  22.217  0.00  0.00    +0.000 N 
ATOM     13  C   UNL     1      -1.259  11.851  23.069  0.00  0.00    +0.000 C 
ATOM     14  C   UNL     1      -0.587  10.883  20.860  0.00  0.00    +0.000 A 
ENDBRANCH   8   9
ENDBRANCH   1   8
BRANCH   4  15
ATOM     15  C   UNL     1       4.249   6.672  17.272  0.00  0.00    +0.000 C 
ATOM     16  C   UNL     1       5.608   7.033  16.674  0.00  0.00    +0.000 C 
BRANCH  15  17
ATOM     17  C   UNL     1       4.349   5.432  18.094  0.00  0.00    +0.000 A 
ATOM     18  N   UNL     1       3.418   4.576  18.456  0.00  0.00    +0.000 NA
ATOM     19  C   UNL     1       4.150   3.619  19.126  0.00  0.00    +0.000 A 
ATOM     20  N   UNL     1       5.457   3.892  19.232  0.00  0.00    +0.000 NA
ATOM     21  O   UNL     1       5.595   5.092  18.535  0.00  0.00    +0.000 OA
BRANCH  19  22
ATOM     22  C   UNL     1       3.516   2.371  19.674  0.00  0.00    +0.000 C 
ATOM     23  C   UNL     1       3.194   2.506  21.176  0.00  0.00    +0.000 C 
ATOM     24  C   UNL     1       2.039   3.475  21.439  0.00  0.00    +0.000 C 
ATOM     25  C   UNL     1       0.787   3.098  20.650  0.00  0.00    +0.000 C 
ATOM     26  C   UNL     1       1.066   2.890  19.164  0.00  0.00    +0.000 C 
ATOM     27  C   UNL     1       2.240   1.940  18.925  0.00  0.00    +0.000 C 
ENDBRANCH  19  22
ENDBRANCH  15  17
ENDBRANCH   4  15
TORSDOF 5
ENDMDL
