MODEL 1
REMARK VINA RESULT:      -7.7      0.000      0.000
REMARK  Name = 
REMARK  9 active torsions:
REMARK  status: ('A' for Active; 'I' for Inactive)
REMARK    1  A    between atoms: C_1  and  S_2
REMARK    2  A    between atoms: S_2  and  C_3
REMARK    3  A    between atoms: C_5  and  C_6
REMARK    4  A    between atoms: C_13  and  C_14
REMARK    5  A    between atoms: C_20  and  C_21
REMARK    6  A    between atoms: N_24  and  C_25
REMARK    7  A    between atoms: C_25  and  C_26
REMARK    8  A    between atoms: C_26  and  C_27
REMARK    9  A    between atoms: C_27  and  O_28
REMARK                            x       y       z     vdW  Elec       q    Type
REMARK                         _______ _______ _______ _____ _____    ______ ____
ROOT
ATOM      1  C   UNL     1       3.672   3.128  18.403  0.00  0.00    +0.000 A 
ATOM      2  N   UNL     1       4.836   3.688  18.188  0.00  0.00    +0.000 NA
ATOM      3  C   UNL     1       4.647   5.022  18.417  0.00  0.00    +0.000 A 
ATOM      4  C   UNL     1       3.327   5.298  18.767  0.00  0.00    +0.000 A 
ATOM      5  N   UNL     1       2.712   4.048  18.768  0.00  0.00    +0.000 N 
ENDROOT
BRANCH   4   6
ATOM      6  C   UNL     1       2.644   6.593  18.881  0.00  0.00    +0.000 A 
ATOM      7  C   UNL     1       2.380   7.421  17.801  0.00  0.00    +0.000 A 
ATOM      8  C   UNL     1       1.832   8.669  18.061  0.00  0.00    +0.000 A 
ATOM      9  N   UNL     1       1.487   9.106  19.299  0.00  0.00    +0.000 NA
ATOM     10  C   UNL     1       1.687   8.274  20.330  0.00  0.00    +0.000 A 
ATOM     11  N   UNL     1       1.318   8.589  21.637  0.00  0.00    +0.000 N 
ATOM     12  C   UNL     1       0.781   9.712  22.180  0.00  0.00    +0.000 C 
ATOM     13  C   UNL     1       0.513  10.952  21.382  0.00  0.00    +0.000 C 
ATOM     14  O   UNL     1       0.556   9.699  23.396  0.00  0.00    +0.000 OA
ATOM     15  C   UNL     1       2.272   7.029  20.157  0.00  0.00    +0.000 A 
ATOM     16  H   UNL     1       1.460   7.878  22.339  0.00  0.00    +0.000 HD
ENDBRANCH   4   6
BRANCH   3  17
ATOM     17  C   UNL     1       5.711   5.994  18.205  0.00  0.00    +0.000 A 
ATOM     18  C   UNL     1       6.910   5.877  18.924  0.00  0.00    +0.000 A 
ATOM     19  C   UNL     1       7.955   6.778  18.707  0.00  0.00    +0.000 A 
ATOM     20  C   UNL     1       7.796   7.800  17.778  0.00  0.00    +0.000 A 
ATOM     21  F   UNL     1       8.795   8.668  17.573  0.00  0.00    +0.000 F 
ATOM     22  C   UNL     1       6.616   7.934  17.057  0.00  0.00    +0.000 A 
ATOM     23  C   UNL     1       5.569   7.035  17.274  0.00  0.00    +0.000 A 
ENDBRANCH   3  17
BRANCH   1  25
ATOM     24  C   UNL     1       4.480   0.712  19.412  0.00  0.00    +0.000 C 
ATOM     25  S   UNL     1       3.362   1.433  18.185  0.00  0.00    +0.000 S 
ENDBRANCH   1  25
BRANCH   5  26
ATOM     26  C   UNL     1       1.330   3.759  19.125  0.00  0.00    +0.000 C 
BRANCH  26  27
ATOM     27  C   UNL     1       0.981   3.742  20.615  0.00  0.00    +0.000 C 
BRANCH  27  28
ATOM     28  C   UNL     1       1.481   2.519  21.347  0.00  0.00    +0.000 C 
BRANCH  28  29
ATOM     29  O   UNL     1       2.653   2.862  22.091  0.00  0.00    +0.000 OA
ATOM     30  H   UNL     1       2.621   2.391  22.942  0.00  0.00    +0.000 HD
ENDBRANCH  28  29
ENDBRANCH  27  28
ENDBRANCH  26  27
ENDBRANCH   5  26
TORSDOF 7
ENDMDL
MODEL 2
REMARK VINA RESULT:      -6.8      1.341      1.727
REMARK  Name = 
REMARK  9 active torsions:
REMARK  status: ('A' for Active; 'I' for Inactive)
REMARK    1  A    between atoms: C_1  and  S_2
REMARK    2  A    between atoms: S_2  and  C_3
REMARK    3  A    between atoms: C_5  and  C_6
REMARK    4  A    between atoms: C_13  and  C_14
REMARK    5  A    between atoms: C_20  and  C_21
REMARK    6  A    between atoms: N_24  and  C_25
REMARK    7  A    between atoms: C_25  and  C_26
REMARK    8  A    between atoms: C_26  and  C_27
REMARK    9  A    between atoms: C_27  and  O_28
REMARK                            x       y       z     vdW  Elec       q    Type
REMARK                         _______ _______ _______ _____ _____    ______ ____
ROOT
ATOM      1  C   UNL     1       4.325   2.823  19.725  0.00  0.00    +0.000 A 
ATOM      2  N   UNL     1       5.393   3.416  19.253  0.00  0.00    +0.000 NA
ATOM      3  C   UNL     1       5.072   4.742  19.177  0.00  0.00    +0.000 A 
ATOM      4  C   UNL     1       3.764   4.975  19.597  0.00  0.00    +0.000 A 
ATOM      5  N   UNL     1       3.300   3.715  19.966  0.00  0.00    +0.000 N 
ENDROOT
BRANCH   4   6
ATOM      6  C   UNL     1       2.948   6.191  19.475  0.00  0.00    +0.000 A 
ATOM      7  C   UNL     1       2.634   6.787  18.264  0.00  0.00    +0.000 A 
ATOM      8  C   UNL     1       1.953   7.995  18.296  0.00  0.00    +0.000 A 
ATOM      9  N   UNL     1       1.528   8.601  19.434  0.00  0.00    +0.000 NA
ATOM     10  C   UNL     1       1.781   7.986  20.597  0.00  0.00    +0.000 A 
ATOM     11  N   UNL     1       1.344   8.481  21.824  0.00  0.00    +0.000 N 
ATOM     12  C   UNL     1       0.679   9.617  22.157  0.00  0.00    +0.000 C 
ATOM     13  C   UNL     1       0.309  10.665  21.151  0.00  0.00    +0.000 C 
ATOM     14  O   UNL     1       0.420   9.791  23.354  0.00  0.00    +0.000 OA
ATOM     15  C   UNL     1       2.497   6.799  20.651  0.00  0.00    +0.000 A 
ATOM     16  H   UNL     1       1.537   7.921  22.641  0.00  0.00    +0.000 HD
ENDBRANCH   4   6
BRANCH   3  17
ATOM     17  C   UNL     1       5.994   5.722  18.621  0.00  0.00    +0.000 A 
ATOM     18  C   UNL     1       5.618   6.464  17.490  0.00  0.00    +0.000 A 
ATOM     19  C   UNL     1       6.476   7.434  16.964  0.00  0.00    +0.000 A 
ATOM     20  C   UNL     1       7.710   7.655  17.565  0.00  0.00    +0.000 A 
ATOM     21  F   UNL     1       8.534   8.580  17.058  0.00  0.00    +0.000 F 
ATOM     22  C   UNL     1       8.101   6.930  18.684  0.00  0.00    +0.000 A 
ATOM     23  C   UNL     1       7.246   5.959  19.210  0.00  0.00    +0.000 A 
ENDBRANCH   3  17
BRANCH   1  25
ATOM     24  C   UNL     1       5.412   0.836  21.265  0.00  0.00    +0.000 C 
ATOM     25  S   UNL     1       4.194   1.107  19.954  0.00  0.00    +0.000 S 
ENDBRANCH   1  25
BRANCH   5  26
ATOM     26  C   UNL     1       1.997   3.399  20.534  0.00  0.00    +0.000 C 
BRANCH  26  27
ATOM     27  C   UNL     1       0.844   3.170  19.554  0.00  0.00    +0.000 C 
BRANCH  27  28
ATOM     28  C   UNL     1       1.292   2.803  18.158  0.00  0.00    +0.000 C 
BRANCH  28  29
ATOM     29  O   UNL     1       1.099   3.926  17.294  0.00  0.00    +0.000 OA
ATOM     30  H   UNL     1       0.147   4.124  17.260  0.00  0.00    +0.000 HD
ENDBRANCH  28  29
ENDBRANCH  27  28
ENDBRANCH  26  27
ENDBRANCH   5  26
TORSDOF 7
ENDMDL
MODEL 3
REMARK VINA RESULT:      -6.6      8.185     10.450
REMARK  Name = 
REMARK  9 active torsions:
REMARK  status: ('A' for Active; 'I' for Inactive)
REMARK    1  A    between atoms: C_1  and  S_2
REMARK    2  A    between atoms: S_2  and  C_3
REMARK    3  A    between atoms: C_5  and  C_6
REMARK    4  A    between atoms: C_13  and  C_14
REMARK    5  A    between atoms: C_20  and  C_21
REMARK    6  A    between atoms: N_24  and  C_25
REMARK    7  A    between atoms: C_25  and  C_26
REMARK    8  A    between atoms: C_26  and  C_27
REMARK    9  A    between atoms: C_27  and  O_28
REMARK                            x       y       z     vdW  Elec       q    Type
REMARK                         _______ _______ _______ _____ _____    ______ ____
ROOT
ATOM      1  C   UNL     1      -5.254  12.997  20.488  0.00  0.00    +0.000 A 
ATOM      2  N   UNL     1      -5.278  12.363  19.343  0.00  0.00    +0.000 NA
ATOM      3  C   UNL     1      -3.986  11.985  19.107  0.00  0.00    +0.000 A 
ATOM      4  C   UNL     1      -3.135  12.412  20.125  0.00  0.00    +0.000 A 
ATOM      5  N   UNL     1      -3.983  13.055  21.023  0.00  0.00    +0.000 N 
ENDROOT
BRANCH   4   6
ATOM      6  C   UNL     1      -1.668  12.419  20.171  0.00  0.00    +0.000 A 
ATOM      7  C   UNL     1      -0.915  11.472  20.848  0.00  0.00    +0.000 A 
ATOM      8  C   UNL     1       0.458  11.660  20.908  0.00  0.00    +0.000 A 
ATOM      9  N   UNL     1       1.115  12.680  20.300  0.00  0.00    +0.000 NA
ATOM     10  C   UNL     1       0.387  13.556  19.595  0.00  0.00    +0.000 A 
ATOM     11  N   UNL     1       0.955  14.609  18.881  0.00  0.00    +0.000 N 
ATOM     12  C   UNL     1       2.239  15.034  18.763  0.00  0.00    +0.000 C 
ATOM     13  C   UNL     1       3.376  14.400  19.506  0.00  0.00    +0.000 C 
ATOM     14  O   UNL     1       2.445  16.018  18.043  0.00  0.00    +0.000 OA
ATOM     15  C   UNL     1      -0.996  13.462  19.525  0.00  0.00    +0.000 A 
ATOM     16  H   UNL     1       0.331  15.185  18.336  0.00  0.00    +0.000 HD
ENDBRANCH   4   6
BRANCH   3  17
ATOM     17  C   UNL     1      -3.598  11.312  17.875  0.00  0.00    +0.000 A 
ATOM     18  C   UNL     1      -4.268  11.613  16.680  0.00  0.00    +0.000 A 
ATOM     19  C   UNL     1      -3.886  11.003  15.482  0.00  0.00    +0.000 A 
ATOM     20  C   UNL     1      -2.840  10.087  15.484  0.00  0.00    +0.000 A 
ATOM     21  F   UNL     1      -2.477   9.498  14.337  0.00  0.00    +0.000 F 
ATOM     22  C   UNL     1      -2.166   9.774  16.657  0.00  0.00    +0.000 A 
ATOM     23  C   UNL     1      -2.547  10.381  17.856  0.00  0.00    +0.000 A 
ENDBRANCH   3  17
BRANCH   1  25
ATOM     24  C   UNL     1      -7.623  12.283  21.662  0.00  0.00    +0.000 C 
ATOM     25  S   UNL     1      -6.647  13.739  21.211  0.00  0.00    +0.000 S 
ENDBRANCH   1  25
BRANCH   5  26
ATOM     26  C   UNL     1      -3.611  13.643  22.302  0.00  0.00    +0.000 C 
BRANCH  26  27
ATOM     27  C   UNL     1      -3.587  12.713  23.517  0.00  0.00    +0.000 C 
BRANCH  27  28
ATOM     28  C   UNL     1      -4.886  12.679  24.288  0.00  0.00    +0.000 C 
BRANCH  28  29
ATOM     29  O   UNL     1      -4.628  12.244  25.625  0.00  0.00    +0.000 OA
ATOM     30  H   UNL     1      -4.078  12.917  26.063  0.00  0.00    +0.000 HD
ENDBRANCH  28  29
ENDBRANCH  27  28
ENDBRANCH  26  27
ENDBRANCH   5  26
TORSDOF 7
ENDMDL
MODEL 4
REMARK VINA RESULT:      -6.3      3.150      5.212
REMARK  Name = 
REMARK  9 active torsions:
REMARK  status: ('A' for Active; 'I' for Inactive)
REMARK    1  A    between atoms: C_1  and  S_2
REMARK    2  A    between atoms: S_2  and  C_3
REMARK    3  A    between atoms: C_5  and  C_6
REMARK    4  A    between atoms: C_13  and  C_14
REMARK    5  A    between atoms: C_20  and  C_21
REMARK    6  A    between atoms: N_24  and  C_25
REMARK    7  A    between atoms: C_25  and  C_26
REMARK    8  A    between atoms: C_26  and  C_27
REMARK    9  A    between atoms: C_27  and  O_28
REMARK                            x       y       z     vdW  Elec       q    Type
REMARK                         _______ _______ _______ _____ _____    ______ ____
ROOT
ATOM      1  C   UNL     1       5.568   4.723  17.415  0.00  0.00    +0.000 A 
ATOM      2  N   UNL     1       4.951   3.892  18.217  0.00  0.00    +0.000 NA
ATOM      3  C   UNL     1       3.828   4.551  18.632  0.00  0.00    +0.000 A 
ATOM      4  C   UNL     1       3.756   5.831  18.086  0.00  0.00    +0.000 A 
ATOM      5  N   UNL     1       4.890   5.917  17.283  0.00  0.00    +0.000 N 
ENDROOT
BRANCH   4   6
ATOM      6  C   UNL     1       2.857   6.940  18.428  0.00  0.00    +0.000 A 
ATOM      7  C   UNL     1       2.254   7.759  17.487  0.00  0.00    +0.000 A 
ATOM      8  C   UNL     1       1.519   8.842  17.947  0.00  0.00    +0.000 A 
ATOM      9  N   UNL     1       1.307   9.117  19.259  0.00  0.00    +0.000 NA
ATOM     10  C   UNL     1       1.841   8.284  20.163  0.00  0.00    +0.000 A 
ATOM     11  N   UNL     1       1.643   8.429  21.534  0.00  0.00    +0.000 N 
ATOM     12  C   UNL     1       0.992   9.374  22.260  0.00  0.00    +0.000 C 
ATOM     13  C   UNL     1       0.350  10.577  21.636  0.00  0.00    +0.000 C 
ATOM     14  O   UNL     1       0.983   9.237  23.489  0.00  0.00    +0.000 OA
ATOM     15  C   UNL     1       2.627   7.205  19.782  0.00  0.00    +0.000 A 
ATOM     16  H   UNL     1       2.041   7.722  22.134  0.00  0.00    +0.000 HD
ENDBRANCH   4   6
BRANCH   3  17
ATOM     17  C   UNL     1       2.915   3.968  19.606  0.00  0.00    +0.000 A 
ATOM     18  C   UNL     1       1.588   3.700  19.236  0.00  0.00    +0.000 A 
ATOM     19  C   UNL     1       0.707   3.108  20.146  0.00  0.00    +0.000 A 
ATOM     20  C   UNL     1       1.153   2.793  21.424  0.00  0.00    +0.000 A 
ATOM     21  F   UNL     1       0.308   2.231  22.299  0.00  0.00    +0.000 F 
ATOM     22  C   UNL     1       2.463   3.053  21.810  0.00  0.00    +0.000 A 
ATOM     23  C   UNL     1       3.344   3.646  20.903  0.00  0.00    +0.000 A 
ENDBRANCH   3  17
BRANCH   1  25
ATOM     24  C   UNL     1       6.577   4.025  14.966  0.00  0.00    +0.000 C 
ATOM     25  S   UNL     1       7.096   4.384  16.662  0.00  0.00    +0.000 S 
ENDBRANCH   1  25
BRANCH   5  26
ATOM     26  C   UNL     1       5.271   7.037  16.434  0.00  0.00    +0.000 C 
BRANCH  26  27
ATOM     27  C   UNL     1       6.126   8.136  17.068  0.00  0.00    +0.000 C 
BRANCH  27  28
ATOM     28  C   UNL     1       7.578   7.757  17.245  0.00  0.00    +0.000 C 
BRANCH  28  29
ATOM     29  O   UNL     1       8.179   8.634  18.201  0.00  0.00    +0.000 OA
ATOM     30  H   UNL     1       7.478   8.976  18.783  0.00  0.00    +0.000 HD
ENDBRANCH  28  29
ENDBRANCH  27  28
ENDBRANCH  26  27
ENDBRANCH   5  26
TORSDOF 7
ENDMDL
MODEL 5
REMARK VINA RESULT:      -6.3      7.909     10.071
REMARK  Name = 
REMARK  9 active torsions:
REMARK  status: ('A' for Active; 'I' for Inactive)
REMARK    1  A    between atoms: C_1  and  S_2
REMARK    2  A    between atoms: S_2  and  C_3
REMARK    3  A    between atoms: C_5  and  C_6
REMARK    4  A    between atoms: C_13  and  C_14
REMARK    5  A    between atoms: C_20  and  C_21
REMARK    6  A    between atoms: N_24  and  C_25
REMARK    7  A    between atoms: C_25  and  C_26
REMARK    8  A    between atoms: C_26  and  C_27
REMARK    9  A    between atoms: C_27  and  O_28
REMARK                            x       y       z     vdW  Elec       q    Type
REMARK                         _______ _______ _______ _____ _____    ______ ____
ROOT
ATOM      1  C   UNL     1      -4.231  12.761  21.013  0.00  0.00    +0.000 A 
ATOM      2  N   UNL     1      -4.471  12.114  19.901  0.00  0.00    +0.000 NA
ATOM      3  C   UNL     1      -3.258  11.982  19.285  0.00  0.00    +0.000 A 
ATOM      4  C   UNL     1      -2.242  12.580  20.027  0.00  0.00    +0.000 A 
ATOM      5  N   UNL     1      -2.893  13.067  21.158  0.00  0.00    +0.000 N 
ENDROOT
BRANCH   4   6
ATOM      6  C   UNL     1      -0.853  12.865  19.645  0.00  0.00    +0.000 A 
ATOM      7  C   UNL     1       0.161  11.920  19.671  0.00  0.00    +0.000 A 
ATOM      8  C   UNL     1       1.452  12.349  19.395  0.00  0.00    +0.000 A 
ATOM      9  N   UNL     1       1.774  13.620  19.049  0.00  0.00    +0.000 NA
ATOM     10  C   UNL     1       0.779  14.514  18.964  0.00  0.00    +0.000 A 
ATOM     11  N   UNL     1       0.980  15.832  18.561  0.00  0.00    +0.000 N 
ATOM     12  C   UNL     1       2.106  16.521  18.243  0.00  0.00    +0.000 C 
ATOM     13  C   UNL     1       3.477  15.920  18.332  0.00  0.00    +0.000 C 
ATOM     14  O   UNL     1       1.971  17.705  17.914  0.00  0.00    +0.000 OA
ATOM     15  C   UNL     1      -0.531  14.173  19.269  0.00  0.00    +0.000 A 
ATOM     16  H   UNL     1       0.161  16.417  18.476  0.00  0.00    +0.000 HD
ENDBRANCH   4   6
BRANCH   3  17
ATOM     17  C   UNL     1      -3.130  11.373  17.968  0.00  0.00    +0.000 A 
ATOM     18  C   UNL     1      -2.106  10.443  17.732  0.00  0.00    +0.000 A 
ATOM     19  C   UNL     1      -1.990   9.821  16.486  0.00  0.00    +0.000 A 
ATOM     20  C   UNL     1      -2.893  10.137  15.477  0.00  0.00    +0.000 A 
ATOM     21  F   UNL     1      -2.779   9.546  14.281  0.00  0.00    +0.000 F 
ATOM     22  C   UNL     1      -3.913  11.056  15.691  0.00  0.00    +0.000 A 
ATOM     23  C   UNL     1      -4.029  11.680  16.935  0.00  0.00    +0.000 A 
ENDBRANCH   3  17
BRANCH   1  25
ATOM     24  C   UNL     1      -6.922  12.448  21.415  0.00  0.00    +0.000 C 
ATOM     25  S   UNL     1      -5.463  13.239  22.139  0.00  0.00    +0.000 S 
ENDBRANCH   1  25
BRANCH   5  26
ATOM     26  C   UNL     1      -2.279  13.736  22.295  0.00  0.00    +0.000 C 
BRANCH  26  27
ATOM     27  C   UNL     1      -1.278  12.928  23.125  0.00  0.00    +0.000 C 
BRANCH  27  28
ATOM     28  C   UNL     1      -1.595  11.452  23.198  0.00  0.00    +0.000 C 
BRANCH  28  29
ATOM     29  O   UNL     1      -0.378  10.717  23.342  0.00  0.00    +0.000 OA
ATOM     30  H   UNL     1      -0.600   9.813  23.626  0.00  0.00    +0.000 HD
ENDBRANCH  28  29
ENDBRANCH  27  28
ENDBRANCH  26  27
ENDBRANCH   5  26
TORSDOF 7
ENDMDL
MODEL 6
REMARK VINA RESULT:      -6.3      3.327      6.197
REMARK  Name = 
REMARK  9 active torsions:
REMARK  status: ('A' for Active; 'I' for Inactive)
REMARK    1  A    between atoms: C_1  and  S_2
REMARK    2  A    between atoms: S_2  and  C_3
REMARK    3  A    between atoms: C_5  and  C_6
REMARK    4  A    between atoms: C_13  and  C_14
REMARK    5  A    between atoms: C_20  and  C_21
REMARK    6  A    between atoms: N_24  and  C_25
REMARK    7  A    between atoms: C_25  and  C_26
REMARK    8  A    between atoms: C_26  and  C_27
REMARK    9  A    between atoms: C_27  and  O_28
REMARK                            x       y       z     vdW  Elec       q    Type
REMARK                         _______ _______ _______ _____ _____    ______ ____
ROOT
ATOM      1  C   UNL     1       2.666   4.164  20.693  0.00  0.00    +0.000 A 
ATOM      2  N   UNL     1       2.099   5.334  20.534  0.00  0.00    +0.000 NA
ATOM      3  C   UNL     1       2.740   5.909  19.472  0.00  0.00    +0.000 A 
ATOM      4  C   UNL     1       3.742   5.080  18.972  0.00  0.00    +0.000 A 
ATOM      5  N   UNL     1       3.667   3.942  19.770  0.00  0.00    +0.000 N 
ENDROOT
BRANCH   4   6
ATOM      6  C   UNL     1       4.802   5.382  18.001  0.00  0.00    +0.000 A 
ATOM      7  C   UNL     1       5.774   6.350  18.200  0.00  0.00    +0.000 A 
ATOM      8  C   UNL     1       6.647   6.614  17.154  0.00  0.00    +0.000 A 
ATOM      9  N   UNL     1       6.644   5.948  15.972  0.00  0.00    +0.000 NA
ATOM     10  C   UNL     1       5.741   4.971  15.811  0.00  0.00    +0.000 A 
ATOM     11  N   UNL     1       5.681   4.179  14.666  0.00  0.00    +0.000 N 
ATOM     12  C   UNL     1       6.385   4.211  13.506  0.00  0.00    +0.000 C 
ATOM     13  C   UNL     1       7.425   5.250  13.215  0.00  0.00    +0.000 C 
ATOM     14  O   UNL     1       6.103   3.363  12.650  0.00  0.00    +0.000 OA
ATOM     15  C   UNL     1       4.805   4.678  16.792  0.00  0.00    +0.000 A 
ATOM     16  H   UNL     1       5.001   3.433  14.658  0.00  0.00    +0.000 HD
ENDBRANCH   4   6
BRANCH   3  17
ATOM     17  C   UNL     1       2.432   7.263  19.035  0.00  0.00    +0.000 A 
ATOM     18  C   UNL     1       1.771   8.140  19.908  0.00  0.00    +0.000 A 
ATOM     19  C   UNL     1       1.499   9.454  19.519  0.00  0.00    +0.000 A 
ATOM     20  C   UNL     1       1.882   9.886  18.255  0.00  0.00    +0.000 A 
ATOM     21  F   UNL     1       1.617  11.144  17.879  0.00  0.00    +0.000 F 
ATOM     22  C   UNL     1       2.536   9.033  17.374  0.00  0.00    +0.000 A 
ATOM     23  C   UNL     1       2.806   7.719  17.761  0.00  0.00    +0.000 A 
ENDBRANCH   3  17
BRANCH   1  25
ATOM     24  C   UNL     1       0.729   2.327  21.308  0.00  0.00    +0.000 C 
ATOM     25  S   UNL     1       2.252   3.055  21.963  0.00  0.00    +0.000 S 
ENDBRANCH   1  25
BRANCH   5  26
ATOM     26  C   UNL     1       4.463   2.730  19.635  0.00  0.00    +0.000 C 
BRANCH  26  27
ATOM     27  C   UNL     1       3.984   1.688  18.622  0.00  0.00    +0.000 C 
BRANCH  27  28
ATOM     28  C   UNL     1       2.493   1.716  18.374  0.00  0.00    +0.000 C 
BRANCH  28  29
ATOM     29  O   UNL     1       2.232   2.425  17.160  0.00  0.00    +0.000 OA
ATOM     30  H   UNL     1       2.949   3.069  17.024  0.00  0.00    +0.000 HD
ENDBRANCH  28  29
ENDBRANCH  27  28
ENDBRANCH  26  27
ENDBRANCH   5  26
TORSDOF 7
ENDMDL
MODEL 7
REMARK VINA RESULT:      -6.3      8.099     10.732
REMARK  Name = 
REMARK  9 active torsions:
REMARK  status: ('A' for Active; 'I' for Inactive)
REMARK    1  A    between atoms: C_1  and  S_2
REMARK    2  A    between atoms: S_2  and  C_3
REMARK    3  A    between atoms: C_5  and  C_6
REMARK    4  A    between atoms: C_13  and  C_14
REMARK    5  A    between atoms: C_20  and  C_21
REMARK    6  A    between atoms: N_24  and  C_25
REMARK    7  A    between atoms: C_25  and  C_26
REMARK    8  A    between atoms: C_26  and  C_27
REMARK    9  A    between atoms: C_27  and  O_28
REMARK                            x       y       z     vdW  Elec       q    Type
REMARK                         _______ _______ _______ _____ _____    ______ ____
ROOT
ATOM      1  C   UNL     1      -5.484  12.060  19.459  0.00  0.00    +0.000 A 
ATOM      2  N   UNL     1      -5.545  12.620  20.641  0.00  0.00    +0.000 NA
ATOM      3  C   UNL     1      -4.253  12.916  20.973  0.00  0.00    +0.000 A 
ATOM      4  C   UNL     1      -3.366  12.512  19.978  0.00  0.00    +0.000 A 
ATOM      5  N   UNL     1      -4.189  11.972  18.993  0.00  0.00    +0.000 N 
ENDROOT
BRANCH   4   6
ATOM      6  C   UNL     1      -1.900  12.433  20.012  0.00  0.00    +0.000 A 
ATOM      7  C   UNL     1      -1.199  11.415  20.639  0.00  0.00    +0.000 A 
ATOM      8  C   UNL     1       0.183  11.521  20.697  0.00  0.00    +0.000 A 
ATOM      9  N   UNL     1       0.894  12.528  20.131  0.00  0.00    +0.000 NA
ATOM     10  C   UNL     1       0.213  13.476  19.472  0.00  0.00    +0.000 A 
ATOM     11  N   UNL     1       0.837  14.526  18.801  0.00  0.00    +0.000 N 
ATOM     12  C   UNL     1       2.143  14.883  18.693  0.00  0.00    +0.000 C 
ATOM     13  C   UNL     1       3.245  14.151  19.397  0.00  0.00    +0.000 C 
ATOM     14  O   UNL     1       2.401  15.885  18.016  0.00  0.00    +0.000 OA
ATOM     15  C   UNL     1      -1.173  13.464  19.409  0.00  0.00    +0.000 A 
ATOM     16  H   UNL     1       0.243  15.162  18.289  0.00  0.00    +0.000 HD
ENDBRANCH   4   6
BRANCH   3  17
ATOM     17  C   UNL     1      -3.907  13.488  22.266  0.00  0.00    +0.000 A 
ATOM     18  C   UNL     1      -4.113  12.738  23.434  0.00  0.00    +0.000 A 
ATOM     19  C   UNL     1      -3.754  13.258  24.681  0.00  0.00    +0.000 A 
ATOM     20  C   UNL     1      -3.196  14.529  24.758  0.00  0.00    +0.000 A 
ATOM     21  F   UNL     1      -2.856  15.030  25.952  0.00  0.00    +0.000 F 
ATOM     22  C   UNL     1      -2.985  15.288  23.613  0.00  0.00    +0.000 A 
ATOM     23  C   UNL     1      -3.346  14.771  22.366  0.00  0.00    +0.000 A 
ENDBRANCH   3  17
BRANCH   1  25
ATOM     24  C   UNL     1      -6.934   9.746  19.250  0.00  0.00    +0.000 C 
ATOM     25  S   UNL     1      -6.867  11.438  18.613  0.00  0.00    +0.000 S 
ENDBRANCH   1  25
BRANCH   5  26
ATOM     26  C   UNL     1      -3.771  11.449  17.700  0.00  0.00    +0.000 C 
BRANCH  26  27
ATOM     27  C   UNL     1      -3.166  10.044  17.676  0.00  0.00    +0.000 C 
BRANCH  27  28
ATOM     28  C   UNL     1      -1.998   9.896  16.729  0.00  0.00    +0.000 C 
BRANCH  28  29
ATOM     29  O   UNL     1      -0.778   9.980  17.470  0.00  0.00    +0.000 OA
ATOM     30  H   UNL     1      -0.500  10.913  17.493  0.00  0.00    +0.000 HD
ENDBRANCH  28  29
ENDBRANCH  27  28
ENDBRANCH  26  27
ENDBRANCH   5  26
TORSDOF 7
ENDMDL
MODEL 8
REMARK VINA RESULT:      -6.2      7.669     10.683
REMARK  Name = 
REMARK  9 active torsions:
REMARK  status: ('A' for Active; 'I' for Inactive)
REMARK    1  A    between atoms: C_1  and  S_2
REMARK    2  A    between atoms: S_2  and  C_3
REMARK    3  A    between atoms: C_5  and  C_6
REMARK    4  A    between atoms: C_13  and  C_14
REMARK    5  A    between atoms: C_20  and  C_21
REMARK    6  A    between atoms: N_24  and  C_25
REMARK    7  A    between atoms: C_25  and  C_26
REMARK    8  A    between atoms: C_26  and  C_27
REMARK    9  A    between atoms: C_27  and  O_28
REMARK                            x       y       z     vdW  Elec       q    Type
REMARK                         _______ _______ _______ _____ _____    ______ ____
ROOT
ATOM      1  C   UNL     1       1.908  15.022  21.474  0.00  0.00    +0.000 A 
ATOM      2  N   UNL     1       0.924  14.902  22.329  0.00  0.00    +0.000 NA
ATOM      3  C   UNL     1       0.234  13.789  21.939  0.00  0.00    +0.000 A 
ATOM      4  C   UNL     1       0.795  13.214  20.801  0.00  0.00    +0.000 A 
ATOM      5  N   UNL     1       1.894  14.023  20.523  0.00  0.00    +0.000 N 
ENDROOT
BRANCH   4   6
ATOM      6  C   UNL     1       0.261  12.160  19.930  0.00  0.00    +0.000 A 
ATOM      7  C   UNL     1       0.867  10.926  19.755  0.00  0.00    +0.000 A 
ATOM      8  C   UNL     1       0.321  10.063  18.816  0.00  0.00    +0.000 A 
ATOM      9  N   UNL     1      -0.800  10.329  18.099  0.00  0.00    +0.000 NA
ATOM     10  C   UNL     1      -1.417  11.498  18.319  0.00  0.00    +0.000 A 
ATOM     11  N   UNL     1      -2.606  11.856  17.687  0.00  0.00    +0.000 N 
ATOM     12  C   UNL     1      -3.350  11.232  16.739  0.00  0.00    +0.000 C 
ATOM     13  C   UNL     1      -2.942   9.933  16.110  0.00  0.00    +0.000 C 
ATOM     14  O   UNL     1      -4.380  11.803  16.361  0.00  0.00    +0.000 OA
ATOM     15  C   UNL     1      -0.906  12.432  19.209  0.00  0.00    +0.000 A 
ATOM     16  H   UNL     1      -3.024  12.734  17.957  0.00  0.00    +0.000 HD
ENDBRANCH   4   6
BRANCH   3  17
ATOM     17  C   UNL     1      -0.987  13.370  22.613  0.00  0.00    +0.000 A 
ATOM     18  C   UNL     1      -1.948  14.330  22.967  0.00  0.00    +0.000 A 
ATOM     19  C   UNL     1      -3.141  13.942  23.582  0.00  0.00    +0.000 A 
ATOM     20  C   UNL     1      -3.367  12.597  23.849  0.00  0.00    +0.000 A 
ATOM     21  F   UNL     1      -4.508  12.225  24.444  0.00  0.00    +0.000 F 
ATOM     22  C   UNL     1      -2.428  11.631  23.509  0.00  0.00    +0.000 A 
ATOM     23  C   UNL     1      -1.234  12.017  22.896  0.00  0.00    +0.000 A 
ENDBRANCH   3  17
BRANCH   1  25
ATOM     24  C   UNL     1       2.240  17.486  22.624  0.00  0.00    +0.000 C 
ATOM     25  S   UNL     1       3.052  16.328  21.495  0.00  0.00    +0.000 S 
ENDBRANCH   1  25
BRANCH   5  26
ATOM     26  C   UNL     1       2.868  13.831  19.458  0.00  0.00    +0.000 C 
BRANCH  26  27
ATOM     27  C   UNL     1       2.585  14.517  18.120  0.00  0.00    +0.000 C 
BRANCH  27  28
ATOM     28  C   UNL     1       3.681  15.455  17.668  0.00  0.00    +0.000 C 
BRANCH  28  29
ATOM     29  O   UNL     1       4.885  14.709  17.472  0.00  0.00    +0.000 OA
ATOM     30  H   UNL     1       5.622  15.216  17.856  0.00  0.00    +0.000 HD
ENDBRANCH  28  29
ENDBRANCH  27  28
ENDBRANCH  26  27
ENDBRANCH   5  26
TORSDOF 7
ENDMDL
MODEL 9
REMARK VINA RESULT:      -6.2      8.245     10.787
REMARK  Name = 
REMARK  9 active torsions:
REMARK  status: ('A' for Active; 'I' for Inactive)
REMARK    1  A    between atoms: C_1  and  S_2
REMARK    2  A    between atoms: S_2  and  C_3
REMARK    3  A    between atoms: C_5  and  C_6
REMARK    4  A    between atoms: C_13  and  C_14
REMARK    5  A    between atoms: C_20  and  C_21
REMARK    6  A    between atoms: N_24  and  C_25
REMARK    7  A    between atoms: C_25  and  C_26
REMARK    8  A    between atoms: C_26  and  C_27
REMARK    9  A    between atoms: C_27  and  O_28
REMARK                            x       y       z     vdW  Elec       q    Type
REMARK                         _______ _______ _______ _____ _____    ______ ____
ROOT
ATOM      1  C   UNL     1      -5.476  12.005  19.461  0.00  0.00    +0.000 A 
ATOM      2  N   UNL     1      -5.505  12.522  20.663  0.00  0.00    +0.000 NA
ATOM      3  C   UNL     1      -4.206  12.822  20.964  0.00  0.00    +0.000 A 
ATOM      4  C   UNL     1      -3.347  12.465  19.926  0.00  0.00    +0.000 A 
ATOM      5  N   UNL     1      -4.196  11.950  18.950  0.00  0.00    +0.000 N 
ENDROOT
BRANCH   4   6
ATOM      6  C   UNL     1      -1.880  12.404  19.910  0.00  0.00    +0.000 A 
ATOM      7  C   UNL     1      -1.149  11.347  20.429  0.00  0.00    +0.000 A 
ATOM      8  C   UNL     1       0.233  11.467  20.454  0.00  0.00    +0.000 A 
ATOM      9  N   UNL     1       0.915  12.528  19.953  0.00  0.00    +0.000 NA
ATOM     10  C   UNL     1       0.203  13.517  19.396  0.00  0.00    +0.000 A 
ATOM     11  N   UNL     1       0.794  14.627  18.796  0.00  0.00    +0.000 N 
ATOM     12  C   UNL     1       2.092  15.010  18.679  0.00  0.00    +0.000 C 
ATOM     13  C   UNL     1       3.224  14.237  19.287  0.00  0.00    +0.000 C 
ATOM     14  O   UNL     1       2.318  16.068  18.081  0.00  0.00    +0.000 OA
ATOM     15  C   UNL     1      -1.184  13.492  19.374  0.00  0.00    +0.000 A 
ATOM     16  H   UNL     1       0.178  15.295  18.356  0.00  0.00    +0.000 HD
ENDBRANCH   4   6
BRANCH   3  17
ATOM     17  C   UNL     1      -3.824  13.353  22.265  0.00  0.00    +0.000 A 
ATOM     18  C   UNL     1      -3.242  14.627  22.350  0.00  0.00    +0.000 A 
ATOM     19  C   UNL     1      -2.902  15.167  23.593  0.00  0.00    +0.000 A 
ATOM     20  C   UNL     1      -3.137  14.429  24.747  0.00  0.00    +0.000 A 
ATOM     21  F   UNL     1      -2.807  14.943  25.939  0.00  0.00    +0.000 F 
ATOM     22  C   UNL     1      -3.710  13.165  24.684  0.00  0.00    +0.000 A 
ATOM     23  C   UNL     1      -4.049  12.623  23.442  0.00  0.00    +0.000 A 
ENDBRANCH   3  17
BRANCH   1  25
ATOM     24  C   UNL     1      -6.961   9.710  19.288  0.00  0.00    +0.000 C 
ATOM     25  S   UNL     1      -6.878  11.396  18.637  0.00  0.00    +0.000 S 
ENDBRANCH   1  25
BRANCH   5  26
ATOM     26  C   UNL     1      -3.815  11.479  17.626  0.00  0.00    +0.000 C 
BRANCH  26  27
ATOM     27  C   UNL     1      -3.305  10.041  17.516  0.00  0.00    +0.000 C 
BRANCH  27  28
ATOM     28  C   UNL     1      -2.079   9.891  16.645  0.00  0.00    +0.000 C 
BRANCH  28  29
ATOM     29  O   UNL     1      -2.231  10.702  15.477  0.00  0.00    +0.000 OA
ATOM     30  H   UNL     1      -2.926  11.360  15.653  0.00  0.00    +0.000 HD
ENDBRANCH  28  29
ENDBRANCH  27  28
ENDBRANCH  26  27
ENDBRANCH   5  26
TORSDOF 7
ENDMDL
