MODEL 1
REMARK VINA RESULT:      -7.8      0.000      0.000
REMARK  Name = 
REMARK  10 active torsions:
REMARK  status: ('A' for Active; 'I' for Inactive)
REMARK    1  A    between atoms: C_1  and  C_2
REMARK    2  A    between atoms: C_8  and  C_9
REMARK    3  A    between atoms: N_11  and  C_12
REMARK    4  A    between atoms: C_12  and  C_13
REMARK    5  A    between atoms: C_12  and  C_14
REMARK    6  A    between atoms: C_17  and  S_18
REMARK    7  A    between atoms: S_18  and  C_21
REMARK    8  A    between atoms: C_21  and  C_22
REMARK    9  A    between atoms: C_22  and  O_24
REMARK   10  A    between atoms: N_29  and  C_30
REMARK                            x       y       z     vdW  Elec       q    Type
REMARK                         _______ _______ _______ _____ _____    ______ ____
ROOT
ATOM      1  C   UNL     1       0.899   8.893  20.122  0.00  0.00    +0.000 C 
ATOM      2  C   UNL     1       0.847   8.508  21.604  0.00  0.00    +0.000 C 
ENDROOT
BRANCH   1   3
ATOM      3  C   UNL     1       1.941   8.129  19.305  0.00  0.00    +0.000 A 
ATOM      4  C   UNL     1       2.435   8.737  18.139  0.00  0.00    +0.000 A 
ATOM      5  C   UNL     1       3.354   8.085  17.314  0.00  0.00    +0.000 A 
ATOM      6  C   UNL     1       3.861   6.840  17.681  0.00  0.00    +0.000 A 
ATOM      7  C   UNL     1       3.382   6.208  18.831  0.00  0.00    +0.000 A 
ATOM      8  C   UNL     1       2.430   6.852  19.639  0.00  0.00    +0.000 A 
BRANCH   6   9
ATOM      9  S   UNL     1       4.987   6.010  16.595  0.00  0.00    +0.000 S 
ATOM     10  O   UNL     1       4.623   4.600  16.563  0.00  0.00    +0.000 OA
ATOM     11  O   UNL     1       5.026   6.785  15.371  0.00  0.00    +0.000 OA
BRANCH   9  12
ATOM     12  C   UNL     1       6.673   5.976  17.245  0.00  0.00    +0.000 C 
ATOM     13  C   UNL     1       7.650   7.046  16.821  0.00  0.00    +0.000 C 
ATOM     14  C   UNL     1       7.017   7.119  18.179  0.00  0.00    +0.000 C 
BRANCH  12  15
ATOM     15  C   UNL     1       7.138   4.617  17.577  0.00  0.00    +0.000 C 
ATOM     16  O   UNL     1       8.159   4.147  17.099  0.00  0.00    +0.000 OA
BRANCH  15  17
ATOM     17  O   UNL     1       6.419   3.989  18.540  0.00  0.00    +0.000 OA
ATOM     18  H   UNL     1       6.878   3.232  18.969  0.00  0.00    +0.000 HD
ENDBRANCH  15  17
ENDBRANCH  12  15
ENDBRANCH   9  12
ENDBRANCH   6   9
ENDBRANCH   1   3
BRANCH   1  21
ATOM     19  C   UNL     1       0.252  11.078  19.107  0.00  0.00    +0.000 C 
ATOM     20  O   UNL     1      -0.673  10.556  18.492  0.00  0.00    +0.000 OA
ATOM     21  N   UNL     1       1.067  10.329  19.939  0.00  0.00    +0.000 N 
ATOM     22  H   UNL     1       1.757  10.792  20.508  0.00  0.00    +0.000 HD
BRANCH  19  30
ATOM     23  C   UNL     1       0.622  18.511  20.026  0.00  0.00    +0.000 C 
ATOM     24  C   UNL     1       0.972  17.135  19.533  0.00  0.00    +0.000 A 
ATOM     25  C   UNL     1       2.117  16.918  18.766  0.00  0.00    +0.000 A 
ATOM     26  C   UNL     1       2.434  15.628  18.341  0.00  0.00    +0.000 A 
ATOM     27 CL   UNL     1       3.824  15.303  17.399  0.00  0.00    +0.000 Cl
ATOM     28  C   UNL     1       1.621  14.524  18.664  0.00  0.00    +0.000 A 
ATOM     29  C   UNL     1       1.668  13.120  18.434  0.00  0.00    +0.000 A 
ATOM     30  C   UNL     1       0.567  12.509  19.028  0.00  0.00    +0.000 A 
ATOM     31  N   UNL     1      -0.203  13.552  19.523  0.00  0.00    +0.000 N 
ATOM     32  C   UNL     1      -1.553  13.492  20.062  0.00  0.00    +0.000 C 
ATOM     33  C   UNL     1       0.465  14.763  19.404  0.00  0.00    +0.000 A 
ATOM     34  C   UNL     1       0.133  16.055  19.860  0.00  0.00    +0.000 A 
ENDBRANCH  19  30
ENDBRANCH   1  21
TORSDOF 7
ENDMDL
MODEL 2
REMARK VINA RESULT:      -7.7      1.135      1.970
REMARK  Name = 
REMARK  10 active torsions:
REMARK  status: ('A' for Active; 'I' for Inactive)
REMARK    1  A    between atoms: C_1  and  C_2
REMARK    2  A    between atoms: C_8  and  C_9
REMARK    3  A    between atoms: N_11  and  C_12
REMARK    4  A    between atoms: C_12  and  C_13
REMARK    5  A    between atoms: C_12  and  C_14
REMARK    6  A    between atoms: C_17  and  S_18
REMARK    7  A    between atoms: S_18  and  C_21
REMARK    8  A    between atoms: C_21  and  C_22
REMARK    9  A    between atoms: C_22  and  O_24
REMARK   10  A    between atoms: N_29  and  C_30
REMARK                            x       y       z     vdW  Elec       q    Type
REMARK                         _______ _______ _______ _____ _____    ______ ____
ROOT
ATOM      1  C   UNL     1       0.847   8.605  20.378  0.00  0.00    +0.000 C 
ATOM      2  C   UNL     1       0.684   8.413  21.890  0.00  0.00    +0.000 C 
ENDROOT
BRANCH   1   3
ATOM      3  C   UNL     1       1.829   7.636  19.720  0.00  0.00    +0.000 A 
ATOM      4  C   UNL     1       2.070   6.411  20.363  0.00  0.00    +0.000 A 
ATOM      5  C   UNL     1       2.988   5.491  19.851  0.00  0.00    +0.000 A 
ATOM      6  C   UNL     1       3.626   5.742  18.638  0.00  0.00    +0.000 A 
ATOM      7  C   UNL     1       3.411   6.956  17.980  0.00  0.00    +0.000 A 
ATOM      8  C   UNL     1       2.514   7.895  18.518  0.00  0.00    +0.000 A 
BRANCH   6   9
ATOM      9  S   UNL     1       4.823   4.585  18.032  0.00  0.00    +0.000 S 
ATOM     10  O   UNL     1       5.618   4.128  19.164  0.00  0.00    +0.000 OA
ATOM     11  O   UNL     1       4.098   3.633  17.214  0.00  0.00    +0.000 OA
BRANCH   9  12
ATOM     12  C   UNL     1       6.053   5.363  16.962  0.00  0.00    +0.000 C 
ATOM     13  C   UNL     1       7.121   6.235  17.578  0.00  0.00    +0.000 C 
ATOM     14  C   UNL     1       7.467   4.844  17.137  0.00  0.00    +0.000 C 
BRANCH  12  15
ATOM     15  C   UNL     1       5.552   5.629  15.601  0.00  0.00    +0.000 C 
ATOM     16  O   UNL     1       5.431   6.763  15.166  0.00  0.00    +0.000 OA
BRANCH  15  17
ATOM     17  O   UNL     1       5.360   4.523  14.840  0.00  0.00    +0.000 OA
ATOM     18  H   UNL     1       4.447   4.158  14.868  0.00  0.00    +0.000 HD
ENDBRANCH  15  17
ENDBRANCH  12  15
ENDBRANCH   9  12
ENDBRANCH   6   9
ENDBRANCH   1   3
BRANCH   1  21
ATOM     19  C   UNL     1       0.616  10.654  18.975  0.00  0.00    +0.000 C 
ATOM     20  O   UNL     1      -0.233  10.117  18.272  0.00  0.00    +0.000 OA
ATOM     21  N   UNL     1       1.191   9.981  20.040  0.00  0.00    +0.000 N 
ATOM     22  H   UNL     1       1.812  10.470  20.661  0.00  0.00    +0.000 HD
BRANCH  19  30
ATOM     23  C   UNL     1       1.460  18.102  18.754  0.00  0.00    +0.000 C 
ATOM     24  C   UNL     1       1.795  16.644  18.618  0.00  0.00    +0.000 A 
ATOM     25  C   UNL     1       3.085  16.233  18.278  0.00  0.00    +0.000 A 
ATOM     26  C   UNL     1       3.378  14.873  18.182  0.00  0.00    +0.000 A 
ATOM     27 CL   UNL     1       4.940  14.312  17.769  0.00  0.00    +0.000 Cl
ATOM     28  C   UNL     1       2.398  13.888  18.418  0.00  0.00    +0.000 A 
ATOM     29  C   UNL     1       2.366  12.466  18.442  0.00  0.00    +0.000 A 
ATOM     30  C   UNL     1       1.085  12.029  18.766  0.00  0.00    +0.000 A 
ATOM     31  N   UNL     1       0.315  13.182  18.830  0.00  0.00    +0.000 N 
ATOM     32  C   UNL     1      -1.132  13.289  18.939  0.00  0.00    +0.000 C 
ATOM     33  C   UNL     1       1.109  14.316  18.725  0.00  0.00    +0.000 A 
ATOM     34  C   UNL     1       0.792  15.685  18.846  0.00  0.00    +0.000 A 
ENDBRANCH  19  30
ENDBRANCH   1  21
TORSDOF 7
ENDMDL
MODEL 3
REMARK VINA RESULT:      -7.6      2.249      3.146
REMARK  Name = 
REMARK  10 active torsions:
REMARK  status: ('A' for Active; 'I' for Inactive)
REMARK    1  A    between atoms: C_1  and  C_2
REMARK    2  A    between atoms: C_8  and  C_9
REMARK    3  A    between atoms: N_11  and  C_12
REMARK    4  A    between atoms: C_12  and  C_13
REMARK    5  A    between atoms: C_12  and  C_14
REMARK    6  A    between atoms: C_17  and  S_18
REMARK    7  A    between atoms: S_18  and  C_21
REMARK    8  A    between atoms: C_21  and  C_22
REMARK    9  A    between atoms: C_22  and  O_24
REMARK   10  A    between atoms: N_29  and  C_30
REMARK                            x       y       z     vdW  Elec       q    Type
REMARK                         _______ _______ _______ _____ _____    ______ ____
ROOT
ATOM      1  C   UNL     1       0.454  10.099  19.555  0.00  0.00    +0.000 C 
ATOM      2  C   UNL     1      -0.376   9.899  20.827  0.00  0.00    +0.000 C 
ENDROOT
BRANCH   1   3
ATOM      3  C   UNL     1       1.334   8.905  19.180  0.00  0.00    +0.000 A 
ATOM      4  C   UNL     1       1.570   7.931  20.164  0.00  0.00    +0.000 A 
ATOM      5  C   UNL     1       2.400   6.835  19.915  0.00  0.00    +0.000 A 
ATOM      6  C   UNL     1       2.948   6.647  18.648  0.00  0.00    +0.000 A 
ATOM      7  C   UNL     1       2.735   7.604  17.652  0.00  0.00    +0.000 A 
ATOM      8  C   UNL     1       1.930   8.725  17.918  0.00  0.00    +0.000 A 
BRANCH   6   9
ATOM      9  S   UNL     1       4.036   5.278  18.369  0.00  0.00    +0.000 S 
ATOM     10  O   UNL     1       4.364   5.247  16.950  0.00  0.00    +0.000 OA
ATOM     11  O   UNL     1       5.086   5.378  19.363  0.00  0.00    +0.000 OA
BRANCH   9  12
ATOM     12  C   UNL     1       3.221   3.686  18.630  0.00  0.00    +0.000 C 
ATOM     13  C   UNL     1       1.735   3.571  18.392  0.00  0.00    +0.000 C 
ATOM     14  C   UNL     1       2.691   3.029  17.370  0.00  0.00    +0.000 C 
BRANCH  12  15
ATOM     15  C   UNL     1       3.891   2.851  19.644  0.00  0.00    +0.000 C 
ATOM     16  O   UNL     1       3.271   2.291  20.534  0.00  0.00    +0.000 OA
BRANCH  15  17
ATOM     17  O   UNL     1       5.217   2.657  19.434  0.00  0.00    +0.000 OA
ATOM     18  H   UNL     1       5.433   1.891  18.855  0.00  0.00    +0.000 HD
ENDBRANCH  15  17
ENDBRANCH  12  15
ENDBRANCH   9  12
ENDBRANCH   6   9
ENDBRANCH   1   3
BRANCH   1  21
ATOM     19  C   UNL     1       0.898  12.476  18.944  0.00  0.00    +0.000 C 
ATOM     20  O   UNL     1      -0.130  12.531  18.277  0.00  0.00    +0.000 OA
ATOM     21  N   UNL     1       1.253  11.317  19.613  0.00  0.00    +0.000 N 
ATOM     22  H   UNL     1       2.047  11.322  20.231  0.00  0.00    +0.000 HD
BRANCH  19  30
ATOM     23  C   UNL     1       4.559  18.630  21.168  0.00  0.00    +0.000 C 
ATOM     24  C   UNL     1       4.255  17.374  20.401  0.00  0.00    +0.000 A 
ATOM     25  C   UNL     1       5.180  16.842  19.503  0.00  0.00    +0.000 A 
ATOM     26  C   UNL     1       4.884  15.661  18.821  0.00  0.00    +0.000 A 
ATOM     27 CL   UNL     1       5.979  14.962  17.709  0.00  0.00    +0.000 Cl
ATOM     28  C   UNL     1       3.664  14.984  19.012  0.00  0.00    +0.000 A 
ATOM     29  C   UNL     1       3.077  13.782  18.526  0.00  0.00    +0.000 A 
ATOM     30  C   UNL     1       1.821  13.606  19.098  0.00  0.00    +0.000 A 
ATOM     31  N   UNL     1       1.600  14.755  19.847  0.00  0.00    +0.000 N 
ATOM     32  C   UNL     1       0.367  15.182  20.491  0.00  0.00    +0.000 C 
ATOM     33  C   UNL     1       2.740  15.547  19.888  0.00  0.00    +0.000 A 
ATOM     34  C   UNL     1       3.022  16.729  20.603  0.00  0.00    +0.000 A 
ENDBRANCH  19  30
ENDBRANCH   1  21
TORSDOF 7
ENDMDL
MODEL 4
REMARK VINA RESULT:      -7.5      2.097      2.949
REMARK  Name = 
REMARK  10 active torsions:
REMARK  status: ('A' for Active; 'I' for Inactive)
REMARK    1  A    between atoms: C_1  and  C_2
REMARK    2  A    between atoms: C_8  and  C_9
REMARK    3  A    between atoms: N_11  and  C_12
REMARK    4  A    between atoms: C_12  and  C_13
REMARK    5  A    between atoms: C_12  and  C_14
REMARK    6  A    between atoms: C_17  and  S_18
REMARK    7  A    between atoms: S_18  and  C_21
REMARK    8  A    between atoms: C_21  and  C_22
REMARK    9  A    between atoms: C_22  and  O_24
REMARK   10  A    between atoms: N_29  and  C_30
REMARK                            x       y       z     vdW  Elec       q    Type
REMARK                         _______ _______ _______ _____ _____    ______ ____
ROOT
ATOM      1  C   UNL     1       0.477   9.130  21.137  0.00  0.00    +0.000 C 
ATOM      2  C   UNL     1       0.528   9.068  22.667  0.00  0.00    +0.000 C 
ENDROOT
BRANCH   1   3
ATOM      3  C   UNL     1       1.303   8.054  20.432  0.00  0.00    +0.000 A 
ATOM      4  C   UNL     1       1.389   6.791  21.041  0.00  0.00    +0.000 A 
ATOM      5  C   UNL     1       2.162   5.769  20.485  0.00  0.00    +0.000 A 
ATOM      6  C   UNL     1       2.802   5.962  19.263  0.00  0.00    +0.000 A 
ATOM      7  C   UNL     1       2.740   7.211  18.638  0.00  0.00    +0.000 A 
ATOM      8  C   UNL     1       1.991   8.248  19.220  0.00  0.00    +0.000 A 
BRANCH   6   9
ATOM      9  S   UNL     1       3.816   4.669  18.601  0.00  0.00    +0.000 S 
ATOM     10  O   UNL     1       3.659   4.673  17.153  0.00  0.00    +0.000 OA
ATOM     11  O   UNL     1       5.127   4.829  19.198  0.00  0.00    +0.000 OA
BRANCH   9  12
ATOM     12  C   UNL     1       3.226   3.026  19.067  0.00  0.00    +0.000 C 
ATOM     13  C   UNL     1       1.804   2.633  18.746  0.00  0.00    +0.000 C 
ATOM     14  C   UNL     1       2.925   2.104  17.901  0.00  0.00    +0.000 C 
BRANCH  12  15
ATOM     15  C   UNL     1       3.912   2.479  20.252  0.00  0.00    +0.000 C 
ATOM     16  O   UNL     1       3.364   2.405  21.341  0.00  0.00    +0.000 OA
BRANCH  15  17
ATOM     17  O   UNL     1       5.139   1.956  20.008  0.00  0.00    +0.000 OA
ATOM     18  H   UNL     1       5.367   1.170  20.554  0.00  0.00    +0.000 HD
ENDBRANCH  15  17
ENDBRANCH  12  15
ENDBRANCH   9  12
ENDBRANCH   6   9
ENDBRANCH   1   3
BRANCH   1  21
ATOM     19  C   UNL     1       0.146  11.072  19.606  0.00  0.00    +0.000 C 
ATOM     20  O   UNL     1      -0.821  10.532  19.078  0.00  0.00    +0.000 OA
ATOM     21  N   UNL     1       0.834  10.451  20.635  0.00  0.00    +0.000 N 
ATOM     22  H   UNL     1       1.562  10.951  21.119  0.00  0.00    +0.000 HD
BRANCH  19  30
ATOM     23  C   UNL     1       1.206  18.407  18.471  0.00  0.00    +0.000 C 
ATOM     24  C   UNL     1       1.489  16.932  18.491  0.00  0.00    +0.000 A 
ATOM     25  C   UNL     1       2.745  16.437  18.139  0.00  0.00    +0.000 A 
ATOM     26  C   UNL     1       2.991  15.065  18.189  0.00  0.00    +0.000 A 
ATOM     27 CL   UNL     1       4.511  14.403  17.769  0.00  0.00    +0.000 Cl
ATOM     28  C   UNL     1       1.995  14.151  18.587  0.00  0.00    +0.000 A 
ATOM     29  C   UNL     1       1.920  12.743  18.779  0.00  0.00    +0.000 A 
ATOM     30  C   UNL     1       0.645  12.394  19.214  0.00  0.00    +0.000 A 
ATOM     31  N   UNL     1      -0.085  13.575  19.180  0.00  0.00    +0.000 N 
ATOM     32  C   UNL     1      -1.520  13.746  19.346  0.00  0.00    +0.000 C 
ATOM     33  C   UNL     1       0.738  14.659  18.904  0.00  0.00    +0.000 A 
ATOM     34  C   UNL     1       0.470  16.043  18.878  0.00  0.00    +0.000 A 
ENDBRANCH  19  30
ENDBRANCH   1  21
TORSDOF 7
ENDMDL
MODEL 5
REMARK VINA RESULT:      -7.5      0.952      1.382
REMARK  Name = 
REMARK  10 active torsions:
REMARK  status: ('A' for Active; 'I' for Inactive)
REMARK    1  A    between atoms: C_1  and  C_2
REMARK    2  A    between atoms: C_8  and  C_9
REMARK    3  A    between atoms: N_11  and  C_12
REMARK    4  A    between atoms: C_12  and  C_13
REMARK    5  A    between atoms: C_12  and  C_14
REMARK    6  A    between atoms: C_17  and  S_18
REMARK    7  A    between atoms: S_18  and  C_21
REMARK    8  A    between atoms: C_21  and  C_22
REMARK    9  A    between atoms: C_22  and  O_24
REMARK   10  A    between atoms: N_29  and  C_30
REMARK                            x       y       z     vdW  Elec       q    Type
REMARK                         _______ _______ _______ _____ _____    ______ ____
ROOT
ATOM      1  C   UNL     1       0.740   8.721  20.066  0.00  0.00    +0.000 C 
ATOM      2  C   UNL     1       0.252   8.445  21.492  0.00  0.00    +0.000 C 
ENDROOT
BRANCH   1   3
ATOM      3  C   UNL     1       1.833   7.771  19.577  0.00  0.00    +0.000 A 
ATOM      4  C   UNL     1       2.424   8.039  18.331  0.00  0.00    +0.000 A 
ATOM      5  C   UNL     1       3.396   7.193  17.792  0.00  0.00    +0.000 A 
ATOM      6  C   UNL     1       3.857   6.101  18.526  0.00  0.00    +0.000 A 
ATOM      7  C   UNL     1       3.282   5.806  19.765  0.00  0.00    +0.000 A 
ATOM      8  C   UNL     1       2.277   6.640  20.287  0.00  0.00    +0.000 A 
BRANCH   6   9
ATOM      9  S   UNL     1       5.054   5.014  17.803  0.00  0.00    +0.000 S 
ATOM     10  O   UNL     1       5.618   4.196  18.868  0.00  0.00    +0.000 OA
ATOM     11  O   UNL     1       4.410   4.393  16.663  0.00  0.00    +0.000 OA
BRANCH   9  12
ATOM     12  C   UNL     1       6.495   5.901  17.169  0.00  0.00    +0.000 C 
ATOM     13  C   UNL     1       6.646   7.373  17.467  0.00  0.00    +0.000 C 
ATOM     14  C   UNL     1       7.467   6.377  18.231  0.00  0.00    +0.000 C 
BRANCH  12  15
ATOM     15  C   UNL     1       7.027   5.325  15.920  0.00  0.00    +0.000 C 
ATOM     16  O   UNL     1       7.882   4.453  15.921  0.00  0.00    +0.000 OA
BRANCH  15  17
ATOM     17  O   UNL     1       6.405   5.746  14.791  0.00  0.00    +0.000 OA
ATOM     18  H   UNL     1       5.747   6.464  14.927  0.00  0.00    +0.000 HD
ENDBRANCH  15  17
ENDBRANCH  12  15
ENDBRANCH   9  12
ENDBRANCH   6   9
ENDBRANCH   1   3
BRANCH   1  21
ATOM     19  C   UNL     1       0.592  10.949  18.954  0.00  0.00    +0.000 C 
ATOM     20  O   UNL     1      -0.316  10.562  18.226  0.00  0.00    +0.000 OA
ATOM     21  N   UNL     1       1.160  10.106  19.895  0.00  0.00    +0.000 N 
ATOM     22  H   UNL     1       1.835  10.471  20.547  0.00  0.00    +0.000 HD
BRANCH  19  30
ATOM     23  C   UNL     1       1.998  18.265  19.801  0.00  0.00    +0.000 C 
ATOM     24  C   UNL     1       2.198  16.832  19.395  0.00  0.00    +0.000 A 
ATOM     25  C   UNL     1       3.401  16.408  18.831  0.00  0.00    +0.000 A 
ATOM     26  C   UNL     1       3.570  15.067  18.485  0.00  0.00    +0.000 A 
ATOM     27 CL   UNL     1       5.023  14.490  17.791  0.00  0.00    +0.000 Cl
ATOM     28  C   UNL     1       2.550  14.118  18.687  0.00  0.00    +0.000 A 
ATOM     29  C   UNL     1       2.407  12.715  18.491  0.00  0.00    +0.000 A 
ATOM     30  C   UNL     1       1.142  12.308  18.905  0.00  0.00    +0.000 A 
ATOM     31  N   UNL     1       0.479  13.479  19.249  0.00  0.00    +0.000 N 
ATOM     32  C   UNL     1      -0.931  13.652  19.559  0.00  0.00    +0.000 C 
ATOM     33  C   UNL     1       1.344  14.565  19.222  0.00  0.00    +0.000 A 
ATOM     34  C   UNL     1       1.155  15.911  19.597  0.00  0.00    +0.000 A 
ENDBRANCH  19  30
ENDBRANCH   1  21
TORSDOF 7
ENDMDL
MODEL 6
REMARK VINA RESULT:      -7.5      3.713      5.063
REMARK  Name = 
REMARK  10 active torsions:
REMARK  status: ('A' for Active; 'I' for Inactive)
REMARK    1  A    between atoms: C_1  and  C_2
REMARK    2  A    between atoms: C_8  and  C_9
REMARK    3  A    between atoms: N_11  and  C_12
REMARK    4  A    between atoms: C_12  and  C_13
REMARK    5  A    between atoms: C_12  and  C_14
REMARK    6  A    between atoms: C_17  and  S_18
REMARK    7  A    between atoms: S_18  and  C_21
REMARK    8  A    between atoms: C_21  and  C_22
REMARK    9  A    between atoms: C_22  and  O_24
REMARK   10  A    between atoms: N_29  and  C_30
REMARK                            x       y       z     vdW  Elec       q    Type
REMARK                         _______ _______ _______ _____ _____    ______ ____
ROOT
ATOM      1  C   UNL     1       1.568  10.049  19.160  0.00  0.00    +0.000 C 
ATOM      2  C   UNL     1       2.078  10.506  17.789  0.00  0.00    +0.000 C 
ENDROOT
BRANCH   1   3
ATOM      3  C   UNL     1       1.715   8.550  19.423  0.00  0.00    +0.000 A 
ATOM      4  C   UNL     1       2.204   7.747  18.380  0.00  0.00    +0.000 A 
ATOM      5  C   UNL     1       2.323   6.363  18.524  0.00  0.00    +0.000 A 
ATOM      6  C   UNL     1       2.031   5.760  19.746  0.00  0.00    +0.000 A 
ATOM      7  C   UNL     1       1.536   6.534  20.799  0.00  0.00    +0.000 A 
ATOM      8  C   UNL     1       1.382   7.921  20.637  0.00  0.00    +0.000 A 
BRANCH   6   9
ATOM      9  S   UNL     1       2.142   3.999  19.891  0.00  0.00    +0.000 S 
ATOM     10  O   UNL     1       2.804   3.694  21.153  0.00  0.00    +0.000 OA
ATOM     11  O   UNL     1       0.819   3.479  19.612  0.00  0.00    +0.000 OA
BRANCH   9  12
ATOM     12  C   UNL     1       3.257   3.276  18.667  0.00  0.00    +0.000 C 
ATOM     13  C   UNL     1       2.823   2.044  17.909  0.00  0.00    +0.000 C 
ATOM     14  C   UNL     1       2.781   3.382  17.231  0.00  0.00    +0.000 C 
BRANCH  12  15
ATOM     15  C   UNL     1       4.681   3.515  18.967  0.00  0.00    +0.000 C 
ATOM     16  O   UNL     1       5.247   4.547  18.642  0.00  0.00    +0.000 OA
BRANCH  15  17
ATOM     17  O   UNL     1       5.268   2.563  19.734  0.00  0.00    +0.000 OA
ATOM     18  H   UNL     1       5.900   1.982  19.256  0.00  0.00    +0.000 HD
ENDBRANCH  15  17
ENDBRANCH  12  15
ENDBRANCH   9  12
ENDBRANCH   6   9
ENDBRANCH   1   3
BRANCH   1  21
ATOM     19  C   UNL     1      -0.126  11.695  19.962  0.00  0.00    +0.000 C 
ATOM     20  O   UNL     1       0.750  12.494  20.276  0.00  0.00    +0.000 OA
ATOM     21  N   UNL     1       0.193  10.472  19.397  0.00  0.00    +0.000 N 
ATOM     22  H   UNL     1      -0.542   9.873  19.058  0.00  0.00    +0.000 HD
BRANCH  19  30
ATOM     23  C   UNL     1      -6.894  13.715  22.480  0.00  0.00    +0.000 C 
ATOM     24  C   UNL     1      -5.833  13.228  21.534  0.00  0.00    +0.000 A 
ATOM     25  C   UNL     1      -6.124  12.991  20.191  0.00  0.00    +0.000 A 
ATOM     26  C   UNL     1      -5.115  12.562  19.327  0.00  0.00    +0.000 A 
ATOM     27 CL   UNL     1      -5.414  12.255  17.672  0.00  0.00    +0.000 Cl
ATOM     28  C   UNL     1      -3.797  12.356  19.777  0.00  0.00    +0.000 A 
ATOM     29  C   UNL     1      -2.563  11.972  19.180  0.00  0.00    +0.000 A 
ATOM     30  C   UNL     1      -1.558  11.957  20.143  0.00  0.00    +0.000 A 
ATOM     31  N   UNL     1      -2.203  12.223  21.344  0.00  0.00    +0.000 N 
ATOM     32  C   UNL     1      -1.663  12.131  22.691  0.00  0.00    +0.000 C 
ATOM     33  C   UNL     1      -3.532  12.567  21.128  0.00  0.00    +0.000 A 
ATOM     34  C   UNL     1      -4.529  13.018  22.016  0.00  0.00    +0.000 A 
ENDBRANCH  19  30
ENDBRANCH   1  21
TORSDOF 7
ENDMDL
MODEL 7
REMARK VINA RESULT:      -7.5      3.553      4.824
REMARK  Name = 
REMARK  10 active torsions:
REMARK  status: ('A' for Active; 'I' for Inactive)
REMARK    1  A    between atoms: C_1  and  C_2
REMARK    2  A    between atoms: C_8  and  C_9
REMARK    3  A    between atoms: N_11  and  C_12
REMARK    4  A    between atoms: C_12  and  C_13
REMARK    5  A    between atoms: C_12  and  C_14
REMARK    6  A    between atoms: C_17  and  S_18
REMARK    7  A    between atoms: S_18  and  C_21
REMARK    8  A    between atoms: C_21  and  C_22
REMARK    9  A    between atoms: C_22  and  O_24
REMARK   10  A    between atoms: N_29  and  C_30
REMARK                            x       y       z     vdW  Elec       q    Type
REMARK                         _______ _______ _______ _____ _____    ______ ____
ROOT
ATOM      1  C   UNL     1       0.086  10.692  18.655  0.00  0.00    +0.000 C 
ATOM      2  C   UNL     1      -1.094  10.477  17.702  0.00  0.00    +0.000 C 
ENDROOT
BRANCH   1   3
ATOM      3  C   UNL     1       0.887   9.427  18.966  0.00  0.00    +0.000 A 
ATOM      4  C   UNL     1       1.591   8.823  17.912  0.00  0.00    +0.000 A 
ATOM      5  C   UNL     1       2.308   7.639  18.103  0.00  0.00    +0.000 A 
ATOM      6  C   UNL     1       2.403   7.077  19.374  0.00  0.00    +0.000 A 
ATOM      7  C   UNL     1       1.707   7.653  20.440  0.00  0.00    +0.000 A 
ATOM      8  C   UNL     1       0.956   8.823  20.235  0.00  0.00    +0.000 A 
BRANCH   6   9
ATOM      9  S   UNL     1       3.276   5.551  19.584  0.00  0.00    +0.000 S 
ATOM     10  O   UNL     1       4.702   5.832  19.482  0.00  0.00    +0.000 OA
ATOM     11  O   UNL     1       2.734   4.927  20.774  0.00  0.00    +0.000 OA
BRANCH   9  12
ATOM     12  C   UNL     1       2.994   4.403  18.217  0.00  0.00    +0.000 C 
ATOM     13  C   UNL     1       2.109   3.199  18.435  0.00  0.00    +0.000 C 
ATOM     14  C   UNL     1       1.574   4.383  17.685  0.00  0.00    +0.000 C 
BRANCH  12  15
ATOM     15  C   UNL     1       4.116   4.353  17.261  0.00  0.00    +0.000 C 
ATOM     16  O   UNL     1       4.603   3.297  16.889  0.00  0.00    +0.000 OA
BRANCH  15  17
ATOM     17  O   UNL     1       4.473   5.553  16.740  0.00  0.00    +0.000 OA
ATOM     18  H   UNL     1       5.441   5.726  16.730  0.00  0.00    +0.000 HD
ENDBRANCH  15  17
ENDBRANCH  12  15
ENDBRANCH   9  12
ENDBRANCH   6   9
ENDBRANCH   1   3
BRANCH   1  21
ATOM     19  C   UNL     1      -0.679  12.683  19.948  0.00  0.00    +0.000 C 
ATOM     20  O   UNL     1      -0.676  13.381  18.938  0.00  0.00    +0.000 OA
ATOM     21  N   UNL     1      -0.327  11.346  19.891  0.00  0.00    +0.000 N 
ATOM     22  H   UNL     1      -0.429  10.769  20.710  0.00  0.00    +0.000 HD
BRANCH  19  30
ATOM     23  C   UNL     1      -1.368  16.528  26.348  0.00  0.00    +0.000 C 
ATOM     24  C   UNL     1      -1.660  15.515  25.277  0.00  0.00    +0.000 A 
ATOM     25  C   UNL     1      -2.797  14.709  25.344  0.00  0.00    +0.000 A 
ATOM     26  C   UNL     1      -3.058  13.792  24.325  0.00  0.00    +0.000 A 
ATOM     27 CL   UNL     1      -4.435  12.779  24.353  0.00  0.00    +0.000 Cl
ATOM     28  C   UNL     1      -2.198  13.653  23.218  0.00  0.00    +0.000 A 
ATOM     29  C   UNL     1      -2.184  12.874  22.028  0.00  0.00    +0.000 A 
ATOM     30  C   UNL     1      -1.057  13.185  21.273  0.00  0.00    +0.000 A 
ATOM     31  N   UNL     1      -0.331  14.073  22.057  0.00  0.00    +0.000 N 
ATOM     32  C   UNL     1       1.022  14.562  21.838  0.00  0.00    +0.000 C 
ATOM     33  C   UNL     1      -1.052  14.444  23.184  0.00  0.00    +0.000 A 
ATOM     34  C   UNL     1      -0.774  15.389  24.193  0.00  0.00    +0.000 A 
ENDBRANCH  19  30
ENDBRANCH   1  21
TORSDOF 7
ENDMDL
MODEL 8
REMARK VINA RESULT:      -7.5      4.613     10.900
REMARK  Name = 
REMARK  10 active torsions:
REMARK  status: ('A' for Active; 'I' for Inactive)
REMARK    1  A    between atoms: C_1  and  C_2
REMARK    2  A    between atoms: C_8  and  C_9
REMARK    3  A    between atoms: N_11  and  C_12
REMARK    4  A    between atoms: C_12  and  C_13
REMARK    5  A    between atoms: C_12  and  C_14
REMARK    6  A    between atoms: C_17  and  S_18
REMARK    7  A    between atoms: S_18  and  C_21
REMARK    8  A    between atoms: C_21  and  C_22
REMARK    9  A    between atoms: C_22  and  O_24
REMARK   10  A    between atoms: N_29  and  C_30
REMARK                            x       y       z     vdW  Elec       q    Type
REMARK                         _______ _______ _______ _____ _____    ______ ____
ROOT
ATOM      1  C   UNL     1       0.741  11.534  18.908  0.00  0.00    +0.000 C 
ATOM      2  C   UNL     1       1.898  12.520  19.100  0.00  0.00    +0.000 C 
ENDROOT
BRANCH   1   3
ATOM      3  C   UNL     1      -0.521  11.878  19.700  0.00  0.00    +0.000 A 
ATOM      4  C   UNL     1      -0.416  11.953  21.099  0.00  0.00    +0.000 A 
ATOM      5  C   UNL     1      -1.532  12.215  21.897  0.00  0.00    +0.000 A 
ATOM      6  C   UNL     1      -2.765  12.488  21.307  0.00  0.00    +0.000 A 
ATOM      7  C   UNL     1      -2.900  12.413  19.919  0.00  0.00    +0.000 A 
ATOM      8  C   UNL     1      -1.782  12.112  19.121  0.00  0.00    +0.000 A 
BRANCH   6   9
ATOM      9  S   UNL     1      -4.176  12.769  22.340  0.00  0.00    +0.000 S 
ATOM     10  O   UNL     1      -5.349  12.258  21.645  0.00  0.00    +0.000 OA
ATOM     11  O   UNL     1      -3.828  12.272  23.656  0.00  0.00    +0.000 OA
BRANCH   9  12
ATOM     12  C   UNL     1      -4.552  14.526  22.528  0.00  0.00    +0.000 C 
ATOM     13  C   UNL     1      -3.640  15.549  21.895  0.00  0.00    +0.000 C 
ATOM     14  C   UNL     1      -4.955  15.232  21.248  0.00  0.00    +0.000 C 
BRANCH  12  15
ATOM     15  C   UNL     1      -5.282  14.832  23.773  0.00  0.00    +0.000 C 
ATOM     16  O   UNL     1      -6.488  14.667  23.875  0.00  0.00    +0.000 OA
BRANCH  15  17
ATOM     17  O   UNL     1      -4.496  15.187  24.819  0.00  0.00    +0.000 OA
ATOM     18  H   UNL     1      -4.308  16.150  24.885  0.00  0.00    +0.000 HD
ENDBRANCH  15  17
ENDBRANCH  12  15
ENDBRANCH   9  12
ENDBRANCH   6   9
ENDBRANCH   1   3
BRANCH   1  21
ATOM     19  C   UNL     1       1.895   9.414  18.280  0.00  0.00    +0.000 C 
ATOM     20  O   UNL     1       2.267   9.894  17.214  0.00  0.00    +0.000 OA
ATOM     21  N   UNL     1       1.147  10.161  19.175  0.00  0.00    +0.000 N 
ATOM     22  H   UNL     1       0.935   9.782  20.084  0.00  0.00    +0.000 HD
BRANCH  19  30
ATOM     23  C   UNL     1       2.177   2.720  21.646  0.00  0.00    +0.000 C 
ATOM     24  C   UNL     1       2.451   3.801  20.639  0.00  0.00    +0.000 A 
ATOM     25  C   UNL     1       3.197   3.537  19.490  0.00  0.00    +0.000 A 
ATOM     26  C   UNL     1       3.418   4.551  18.557  0.00  0.00    +0.000 A 
ATOM     27 CL   UNL     1       4.324   4.286  17.132  0.00  0.00    +0.000 Cl
ATOM     28  C   UNL     1       2.907   5.850  18.745  0.00  0.00    +0.000 A 
ATOM     29  C   UNL     1       2.912   7.066  18.005  0.00  0.00    +0.000 A 
ATOM     30  C   UNL     1       2.207   8.044  18.700  0.00  0.00    +0.000 A 
ATOM     31  N   UNL     1       1.868   7.454  19.911  0.00  0.00    +0.000 N 
ATOM     32  C   UNL     1       1.299   8.090  21.089  0.00  0.00    +0.000 C 
ATOM     33  C   UNL     1       2.192   6.104  19.913  0.00  0.00    +0.000 A 
ATOM     34  C   UNL     1       1.940   5.092  20.861  0.00  0.00    +0.000 A 
ENDBRANCH  19  30
ENDBRANCH   1  21
TORSDOF 7
ENDMDL
MODEL 9
REMARK VINA RESULT:      -7.5      1.242      1.909
REMARK  Name = 
REMARK  10 active torsions:
REMARK  status: ('A' for Active; 'I' for Inactive)
REMARK    1  A    between atoms: C_1  and  C_2
REMARK    2  A    between atoms: C_8  and  C_9
REMARK    3  A    between atoms: N_11  and  C_12
REMARK    4  A    between atoms: C_12  and  C_13
REMARK    5  A    between atoms: C_12  and  C_14
REMARK    6  A    between atoms: C_17  and  S_18
REMARK    7  A    between atoms: S_18  and  C_21
REMARK    8  A    between atoms: C_21  and  C_22
REMARK    9  A    between atoms: C_22  and  O_24
REMARK   10  A    between atoms: N_29  and  C_30
REMARK                            x       y       z     vdW  Elec       q    Type
REMARK                         _______ _______ _______ _____ _____    ______ ____
ROOT
ATOM      1  C   UNL     1       1.139   8.678  20.220  0.00  0.00    +0.000 C 
ATOM      2  C   UNL     1       1.140   8.580  21.749  0.00  0.00    +0.000 C 
ENDROOT
BRANCH   1   3
ATOM      3  C   UNL     1       2.078   7.693  19.522  0.00  0.00    +0.000 A 
ATOM      4  C   UNL     1       2.375   6.491  20.184  0.00  0.00    +0.000 A 
ATOM      5  C   UNL     1       3.259   5.560  19.635  0.00  0.00    +0.000 A 
ATOM      6  C   UNL     1       3.805   5.775  18.371  0.00  0.00    +0.000 A 
ATOM      7  C   UNL     1       3.533   6.966  17.693  0.00  0.00    +0.000 A 
ATOM      8  C   UNL     1       2.671   7.917  18.265  0.00  0.00    +0.000 A 
BRANCH   6   9
ATOM      9  S   UNL     1       4.963   4.605  17.716  0.00  0.00    +0.000 S 
ATOM     10  O   UNL     1       5.798   4.139  18.815  0.00  0.00    +0.000 OA
ATOM     11  O   UNL     1       4.194   3.664  16.928  0.00  0.00    +0.000 OA
BRANCH   9  12
ATOM     12  C   UNL     1       6.157   5.371  16.598  0.00  0.00    +0.000 C 
ATOM     13  C   UNL     1       6.685   4.578  15.426  0.00  0.00    +0.000 C 
ATOM     14  C   UNL     1       5.641   5.631  15.196  0.00  0.00    +0.000 C 
BRANCH  12  15
ATOM     15  C   UNL     1       6.991   6.395  17.254  0.00  0.00    +0.000 C 
ATOM     16  O   UNL     1       6.908   7.579  16.968  0.00  0.00    +0.000 OA
BRANCH  15  17
ATOM     17  O   UNL     1       7.756   5.936  18.275  0.00  0.00    +0.000 OA
ATOM     18  H   UNL     1       7.377   6.083  19.171  0.00  0.00    +0.000 HD
ENDBRANCH  15  17
ENDBRANCH  12  15
ENDBRANCH   9  12
ENDBRANCH   6   9
ENDBRANCH   1   3
BRANCH   1  21
ATOM     19  C   UNL     1       0.554  11.097  20.040  0.00  0.00    +0.000 C 
ATOM     20  O   UNL     1      -0.461  10.934  20.708  0.00  0.00    +0.000 OA
ATOM     21  N   UNL     1       1.402  10.037  19.763  0.00  0.00    +0.000 N 
ATOM     22  H   UNL     1       2.278  10.209  19.296  0.00  0.00    +0.000 HD
BRANCH  19  30
ATOM     23  C   UNL     1       1.085  18.299  18.022  0.00  0.00    +0.000 C 
ATOM     24  C   UNL     1       1.477  16.863  18.227  0.00  0.00    +0.000 A 
ATOM     25  C   UNL     1       2.774  16.427  17.951  0.00  0.00    +0.000 A 
ATOM     26  C   UNL     1       3.120  15.093  18.172  0.00  0.00    +0.000 A 
ATOM     27 CL   UNL     1       4.693  14.504  17.852  0.00  0.00    +0.000 Cl
ATOM     28  C   UNL     1       2.188  14.161  18.668  0.00  0.00    +0.000 A 
ATOM     29  C   UNL     1       2.215  12.786  19.032  0.00  0.00    +0.000 A 
ATOM     30  C   UNL     1       0.961  12.396  19.494  0.00  0.00    +0.000 A 
ATOM     31  N   UNL     1       0.146  13.504  19.307  0.00  0.00    +0.000 N 
ATOM     32  C   UNL     1      -1.301  13.584  19.436  0.00  0.00    +0.000 C 
ATOM     33  C   UNL     1       0.890  14.607  18.908  0.00  0.00    +0.000 A 
ATOM     34  C   UNL     1       0.521  15.953  18.710  0.00  0.00    +0.000 A 
ENDBRANCH  19  30
ENDBRANCH   1  21
TORSDOF 7
ENDMDL
