MODEL 1
REMARK VINA RESULT:      -6.8      0.000      0.000
REMARK  Name = 
REMARK  7 active torsions:
REMARK  status: ('A' for Active; 'I' for Inactive)
REMARK    1  A    between atoms: C_2  and  O_3
REMARK    2  A    between atoms: C_2  and  C_4
REMARK    3  A    between atoms: C_9  and  N_10
REMARK    4  A    between atoms: C_13  and  C_14
REMARK    5  A    between atoms: C_14  and  N_15
REMARK    6  A    between atoms: N_15  and  C_16
REMARK    7  A    between atoms: C_28  and  C_29
REMARK                            x       y       z     vdW  Elec       q    Type
REMARK                         _______ _______ _______ _____ _____    ______ ____
ROOT
ATOM      1  C   UNL     1      -0.445  11.156  21.975  0.00  0.00    +0.000 A 
ATOM      2  C   UNL     1      -0.059  11.551  20.757  0.00  0.00    +0.000 A 
ATOM      3  N   UNL     1       0.607  10.778  19.818  0.00  0.00    +0.000 N 
ATOM      4  C   UNL     1       0.952   9.450  20.131  0.00  0.00    +0.000 A 
ATOM      5  C   UNL     1       1.685   8.629  19.263  0.00  0.00    +0.000 A 
ATOM      6  C   UNL     1       2.045   7.289  19.599  0.00  0.00    +0.000 A 
ATOM      7  C   UNL     1       1.562   6.799  20.831  0.00  0.00    +0.000 A 
ATOM      8  F   UNL     1       1.847   5.547  21.225  0.00  0.00    +0.000 F 
ATOM      9  C   UNL     1       0.834   7.585  21.712  0.00  0.00    +0.000 A 
ATOM     10  C   UNL     1       0.544   8.902  21.363  0.00  0.00    +0.000 A 
ATOM     11  C   UNL     1      -0.187   9.756  22.334  0.00  0.00    +0.000 A 
ATOM     12  O   UNL     1      -0.551   9.310  23.418  0.00  0.00    +0.000 OA
ATOM     13  O   UNL     1       2.068   9.056  18.023  0.00  0.00    +0.000 OA
ATOM     14  C   UNL     1       1.694  10.347  17.572  0.00  0.00    +0.000 C 
ATOM     15  C   UNL     1       1.196  11.366  18.598  0.00  0.00    +0.000 C 
ENDROOT
BRANCH   6  16
ATOM     16  N   UNL     1       2.837   6.478  18.800  0.00  0.00    +0.000 N 
ATOM     17  C   UNL     1       2.358   5.561  17.771  0.00  0.00    +0.000 C 
ATOM     18  C   UNL     1       3.229   4.334  17.987  0.00  0.00    +0.000 C 
ATOM     19  C   UNL     1       4.595   4.923  18.353  0.00  0.00    +0.000 C 
ATOM     20  C   UNL     1       4.234   6.189  19.157  0.00  0.00    +0.000 C 
BRANCH  19  21
ATOM     21  C   UNL     1       5.431   5.227  17.099  0.00  0.00    +0.000 C 
BRANCH  21  22
ATOM     22  N   UNL     1       5.841   6.631  17.068  0.00  0.00    +0.000 NA
ATOM     23  H   UNL     1       5.366   7.148  17.809  0.00  0.00    +0.000 HD
BRANCH  22  24
ATOM     24  C   UNL     1       7.295   6.799  17.162  0.00  0.00    +0.000 C 
ATOM     25  C   UNL     1       7.831   8.089  17.714  0.00  0.00    +0.000 C 
ATOM     26  C   UNL     1       7.960   6.822  18.509  0.00  0.00    +0.000 C 
ENDBRANCH  22  24
ENDBRANCH  21  22
ENDBRANCH  19  21
ENDBRANCH   6  16
BRANCH   1  28
ATOM     27  O   UNL     1      -0.484  13.146  23.274  0.00  0.00    +0.000 OA
ATOM     28  C   UNL     1      -1.059  12.136  22.894  0.00  0.00    +0.000 C 
BRANCH  28  29
ATOM     29  O   UNL     1      -2.305  11.819  23.307  0.00  0.00    +0.000 OA
ATOM     30  H   UNL     1      -2.329  11.242  24.107  0.00  0.00    +0.000 HD
ENDBRANCH  28  29
ENDBRANCH   1  28
BRANCH  15  31
ATOM     31  C   UNL     1       2.306  12.366  18.938  0.00  0.00    +0.000 C 
ATOM     32  F   UNL     1       1.934  13.608  18.514  0.00  0.00    +0.000 F 
ENDBRANCH  15  31
TORSDOF 7
ENDMDL
MODEL 2
REMARK VINA RESULT:      -6.7      3.591      7.770
REMARK  Name = 
REMARK  7 active torsions:
REMARK  status: ('A' for Active; 'I' for Inactive)
REMARK    1  A    between atoms: C_2  and  O_3
REMARK    2  A    between atoms: C_2  and  C_4
REMARK    3  A    between atoms: C_9  and  N_10
REMARK    4  A    between atoms: C_13  and  C_14
REMARK    5  A    between atoms: C_14  and  N_15
REMARK    6  A    between atoms: N_15  and  C_16
REMARK    7  A    between atoms: C_28  and  C_29
REMARK                            x       y       z     vdW  Elec       q    Type
REMARK                         _______ _______ _______ _____ _____    ______ ____
ROOT
ATOM      1  C   UNL     1       4.335   2.845  19.686  0.00  0.00    +0.000 A 
ATOM      2  C   UNL     1       4.925   3.623  18.773  0.00  0.00    +0.000 A 
ATOM      3  N   UNL     1       4.587   4.933  18.471  0.00  0.00    +0.000 N 
ATOM      4  C   UNL     1       3.516   5.548  19.147  0.00  0.00    +0.000 A 
ATOM      5  C   UNL     1       3.070   6.843  18.849  0.00  0.00    +0.000 A 
ATOM      6  C   UNL     1       1.970   7.448  19.528  0.00  0.00    +0.000 A 
ATOM      7  C   UNL     1       1.390   6.700  20.575  0.00  0.00    +0.000 A 
ATOM      8  F   UNL     1       0.354   7.195  21.272  0.00  0.00    +0.000 F 
ATOM      9  C   UNL     1       1.807   5.416  20.894  0.00  0.00    +0.000 A 
ATOM     10  C   UNL     1       2.855   4.846  20.174  0.00  0.00    +0.000 A 
ATOM     11  C   UNL     1       3.260   3.452  20.483  0.00  0.00    +0.000 A 
ATOM     12  O   UNL     1       2.701   2.813  21.369  0.00  0.00    +0.000 OA
ATOM     13  O   UNL     1       3.691   7.617  17.911  0.00  0.00    +0.000 OA
ATOM     14  C   UNL     1       4.837   7.130  17.234  0.00  0.00    +0.000 C 
ATOM     15  C   UNL     1       5.139   5.630  17.292  0.00  0.00    +0.000 C 
ENDROOT
BRANCH   6  16
ATOM     16  N   UNL     1       1.453   8.693  19.205  0.00  0.00    +0.000 N 
ATOM     17  C   UNL     1       1.355   9.257  17.862  0.00  0.00    +0.000 C 
ATOM     18  C   UNL     1       1.777  10.703  18.078  0.00  0.00    +0.000 C 
ATOM     19  C   UNL     1       1.169  11.054  19.440  0.00  0.00    +0.000 C 
ATOM     20  C   UNL     1       1.276   9.733  20.230  0.00  0.00    +0.000 C 
BRANCH  19  21
ATOM     21  C   UNL     1      -0.277  11.555  19.299  0.00  0.00    +0.000 C 
BRANCH  21  22
ATOM     22  N   UNL     1      -0.694  11.568  17.897  0.00  0.00    +0.000 NA
ATOM     23  H   UNL     1       0.011  11.108  17.320  0.00  0.00    +0.000 HD
BRANCH  22  24
ATOM     24  C   UNL     1      -2.014  10.963  17.693  0.00  0.00    +0.000 C 
ATOM     25  C   UNL     1      -2.726  11.223  16.395  0.00  0.00    +0.000 C 
ATOM     26  C   UNL     1      -2.183   9.855  16.692  0.00  0.00    +0.000 C 
ENDBRANCH  22  24
ENDBRANCH  21  22
ENDBRANCH  19  21
ENDBRANCH   6  16
BRANCH   1  28
ATOM     27  O   UNL     1       5.413   1.018  20.757  0.00  0.00    +0.000 OA
ATOM     28  C   UNL     1       4.752   1.435  19.816  0.00  0.00    +0.000 C 
BRANCH  28  29
ATOM     29  O   UNL     1       4.368   0.636  18.798  0.00  0.00    +0.000 OA
ATOM     30  H   UNL     1       3.409   0.400  18.811  0.00  0.00    +0.000 HD
ENDBRANCH  28  29
ENDBRANCH   1  28
BRANCH  15  31
ATOM     31  C   UNL     1       4.710   4.951  15.987  0.00  0.00    +0.000 C 
ATOM     32  F   UNL     1       5.393   5.509  14.947  0.00  0.00    +0.000 F 
ENDBRANCH  15  31
TORSDOF 7
ENDMDL
MODEL 3
REMARK VINA RESULT:      -6.5      3.139      8.689
REMARK  Name = 
REMARK  7 active torsions:
REMARK  status: ('A' for Active; 'I' for Inactive)
REMARK    1  A    between atoms: C_2  and  O_3
REMARK    2  A    between atoms: C_2  and  C_4
REMARK    3  A    between atoms: C_9  and  N_10
REMARK    4  A    between atoms: C_13  and  C_14
REMARK    5  A    between atoms: C_14  and  N_15
REMARK    6  A    between atoms: N_15  and  C_16
REMARK    7  A    between atoms: C_28  and  C_29
REMARK                            x       y       z     vdW  Elec       q    Type
REMARK                         _______ _______ _______ _____ _____    ______ ____
ROOT
ATOM      1  C   UNL     1       5.251   4.674  16.616  0.00  0.00    +0.000 A 
ATOM      2  C   UNL     1       4.489   3.987  17.473  0.00  0.00    +0.000 A 
ATOM      3  N   UNL     1       3.495   4.509  18.286  0.00  0.00    +0.000 N 
ATOM      4  C   UNL     1       3.233   5.891  18.263  0.00  0.00    +0.000 A 
ATOM      5  C   UNL     1       2.294   6.504  19.105  0.00  0.00    +0.000 A 
ATOM      6  C   UNL     1       2.052   7.910  19.085  0.00  0.00    +0.000 A 
ATOM      7  C   UNL     1       2.758   8.655  18.118  0.00  0.00    +0.000 A 
ATOM      8  F   UNL     1       2.587   9.984  18.024  0.00  0.00    +0.000 F 
ATOM      9  C   UNL     1       3.694   8.080  17.271  0.00  0.00    +0.000 A 
ATOM     10  C   UNL     1       3.933   6.711  17.355  0.00  0.00    +0.000 A 
ATOM     11  C   UNL     1       4.975   6.111  16.484  0.00  0.00    +0.000 A 
ATOM     12  O   UNL     1       5.605   6.799  15.687  0.00  0.00    +0.000 OA
ATOM     13  O   UNL     1       1.528   5.778  19.971  0.00  0.00    +0.000 OA
ATOM     14  C   UNL     1       1.646   4.366  20.011  0.00  0.00    +0.000 C 
ATOM     15  C   UNL     1       2.869   3.714  19.363  0.00  0.00    +0.000 C 
ENDROOT
BRANCH   6  16
ATOM     16  N   UNL     1       1.191   8.558  19.957  0.00  0.00    +0.000 N 
ATOM     17  C   UNL     1       0.075   9.419  19.577  0.00  0.00    +0.000 C 
ATOM     18  C   UNL     1       0.187  10.566  20.569  0.00  0.00    +0.000 C 
ATOM     19  C   UNL     1       0.621   9.877  21.866  0.00  0.00    +0.000 C 
ATOM     20  C   UNL     1       1.536   8.735  21.375  0.00  0.00    +0.000 C 
BRANCH  19  21
ATOM     21  C   UNL     1      -0.589   9.374  22.669  0.00  0.00    +0.000 C 
BRANCH  21  22
ATOM     22  N   UNL     1      -1.104  10.419  23.555  0.00  0.00    +0.000 NA
ATOM     23  H   UNL     1      -0.353  10.771  24.150  0.00  0.00    +0.000 HD
BRANCH  22  24
ATOM     24  C   UNL     1      -1.749  11.514  22.823  0.00  0.00    +0.000 C 
ATOM     25  C   UNL     1      -2.892  12.235  23.479  0.00  0.00    +0.000 C 
ATOM     26  C   UNL     1      -1.576  12.931  23.291  0.00  0.00    +0.000 C 
ENDBRANCH  22  24
ENDBRANCH  21  22
ENDBRANCH  19  21
ENDBRANCH   6  16
BRANCH   1  28
ATOM     27  O   UNL     1       7.495   4.373  15.891  0.00  0.00    +0.000 OA
ATOM     28  C   UNL     1       6.336   3.980  15.893  0.00  0.00    +0.000 C 
BRANCH  28  29
ATOM     29  O   UNL     1       5.947   2.884  15.208  0.00  0.00    +0.000 OA
ATOM     30  H   UNL     1       6.079   2.951  14.232  0.00  0.00    +0.000 HD
ENDBRANCH  28  29
ENDBRANCH   1  28
BRANCH  15  31
ATOM     31  C   UNL     1       3.892   3.319  20.434  0.00  0.00    +0.000 C 
ATOM     32  F   UNL     1       3.262   2.611  21.414  0.00  0.00    +0.000 F 
ENDBRANCH  15  31
TORSDOF 7
ENDMDL
MODEL 4
REMARK VINA RESULT:      -6.5      1.267      1.632
REMARK  Name = 
REMARK  7 active torsions:
REMARK  status: ('A' for Active; 'I' for Inactive)
REMARK    1  A    between atoms: C_2  and  O_3
REMARK    2  A    between atoms: C_2  and  C_4
REMARK    3  A    between atoms: C_9  and  N_10
REMARK    4  A    between atoms: C_13  and  C_14
REMARK    5  A    between atoms: C_14  and  N_15
REMARK    6  A    between atoms: N_15  and  C_16
REMARK    7  A    between atoms: C_28  and  C_29
REMARK                            x       y       z     vdW  Elec       q    Type
REMARK                         _______ _______ _______ _____ _____    ______ ____
ROOT
ATOM      1  C   UNL     1      -0.414  11.109  21.943  0.00  0.00    +0.000 A 
ATOM      2  C   UNL     1      -0.038  11.464  20.709  0.00  0.00    +0.000 A 
ATOM      3  N   UNL     1       0.611  10.658  19.787  0.00  0.00    +0.000 N 
ATOM      4  C   UNL     1       0.949   9.337  20.135  0.00  0.00    +0.000 A 
ATOM      5  C   UNL     1       1.667   8.485  19.284  0.00  0.00    +0.000 A 
ATOM      6  C   UNL     1       2.021   7.153  19.657  0.00  0.00    +0.000 A 
ATOM      7  C   UNL     1       1.548   6.705  20.907  0.00  0.00    +0.000 A 
ATOM      8  F   UNL     1       1.829   5.462  21.335  0.00  0.00    +0.000 F 
ATOM      9  C   UNL     1       0.837   7.522  21.773  0.00  0.00    +0.000 A 
ATOM     10  C   UNL     1       0.552   8.830  21.388  0.00  0.00    +0.000 A 
ATOM     11  C   UNL     1      -0.161   9.718  22.341  0.00  0.00    +0.000 A 
ATOM     12  O   UNL     1      -0.516   9.307  23.442  0.00  0.00    +0.000 OA
ATOM     13  O   UNL     1       2.038   8.872  18.028  0.00  0.00    +0.000 OA
ATOM     14  C   UNL     1       1.669  10.151  17.542  0.00  0.00    +0.000 C 
ATOM     15  C   UNL     1       1.190  11.205  18.543  0.00  0.00    +0.000 C 
ENDROOT
BRANCH   6  16
ATOM     16  N   UNL     1       2.798   6.313  18.873  0.00  0.00    +0.000 N 
ATOM     17  C   UNL     1       2.300   5.376  17.871  0.00  0.00    +0.000 C 
ATOM     18  C   UNL     1       3.158   4.144  18.113  0.00  0.00    +0.000 C 
ATOM     19  C   UNL     1       4.534   4.726  18.454  0.00  0.00    +0.000 C 
ATOM     20  C   UNL     1       4.193   6.016  19.228  0.00  0.00    +0.000 C 
BRANCH  19  21
ATOM     21  C   UNL     1       5.365   4.987  17.187  0.00  0.00    +0.000 C 
BRANCH  21  22
ATOM     22  N   UNL     1       5.636   3.741  16.471  0.00  0.00    +0.000 NA
ATOM     23  H   UNL     1       4.764   3.346  16.118  0.00  0.00    +0.000 HD
BRANCH  22  24
ATOM     24  C   UNL     1       6.610   3.911  15.388  0.00  0.00    +0.000 C 
ATOM     25  C   UNL     1       6.113   3.895  13.970  0.00  0.00    +0.000 C 
ATOM     26  C   UNL     1       6.613   5.174  14.575  0.00  0.00    +0.000 C 
ENDBRANCH  22  24
ENDBRANCH  21  22
ENDBRANCH  19  21
ENDBRANCH   6  16
BRANCH   1  28
ATOM     27  O   UNL     1      -0.421  13.135  23.186  0.00  0.00    +0.000 OA
ATOM     28  C   UNL     1      -1.010  12.120  22.839  0.00  0.00    +0.000 C 
BRANCH  28  29
ATOM     29  O   UNL     1      -2.255  11.828  23.271  0.00  0.00    +0.000 OA
ATOM     30  H   UNL     1      -2.861  12.606  23.308  0.00  0.00    +0.000 HD
ENDBRANCH  28  29
ENDBRANCH   1  28
BRANCH  15  31
ATOM     31  C   UNL     1       2.311  12.207  18.840  0.00  0.00    +0.000 C 
ATOM     32  F   UNL     1       3.186  12.221  17.794  0.00  0.00    +0.000 F 
ENDBRANCH  15  31
TORSDOF 7
ENDMDL
MODEL 5
REMARK VINA RESULT:      -6.4      3.116      5.500
REMARK  Name = 
REMARK  7 active torsions:
REMARK  status: ('A' for Active; 'I' for Inactive)
REMARK    1  A    between atoms: C_2  and  O_3
REMARK    2  A    between atoms: C_2  and  C_4
REMARK    3  A    between atoms: C_9  and  N_10
REMARK    4  A    between atoms: C_13  and  C_14
REMARK    5  A    between atoms: C_14  and  N_15
REMARK    6  A    between atoms: N_15  and  C_16
REMARK    7  A    between atoms: C_28  and  C_29
REMARK                            x       y       z     vdW  Elec       q    Type
REMARK                         _______ _______ _______ _____ _____    ______ ____
ROOT
ATOM      1  C   UNL     1       0.942   8.031  20.967  0.00  0.00    +0.000 A 
ATOM      2  C   UNL     1       1.305   6.786  21.297  0.00  0.00    +0.000 A 
ATOM      3  N   UNL     1       2.162   5.966  20.580  0.00  0.00    +0.000 N 
ATOM      4  C   UNL     1       2.718   6.428  19.372  0.00  0.00    +0.000 A 
ATOM      5  C   UNL     1       3.536   5.634  18.556  0.00  0.00    +0.000 A 
ATOM      6  C   UNL     1       4.078   6.108  17.324  0.00  0.00    +0.000 A 
ATOM      7  C   UNL     1       3.808   7.453  16.996  0.00  0.00    +0.000 A 
ATOM      8  F   UNL     1       4.284   7.984  15.857  0.00  0.00    +0.000 F 
ATOM      9  C   UNL     1       3.002   8.265  17.780  0.00  0.00    +0.000 A 
ATOM     10  C   UNL     1       2.456   7.747  18.952  0.00  0.00    +0.000 A 
ATOM     11  C   UNL     1       1.550   8.603  19.759  0.00  0.00    +0.000 A 
ATOM     12  O   UNL     1       1.298   9.755  19.417  0.00  0.00    +0.000 OA
ATOM     13  O   UNL     1       3.892   4.365  18.916  0.00  0.00    +0.000 OA
ATOM     14  C   UNL     1       3.461   3.833  20.157  0.00  0.00    +0.000 C 
ATOM     15  C   UNL     1       2.318   4.532  20.897  0.00  0.00    +0.000 C 
ENDROOT
BRANCH   6  16
ATOM     16  N   UNL     1       4.823   5.325  16.455  0.00  0.00    +0.000 N 
ATOM     17  C   UNL     1       4.514   3.954  16.060  0.00  0.00    +0.000 C 
ATOM     18  C   UNL     1       5.878   3.283  16.095  0.00  0.00    +0.000 C 
ATOM     19  C   UNL     1       6.825   4.368  15.570  0.00  0.00    +0.000 C 
ATOM     20  C   UNL     1       6.211   5.673  16.118  0.00  0.00    +0.000 C 
BRANCH  19  21
ATOM     21  C   UNL     1       6.913   4.344  14.035  0.00  0.00    +0.000 C 
BRANCH  21  22
ATOM     22  N   UNL     1       6.293   3.134  13.492  0.00  0.00    +0.000 NA
ATOM     23  H   UNL     1       5.467   2.891  14.041  0.00  0.00    +0.000 HD
BRANCH  22  24
ATOM     24  C   UNL     1       5.960   3.259  12.070  0.00  0.00    +0.000 C 
ATOM     25  C   UNL     1       5.465   2.040  11.343  0.00  0.00    +0.000 C 
ATOM     26  C   UNL     1       4.526   3.176  11.628  0.00  0.00    +0.000 C 
ENDBRANCH  22  24
ENDBRANCH  21  22
ENDBRANCH  19  21
ENDBRANCH   6  16
BRANCH   1  28
ATOM     27  O   UNL     1      -1.140   8.247  22.093  0.00  0.00    +0.000 OA
ATOM     28  C   UNL     1      -0.060   8.736  21.791  0.00  0.00    +0.000 C 
BRANCH  28  29
ATOM     29  O   UNL     1       0.296   9.982  22.170  0.00  0.00    +0.000 OA
ATOM     30  H   UNL     1       0.801  10.482  21.485  0.00  0.00    +0.000 HD
ENDBRANCH  28  29
ENDBRANCH   1  28
BRANCH  15  31
ATOM     31  C   UNL     1       1.006   3.767  20.696  0.00  0.00    +0.000 C 
ATOM     32  F   UNL     1       1.110   2.539  21.279  0.00  0.00    +0.000 F 
ENDBRANCH  15  31
TORSDOF 7
ENDMDL
MODEL 6
REMARK VINA RESULT:      -6.3      3.392      7.920
REMARK  Name = 
REMARK  7 active torsions:
REMARK  status: ('A' for Active; 'I' for Inactive)
REMARK    1  A    between atoms: C_2  and  O_3
REMARK    2  A    between atoms: C_2  and  C_4
REMARK    3  A    between atoms: C_9  and  N_10
REMARK    4  A    between atoms: C_13  and  C_14
REMARK    5  A    between atoms: C_14  and  N_15
REMARK    6  A    between atoms: N_15  and  C_16
REMARK    7  A    between atoms: C_28  and  C_29
REMARK                            x       y       z     vdW  Elec       q    Type
REMARK                         _______ _______ _______ _____ _____    ______ ____
ROOT
ATOM      1  C   UNL     1       4.363   2.812  19.685  0.00  0.00    +0.000 A 
ATOM      2  C   UNL     1       4.974   3.581  18.777  0.00  0.00    +0.000 A 
ATOM      3  N   UNL     1       4.647   4.891  18.460  0.00  0.00    +0.000 N 
ATOM      4  C   UNL     1       3.566   5.514  19.111  0.00  0.00    +0.000 A 
ATOM      5  C   UNL     1       3.131   6.809  18.797  0.00  0.00    +0.000 A 
ATOM      6  C   UNL     1       2.021   7.423  19.451  0.00  0.00    +0.000 A 
ATOM      7  C   UNL     1       1.419   6.685  20.491  0.00  0.00    +0.000 A 
ATOM      8  F   UNL     1       0.372   7.189  21.165  0.00  0.00    +0.000 F 
ATOM      9  C   UNL     1       1.824   5.402  20.827  0.00  0.00    +0.000 A 
ATOM     10  C   UNL     1       2.883   4.823  20.131  0.00  0.00    +0.000 A 
ATOM     11  C   UNL     1       3.277   3.428  20.457  0.00  0.00    +0.000 A 
ATOM     12  O   UNL     1       2.698   2.798  21.337  0.00  0.00    +0.000 OA
ATOM     13  O   UNL     1       3.773   7.574  17.865  0.00  0.00    +0.000 OA
ATOM     14  C   UNL     1       4.929   7.077  17.214  0.00  0.00    +0.000 C 
ATOM     15  C   UNL     1       5.224   5.577  17.287  0.00  0.00    +0.000 C 
ENDROOT
BRANCH   6  16
ATOM     16  N   UNL     1       1.515   8.668  19.110  0.00  0.00    +0.000 N 
ATOM     17  C   UNL     1       1.589   9.290  17.791  0.00  0.00    +0.000 C 
ATOM     18  C   UNL     1       1.930  10.734  18.123  0.00  0.00    +0.000 C 
ATOM     19  C   UNL     1       1.129  11.008  19.399  0.00  0.00    +0.000 C 
ATOM     20  C   UNL     1       1.165   9.656  20.141  0.00  0.00    +0.000 C 
BRANCH  19  21
ATOM     21  C   UNL     1      -0.299  11.478  19.077  0.00  0.00    +0.000 C 
BRANCH  21  22
ATOM     22  N   UNL     1      -1.187  11.285  20.224  0.00  0.00    +0.000 NA
ATOM     23  H   UNL     1      -1.257  10.291  20.446  0.00  0.00    +0.000 HD
BRANCH  22  24
ATOM     24  C   UNL     1      -0.769  12.056  21.400  0.00  0.00    +0.000 C 
ATOM     25  C   UNL     1      -1.833  12.610  22.305  0.00  0.00    +0.000 C 
ATOM     26  C   UNL     1      -0.959  11.484  22.776  0.00  0.00    +0.000 C 
ENDBRANCH  22  24
ENDBRANCH  21  22
ENDBRANCH  19  21
ENDBRANCH   6  16
BRANCH   1  28
ATOM     27  O   UNL     1       5.411   0.987  20.790  0.00  0.00    +0.000 OA
ATOM     28  C   UNL     1       4.772   1.401  19.832  0.00  0.00    +0.000 C 
BRANCH  28  29
ATOM     29  O   UNL     1       4.407   0.597  18.810  0.00  0.00    +0.000 OA
ATOM     30  H   UNL     1       4.457   1.027  17.923  0.00  0.00    +0.000 HD
ENDBRANCH  28  29
ENDBRANCH   1  28
BRANCH  15  31
ATOM     31  C   UNL     1       4.817   4.890  15.979  0.00  0.00    +0.000 C 
ATOM     32  F   UNL     1       5.788   4.003  15.619  0.00  0.00    +0.000 F 
ENDBRANCH  15  31
TORSDOF 7
ENDMDL
MODEL 7
REMARK VINA RESULT:      -6.3      3.528      7.836
REMARK  Name = 
REMARK  7 active torsions:
REMARK  status: ('A' for Active; 'I' for Inactive)
REMARK    1  A    between atoms: C_2  and  O_3
REMARK    2  A    between atoms: C_2  and  C_4
REMARK    3  A    between atoms: C_9  and  N_10
REMARK    4  A    between atoms: C_13  and  C_14
REMARK    5  A    between atoms: C_14  and  N_15
REMARK    6  A    between atoms: N_15  and  C_16
REMARK    7  A    between atoms: C_28  and  C_29
REMARK                            x       y       z     vdW  Elec       q    Type
REMARK                         _______ _______ _______ _____ _____    ______ ____
ROOT
ATOM      1  C   UNL     1       4.367   2.832  19.695  0.00  0.00    +0.000 A 
ATOM      2  C   UNL     1       4.969   3.597  18.779  0.00  0.00    +0.000 A 
ATOM      3  N   UNL     1       4.639   4.905  18.458  0.00  0.00    +0.000 N 
ATOM      4  C   UNL     1       3.563   5.530  19.115  0.00  0.00    +0.000 A 
ATOM      5  C   UNL     1       3.125   6.824  18.798  0.00  0.00    +0.000 A 
ATOM      6  C   UNL     1       2.019   7.440  19.458  0.00  0.00    +0.000 A 
ATOM      7  C   UNL     1       1.426   6.707  20.507  0.00  0.00    +0.000 A 
ATOM      8  F   UNL     1       0.384   7.213  21.187  0.00  0.00    +0.000 F 
ATOM      9  C   UNL     1       1.836   5.425  20.845  0.00  0.00    +0.000 A 
ATOM     10  C   UNL     1       2.889   4.844  20.144  0.00  0.00    +0.000 A 
ATOM     11  C   UNL     1       3.286   3.451  20.474  0.00  0.00    +0.000 A 
ATOM     12  O   UNL     1       2.715   2.825  21.361  0.00  0.00    +0.000 OA
ATOM     13  O   UNL     1       3.758   7.585  17.857  0.00  0.00    +0.000 OA
ATOM     14  C   UNL     1       4.909   7.085  17.199  0.00  0.00    +0.000 C 
ATOM     15  C   UNL     1       5.206   5.586  17.277  0.00  0.00    +0.000 C 
ENDROOT
BRANCH   6  16
ATOM     16  N   UNL     1       1.510   8.683  19.115  0.00  0.00    +0.000 N 
ATOM     17  C   UNL     1       1.545   9.285  17.785  0.00  0.00    +0.000 C 
ATOM     18  C   UNL     1       1.905  10.732  18.085  0.00  0.00    +0.000 C 
ATOM     19  C   UNL     1       1.145  11.029  19.382  0.00  0.00    +0.000 C 
ATOM     20  C   UNL     1       1.198   9.687  20.142  0.00  0.00    +0.000 C 
BRANCH  19  21
ATOM     21  C   UNL     1      -0.290  11.503  19.099  0.00  0.00    +0.000 C 
BRANCH  21  22
ATOM     22  N   UNL     1      -0.494  12.873  19.571  0.00  0.00    +0.000 NA
ATOM     23  H   UNL     1      -0.031  13.002  20.472  0.00  0.00    +0.000 HD
BRANCH  22  24
ATOM     24  C   UNL     1      -0.045  13.878  18.603  0.00  0.00    +0.000 C 
ATOM     25  C   UNL     1      -0.218  15.330  18.949  0.00  0.00    +0.000 C 
ATOM     26  C   UNL     1       1.156  14.727  18.909  0.00  0.00    +0.000 C 
ENDBRANCH  22  24
ENDBRANCH  21  22
ENDBRANCH  19  21
ENDBRANCH   6  16
BRANCH   1  28
ATOM     27  O   UNL     1       5.428   1.014  20.799  0.00  0.00    +0.000 OA
ATOM     28  C   UNL     1       4.778   1.421  19.846  0.00  0.00    +0.000 C 
BRANCH  28  29
ATOM     29  O   UNL     1       4.401   0.612  18.833  0.00  0.00    +0.000 OA
ATOM     30  H   UNL     1       4.429   1.040  17.944  0.00  0.00    +0.000 HD
ENDBRANCH  28  29
ENDBRANCH   1  28
BRANCH  15  31
ATOM     31  C   UNL     1       4.788   4.892  15.976  0.00  0.00    +0.000 C 
ATOM     32  F   UNL     1       5.897   4.662  15.216  0.00  0.00    +0.000 F 
ENDBRANCH  15  31
TORSDOF 7
ENDMDL
MODEL 8
REMARK VINA RESULT:      -6.2      3.201      8.333
REMARK  Name = 
REMARK  7 active torsions:
REMARK  status: ('A' for Active; 'I' for Inactive)
REMARK    1  A    between atoms: C_2  and  O_3
REMARK    2  A    between atoms: C_2  and  C_4
REMARK    3  A    between atoms: C_9  and  N_10
REMARK    4  A    between atoms: C_13  and  C_14
REMARK    5  A    between atoms: C_14  and  N_15
REMARK    6  A    between atoms: N_15  and  C_16
REMARK    7  A    between atoms: C_28  and  C_29
REMARK                            x       y       z     vdW  Elec       q    Type
REMARK                         _______ _______ _______ _____ _____    ______ ____
ROOT
ATOM      1  C   UNL     1       5.219   4.794  16.214  0.00  0.00    +0.000 A 
ATOM      2  C   UNL     1       4.555   4.059  17.113  0.00  0.00    +0.000 A 
ATOM      3  N   UNL     1       3.635   4.529  18.038  0.00  0.00    +0.000 N 
ATOM      4  C   UNL     1       3.349   5.906  18.094  0.00  0.00    +0.000 A 
ATOM      5  C   UNL     1       2.486   6.467  19.045  0.00  0.00    +0.000 A 
ATOM      6  C   UNL     1       2.218   7.868  19.104  0.00  0.00    +0.000 A 
ATOM      7  C   UNL     1       2.814   8.663  18.103  0.00  0.00    +0.000 A 
ATOM      8  F   UNL     1       2.612   9.991  18.078  0.00  0.00    +0.000 F 
ATOM      9  C   UNL     1       3.674   8.140  17.148  0.00  0.00    +0.000 A 
ATOM     10  C   UNL     1       3.943   6.774  17.156  0.00  0.00    +0.000 A 
ATOM     11  C   UNL     1       4.907   6.228  16.166  0.00  0.00    +0.000 A 
ATOM     12  O   UNL     1       5.444   6.959  15.339  0.00  0.00    +0.000 OA
ATOM     13  O   UNL     1       1.819   5.693  19.953  0.00  0.00    +0.000 OA
ATOM     14  C   UNL     1       1.965   4.284  19.926  0.00  0.00    +0.000 C 
ATOM     15  C   UNL     1       3.131   3.682  19.138  0.00  0.00    +0.000 C 
ENDROOT
BRANCH   6  16
ATOM     16  N   UNL     1       1.434   8.464  20.080  0.00  0.00    +0.000 N 
ATOM     17  C   UNL     1       1.171   7.929  21.412  0.00  0.00    +0.000 C 
ATOM     18  C   UNL     1      -0.311   8.213  21.597  0.00  0.00    +0.000 C 
ATOM     19  C   UNL     1      -0.501   9.578  20.928  0.00  0.00    +0.000 C 
ATOM     20  C   UNL     1       0.485   9.536  19.743  0.00  0.00    +0.000 C 
BRANCH  19  21
ATOM     21  C   UNL     1      -0.215  10.729  21.907  0.00  0.00    +0.000 C 
BRANCH  21  22
ATOM     22  N   UNL     1       0.954  11.500  21.484  0.00  0.00    +0.000 NA
ATOM     23  H   UNL     1       1.492  10.968  20.800  0.00  0.00    +0.000 HD
BRANCH  22  24
ATOM     24  C   UNL     1       0.600  12.822  20.958  0.00  0.00    +0.000 C 
ATOM     25  C   UNL     1       1.635  13.911  21.006  0.00  0.00    +0.000 C 
ATOM     26  C   UNL     1       1.233  13.317  19.688  0.00  0.00    +0.000 C 
ENDBRANCH  22  24
ENDBRANCH  21  22
ENDBRANCH  19  21
ENDBRANCH   6  16
BRANCH   1  28
ATOM     27  O   UNL     1       5.975   3.291  14.535  0.00  0.00    +0.000 OA
ATOM     28  C   UNL     1       6.240   4.150  15.364  0.00  0.00    +0.000 C 
BRANCH  28  29
ATOM     29  O   UNL     1       7.505   4.567  15.588  0.00  0.00    +0.000 OA
ATOM     30  H   UNL     1       7.734   4.664  16.543  0.00  0.00    +0.000 HD
ENDBRANCH  28  29
ENDBRANCH   1  28
BRANCH  15  31
ATOM     31  C   UNL     1       4.260   3.269  20.089  0.00  0.00    +0.000 C 
ATOM     32  F   UNL     1       4.619   1.981  19.822  0.00  0.00    +0.000 F 
ENDBRANCH  15  31
TORSDOF 7
ENDMDL
MODEL 9
REMARK VINA RESULT:      -6.2      3.204      8.775
REMARK  Name = 
REMARK  7 active torsions:
REMARK  status: ('A' for Active; 'I' for Inactive)
REMARK    1  A    between atoms: C_2  and  O_3
REMARK    2  A    between atoms: C_2  and  C_4
REMARK    3  A    between atoms: C_9  and  N_10
REMARK    4  A    between atoms: C_13  and  C_14
REMARK    5  A    between atoms: C_14  and  N_15
REMARK    6  A    between atoms: N_15  and  C_16
REMARK    7  A    between atoms: C_28  and  C_29
REMARK                            x       y       z     vdW  Elec       q    Type
REMARK                         _______ _______ _______ _____ _____    ______ ____
ROOT
ATOM      1  C   UNL     1       5.317   4.759  16.439  0.00  0.00    +0.000 A 
ATOM      2  C   UNL     1       4.625   4.060  17.345  0.00  0.00    +0.000 A 
ATOM      3  N   UNL     1       3.672   4.565  18.216  0.00  0.00    +0.000 N 
ATOM      4  C   UNL     1       3.378   5.942  18.202  0.00  0.00    +0.000 A 
ATOM      5  C   UNL     1       2.479   6.538  19.098  0.00  0.00    +0.000 A 
ATOM      6  C   UNL     1       2.205   7.939  19.086  0.00  0.00    +0.000 A 
ATOM      7  C   UNL     1       2.833   8.693  18.074  0.00  0.00    +0.000 A 
ATOM      8  F   UNL     1       2.626  10.018  17.985  0.00  0.00    +0.000 F 
ATOM      9  C   UNL     1       3.727   8.134  17.173  0.00  0.00    +0.000 A 
ATOM     10  C   UNL     1       4.002   6.771  17.249  0.00  0.00    +0.000 A 
ATOM     11  C   UNL     1       5.001   6.189  16.318  0.00  0.00    +0.000 A 
ATOM     12  O   UNL     1       5.565   6.886  15.480  0.00  0.00    +0.000 OA
ATOM     13  O   UNL     1       1.785   5.801  20.014  0.00  0.00    +0.000 OA
ATOM     14  C   UNL     1       1.937   4.392  20.053  0.00  0.00    +0.000 C 
ATOM     15  C   UNL     1       3.132   3.764  19.333  0.00  0.00    +0.000 C 
ENDROOT
BRANCH   6  16
ATOM     16  N   UNL     1       1.385   8.573  20.008  0.00  0.00    +0.000 N 
ATOM     17  C   UNL     1       1.245   8.216  21.416  0.00  0.00    +0.000 C 
ATOM     18  C   UNL     1      -0.255   8.335  21.641  0.00  0.00    +0.000 C 
ATOM     19  C   UNL     1      -0.650   9.548  20.793  0.00  0.00    +0.000 C 
ATOM     20  C   UNL     1       0.289   9.452  19.573  0.00  0.00    +0.000 C 
BRANCH  19  21
ATOM     21  C   UNL     1      -0.484  10.861  21.576  0.00  0.00    +0.000 C 
BRANCH  21  22
ATOM     22  N   UNL     1      -1.417  11.881  21.095  0.00  0.00    +0.000 NA
ATOM     23  H   UNL     1      -2.142  11.446  20.523  0.00  0.00    +0.000 HD
BRANCH  22  24
ATOM     24  C   UNL     1      -2.008  12.666  22.183  0.00  0.00    +0.000 C 
ATOM     25  C   UNL     1      -3.505  12.706  22.304  0.00  0.00    +0.000 C 
ATOM     26  C   UNL     1      -2.690  11.967  23.325  0.00  0.00    +0.000 C 
ENDBRANCH  22  24
ENDBRANCH  21  22
ENDBRANCH  19  21
ENDBRANCH   6  16
BRANCH   1  28
ATOM     27  O   UNL     1       7.565   4.259  15.852  0.00  0.00    +0.000 OA
ATOM     28  C   UNL     1       6.371   4.086  15.654  0.00  0.00    +0.000 C 
BRANCH  28  29
ATOM     29  O   UNL     1       5.914   3.275  14.675  0.00  0.00    +0.000 OA
ATOM     30  H   UNL     1       5.354   3.732  14.002  0.00  0.00    +0.000 HD
ENDBRANCH  28  29
ENDBRANCH   1  28
BRANCH  15  31
ATOM     31  C   UNL     1       4.228   3.397  20.340  0.00  0.00    +0.000 C 
ATOM     32  F   UNL     1       4.621   2.110  20.123  0.00  0.00    +0.000 F 
ENDBRANCH  15  31
TORSDOF 7
ENDMDL
