MODEL 1
REMARK VINA RESULT:      -9.0      0.000      0.000
REMARK  Name = 
REMARK  6 active torsions:
REMARK  status: ('A' for Active; 'I' for Inactive)
REMARK    1  A    between atoms: C_2  and  C_3
REMARK    2  A    between atoms: C_3  and  N_4
REMARK    3  A    between atoms: C_6  and  C_7
REMARK    4  A    between atoms: N_8  and  N_9
REMARK    5  A    between atoms: C_10  and  C_12
REMARK    6  A    between atoms: N_25  and  C_26
REMARK                            x       y       z     vdW  Elec       q    Type
REMARK                         _______ _______ _______ _____ _____    ______ ____
ROOT
ATOM      1  N   UNL     1       4.682   4.864  19.136  0.00  0.00    +0.000 N 
ATOM      2  C   UNL     1       4.198   6.137  19.283  0.00  0.00    +0.000 A 
ATOM      3  C   UNL     1       2.831   6.079  19.469  0.00  0.00    +0.000 A 
ATOM      4  C   UNL     1       2.470   4.695  19.417  0.00  0.00    +0.000 A 
ATOM      5  C   UNL     1       1.246   3.996  19.519  0.00  0.00    +0.000 A 
ATOM      6  C   UNL     1       1.238   2.597  19.470  0.00  0.00    +0.000 A 
ATOM      7  C   UNL     1       2.427   1.887  19.346  0.00  0.00    +0.000 A 
ATOM      8  C   UNL     1       3.652   2.551  19.247  0.00  0.00    +0.000 A 
ATOM      9  C   UNL     1       3.650   3.955  19.260  0.00  0.00    +0.000 A 
ENDROOT
BRANCH   3  10
ATOM     10  C   UNL     1       1.968   7.223  19.696  0.00  0.00    +0.000 C 
ATOM     11  N   UNL     1       1.428   7.391  20.862  0.00  0.00    +0.000 NA
BRANCH  11  12
ATOM     12  N   UNL     1       0.635   8.497  21.001  0.00  0.00    +0.000 N 
ATOM     13  C   UNL     1       0.927   9.458  21.953  0.00  0.00    +0.000 C 
ATOM     14  O   UNL     1       1.826   9.362  22.785  0.00  0.00    +0.000 OA
ATOM     15  H   UNL     1      -0.116   8.651  20.334  0.00  0.00    +0.000 HD
BRANCH  13  16
ATOM     16  C   UNL     1       0.050  10.667  21.984  0.00  0.00    +0.000 A 
ATOM     17  C   UNL     1      -0.918  10.702  23.015  0.00  0.00    +0.000 A 
ATOM     18  C   UNL     1      -1.782  11.790  23.156  0.00  0.00    +0.000 A 
ATOM     19  C   UNL     1      -1.692  12.866  22.280  0.00  0.00    +0.000 A 
ATOM     20  C   UNL     1      -0.740  12.853  21.263  0.00  0.00    +0.000 A 
ATOM     21  C   UNL     1       0.131  11.763  21.107  0.00  0.00    +0.000 A 
ATOM     22 BR   UNL     1       1.399  11.929  19.697  0.00  0.00    +0.000 Br
ENDBRANCH  13  16
ENDBRANCH  11  12
ENDBRANCH   3  10
BRANCH   1  23
ATOM     23  C   UNL     1       6.101   4.551  19.032  0.00  0.00    +0.000 C 
BRANCH  23  25
ATOM     24  O   UNL     1       7.984   4.639  17.618  0.00  0.00    +0.000 OA
ATOM     25  C   UNL     1       6.751   4.578  17.660  0.00  0.00    +0.000 C 
ATOM     26  N   UNL     1       5.938   4.546  16.543  0.00  0.00    +0.000 N 
ATOM     27  H   UNL     1       4.949   4.720  16.676  0.00  0.00    +0.000 HD
BRANCH  26  28
ATOM     28  C   UNL     1       6.381   4.479  15.198  0.00  0.00    +0.000 A 
ATOM     29  C   UNL     1       7.398   5.291  14.676  0.00  0.00    +0.000 A 
ATOM     30  C   UNL     1       7.704   5.265  13.312  0.00  0.00    +0.000 A 
ATOM     31  C   UNL     1       7.013   4.405  12.473  0.00  0.00    +0.000 A 
ATOM     32  F   UNL     1       7.270   4.413  11.158  0.00  0.00    +0.000 F 
ATOM     33  C   UNL     1       6.055   3.536  12.981  0.00  0.00    +0.000 A 
ATOM     34  C   UNL     1       5.749   3.563  14.347  0.00  0.00    +0.000 A 
ENDBRANCH  26  28
ENDBRANCH  23  25
ENDBRANCH   1  23
TORSDOF 6
ENDMDL
MODEL 2
REMARK VINA RESULT:      -8.9      1.580      1.732
REMARK  Name = 
REMARK  6 active torsions:
REMARK  status: ('A' for Active; 'I' for Inactive)
REMARK    1  A    between atoms: C_2  and  C_3
REMARK    2  A    between atoms: C_3  and  N_4
REMARK    3  A    between atoms: C_6  and  C_7
REMARK    4  A    between atoms: N_8  and  N_9
REMARK    5  A    between atoms: C_10  and  C_12
REMARK    6  A    between atoms: N_25  and  C_26
REMARK                            x       y       z     vdW  Elec       q    Type
REMARK                         _______ _______ _______ _____ _____    ______ ____
ROOT
ATOM      1  N   UNL     1       4.818   4.643  18.867  0.00  0.00    +0.000 N 
ATOM      2  C   UNL     1       4.324   5.845  19.298  0.00  0.00    +0.000 A 
ATOM      3  C   UNL     1       2.950   5.753  19.407  0.00  0.00    +0.000 A 
ATOM      4  C   UNL     1       2.597   4.425  19.003  0.00  0.00    +0.000 A 
ATOM      5  C   UNL     1       1.373   3.731  18.881  0.00  0.00    +0.000 A 
ATOM      6  C   UNL     1       1.372   2.386  18.492  0.00  0.00    +0.000 A 
ATOM      7  C   UNL     1       2.568   1.719  18.250  0.00  0.00    +0.000 A 
ATOM      8  C   UNL     1       3.794   2.379  18.368  0.00  0.00    +0.000 A 
ATOM      9  C   UNL     1       3.786   3.738  18.722  0.00  0.00    +0.000 A 
ENDROOT
BRANCH   3  10
ATOM     10  C   UNL     1       2.074   6.813  19.868  0.00  0.00    +0.000 C 
ATOM     11  N   UNL     1       2.091   7.959  19.266  0.00  0.00    +0.000 NA
BRANCH  11  12
ATOM     12  N   UNL     1       1.230   8.904  19.753  0.00  0.00    +0.000 N 
ATOM     13  C   UNL     1       0.997  10.073  19.051  0.00  0.00    +0.000 C 
ATOM     14  O   UNL     1       1.588  10.397  18.023  0.00  0.00    +0.000 OA
ATOM     15  H   UNL     1       0.692   8.696  20.589  0.00  0.00    +0.000 HD
BRANCH  13  16
ATOM     16  C   UNL     1      -0.014  11.015  19.621  0.00  0.00    +0.000 A 
ATOM     17  C   UNL     1       0.417  11.792  20.722  0.00  0.00    +0.000 A 
ATOM     18  C   UNL     1      -0.434  12.719  21.326  0.00  0.00    +0.000 A 
ATOM     19  C   UNL     1      -1.724  12.897  20.841  0.00  0.00    +0.000 A 
ATOM     20  C   UNL     1      -2.164  12.146  19.753  0.00  0.00    +0.000 A 
ATOM     21  C   UNL     1      -1.320  11.206  19.140  0.00  0.00    +0.000 A 
ATOM     22 BR   UNL     1      -2.064  10.302  17.639  0.00  0.00    +0.000 Br
ENDBRANCH  13  16
ENDBRANCH  11  12
ENDBRANCH   3  10
BRANCH   1  23
ATOM     23  C   UNL     1       6.242   4.355  18.750  0.00  0.00    +0.000 C 
BRANCH  23  25
ATOM     24  O   UNL     1       8.116   4.385  17.323  0.00  0.00    +0.000 OA
ATOM     25  C   UNL     1       6.883   4.410  17.375  0.00  0.00    +0.000 C 
ATOM     26  N   UNL     1       6.062   4.498  16.266  0.00  0.00    +0.000 N 
ATOM     27  H   UNL     1       5.089   4.736  16.419  0.00  0.00    +0.000 HD
BRANCH  26  28
ATOM     28  C   UNL     1       6.490   4.474  14.915  0.00  0.00    +0.000 A 
ATOM     29  C   UNL     1       7.502   5.301  14.408  0.00  0.00    +0.000 A 
ATOM     30  C   UNL     1       7.792   5.319  13.041  0.00  0.00    +0.000 A 
ATOM     31  C   UNL     1       7.091   4.486  12.182  0.00  0.00    +0.000 A 
ATOM     32  F   UNL     1       7.334   4.536  10.866  0.00  0.00    +0.000 F 
ATOM     33  C   UNL     1       6.139   3.602  12.673  0.00  0.00    +0.000 A 
ATOM     34  C   UNL     1       5.848   3.586  14.042  0.00  0.00    +0.000 A 
ENDBRANCH  26  28
ENDBRANCH  23  25
ENDBRANCH   1  23
TORSDOF 6
ENDMDL
MODEL 3
REMARK VINA RESULT:      -8.9      1.197      1.245
REMARK  Name = 
REMARK  6 active torsions:
REMARK  status: ('A' for Active; 'I' for Inactive)
REMARK    1  A    between atoms: C_2  and  C_3
REMARK    2  A    between atoms: C_3  and  N_4
REMARK    3  A    between atoms: C_6  and  C_7
REMARK    4  A    between atoms: N_8  and  N_9
REMARK    5  A    between atoms: C_10  and  C_12
REMARK    6  A    between atoms: N_25  and  C_26
REMARK                            x       y       z     vdW  Elec       q    Type
REMARK                         _______ _______ _______ _____ _____    ______ ____
ROOT
ATOM      1  N   UNL     1       4.602   4.697  18.969  0.00  0.00    +0.000 N 
ATOM      2  C   UNL     1       4.251   6.007  18.779  0.00  0.00    +0.000 A 
ATOM      3  C   UNL     1       2.972   6.203  19.262  0.00  0.00    +0.000 A 
ATOM      4  C   UNL     1       2.523   4.937  19.757  0.00  0.00    +0.000 A 
ATOM      5  C   UNL     1       1.322   4.485  20.348  0.00  0.00    +0.000 A 
ATOM      6  C   UNL     1       1.215   3.156  20.776  0.00  0.00    +0.000 A 
ATOM      7  C   UNL     1       2.289   2.283  20.647  0.00  0.00    +0.000 A 
ATOM      8  C   UNL     1       3.491   2.703  20.070  0.00  0.00    +0.000 A 
ATOM      9  C   UNL     1       3.579   4.027  19.609  0.00  0.00    +0.000 A 
ENDROOT
BRANCH   3  10
ATOM     10  C   UNL     1       2.265   7.470  19.270  0.00  0.00    +0.000 C 
ATOM     11  N   UNL     1       1.825   7.946  20.391  0.00  0.00    +0.000 NA
BRANCH  11  12
ATOM     12  N   UNL     1       1.177   9.149  20.319  0.00  0.00    +0.000 N 
ATOM     13  C   UNL     1      -0.022   9.344  20.979  0.00  0.00    +0.000 C 
ATOM     14  O   UNL     1      -0.636   8.465  21.582  0.00  0.00    +0.000 OA
ATOM     15  H   UNL     1       1.635   9.926  19.852  0.00  0.00    +0.000 HD
BRANCH  13  16
ATOM     16  C   UNL     1      -0.620  10.711  20.905  0.00  0.00    +0.000 A 
ATOM     17  C   UNL     1      -0.476  11.513  22.062  0.00  0.00    +0.000 A 
ATOM     18  C   UNL     1      -0.978  12.815  22.104  0.00  0.00    +0.000 A 
ATOM     19  C   UNL     1      -1.623  13.347  20.993  0.00  0.00    +0.000 A 
ATOM     20  C   UNL     1      -1.768  12.575  19.842  0.00  0.00    +0.000 A 
ATOM     21  C   UNL     1      -1.273  11.262  19.789  0.00  0.00    +0.000 A 
ATOM     22 BR   UNL     1      -1.515  10.368  18.126  0.00  0.00    +0.000 Br
ENDBRANCH  13  16
ENDBRANCH  11  12
ENDBRANCH   3  10
BRANCH   1  23
ATOM     23  C   UNL     1       5.928   4.170  18.675  0.00  0.00    +0.000 C 
BRANCH  23  25
ATOM     24  O   UNL     1       7.604   5.131  17.326  0.00  0.00    +0.000 OA
ATOM     25  C   UNL     1       6.552   4.485  17.327  0.00  0.00    +0.000 C 
ATOM     26  N   UNL     1       5.910   4.048  16.184  0.00  0.00    +0.000 N 
ATOM     27  H   UNL     1       4.953   3.727  16.275  0.00  0.00    +0.000 HD
BRANCH  26  28
ATOM     28  C   UNL     1       6.395   4.181  14.859  0.00  0.00    +0.000 A 
ATOM     29  C   UNL     1       7.420   5.066  14.494  0.00  0.00    +0.000 A 
ATOM     30  C   UNL     1       7.768   5.242  13.152  0.00  0.00    +0.000 A 
ATOM     31  C   UNL     1       7.112   4.511  12.174  0.00  0.00    +0.000 A 
ATOM     32  F   UNL     1       7.410   4.714  10.884  0.00  0.00    +0.000 F 
ATOM     33  C   UNL     1       6.148   3.572  12.518  0.00  0.00    +0.000 A 
ATOM     34  C   UNL     1       5.799   3.397  13.862  0.00  0.00    +0.000 A 
ENDBRANCH  26  28
ENDBRANCH  23  25
ENDBRANCH   1  23
TORSDOF 6
ENDMDL
MODEL 4
REMARK VINA RESULT:      -8.6      1.237      1.853
REMARK  Name = 
REMARK  6 active torsions:
REMARK  status: ('A' for Active; 'I' for Inactive)
REMARK    1  A    between atoms: C_2  and  C_3
REMARK    2  A    between atoms: C_3  and  N_4
REMARK    3  A    between atoms: C_6  and  C_7
REMARK    4  A    between atoms: N_8  and  N_9
REMARK    5  A    between atoms: C_10  and  C_12
REMARK    6  A    between atoms: N_25  and  C_26
REMARK                            x       y       z     vdW  Elec       q    Type
REMARK                         _______ _______ _______ _____ _____    ______ ____
ROOT
ATOM      1  N   UNL     1       4.730   5.027  18.915  0.00  0.00    +0.000 N 
ATOM      2  C   UNL     1       4.305   6.301  18.650  0.00  0.00    +0.000 A 
ATOM      3  C   UNL     1       2.982   6.421  19.030  0.00  0.00    +0.000 A 
ATOM      4  C   UNL     1       2.585   5.143  19.539  0.00  0.00    +0.000 A 
ATOM      5  C   UNL     1       1.377   4.626  20.057  0.00  0.00    +0.000 A 
ATOM      6  C   UNL     1       1.329   3.308  20.525  0.00  0.00    +0.000 A 
ATOM      7  C   UNL     1       2.468   2.510  20.508  0.00  0.00    +0.000 A 
ATOM      8  C   UNL     1       3.677   2.995  20.006  0.00  0.00    +0.000 A 
ATOM      9  C   UNL     1       3.709   4.306  19.503  0.00  0.00    +0.000 A 
ENDROOT
BRANCH   3  10
ATOM     10  C   UNL     1       2.191   7.635  18.939  0.00  0.00    +0.000 C 
ATOM     11  N   UNL     1       1.763   8.198  20.024  0.00  0.00    +0.000 NA
BRANCH  11  12
ATOM     12  N   UNL     1       1.033   9.343  19.856  0.00  0.00    +0.000 N 
ATOM     13  C   UNL     1       0.905  10.254  20.889  0.00  0.00    +0.000 C 
ATOM     14  O   UNL     1       1.334  10.079  22.028  0.00  0.00    +0.000 OA
ATOM     15  H   UNL     1       0.665   9.560  18.935  0.00  0.00    +0.000 HD
BRANCH  13  16
ATOM     16  C   UNL     1       0.152  11.510  20.593  0.00  0.00    +0.000 A 
ATOM     17  C   UNL     1       0.476  12.153  19.375  0.00  0.00    +0.000 A 
ATOM     18  C   UNL     1      -0.175  13.324  18.983  0.00  0.00    +0.000 A 
ATOM     19  C   UNL     1      -1.166  13.871  19.790  0.00  0.00    +0.000 A 
ATOM     20  C   UNL     1      -1.504  13.248  20.989  0.00  0.00    +0.000 A 
ATOM     21  C   UNL     1      -0.853  12.073  21.398  0.00  0.00    +0.000 A 
ATOM     22 BR   UNL     1      -1.470  11.330  23.038  0.00  0.00    +0.000 Br
ENDBRANCH  13  16
ENDBRANCH  11  12
ENDBRANCH   3  10
BRANCH   1  23
ATOM     23  C   UNL     1       6.107   4.587  18.739  0.00  0.00    +0.000 C 
BRANCH  23  25
ATOM     24  O   UNL     1       7.892   4.357  17.218  0.00  0.00    +0.000 OA
ATOM     25  C   UNL     1       6.672   4.514  17.332  0.00  0.00    +0.000 C 
ATOM     26  N   UNL     1       5.803   4.640  16.264  0.00  0.00    +0.000 N 
ATOM     27  H   UNL     1       4.870   4.985  16.455  0.00  0.00    +0.000 HD
BRANCH  26  28
ATOM     28  C   UNL     1       6.150   4.512  14.895  0.00  0.00    +0.000 A 
ATOM     29  C   UNL     1       5.490   3.653  14.005  0.00  0.00    +0.000 A 
ATOM     30  C   UNL     1       5.959   3.480  12.700  0.00  0.00    +0.000 A 
ATOM     31  C   UNL     1       7.071   4.188  12.273  0.00  0.00    +0.000 A 
ATOM     32  F   UNL     1       7.551   3.987  11.039  0.00  0.00    +0.000 F 
ATOM     33  C   UNL     1       7.694   5.103  13.113  0.00  0.00    +0.000 A 
ATOM     34  C   UNL     1       7.225   5.275  14.420  0.00  0.00    +0.000 A 
ENDBRANCH  26  28
ENDBRANCH  23  25
ENDBRANCH   1  23
TORSDOF 6
ENDMDL
MODEL 5
REMARK VINA RESULT:      -8.5      1.231      1.236
REMARK  Name = 
REMARK  6 active torsions:
REMARK  status: ('A' for Active; 'I' for Inactive)
REMARK    1  A    between atoms: C_2  and  C_3
REMARK    2  A    between atoms: C_3  and  N_4
REMARK    3  A    between atoms: C_6  and  C_7
REMARK    4  A    between atoms: N_8  and  N_9
REMARK    5  A    between atoms: C_10  and  C_12
REMARK    6  A    between atoms: N_25  and  C_26
REMARK                            x       y       z     vdW  Elec       q    Type
REMARK                         _______ _______ _______ _____ _____    ______ ____
ROOT
ATOM      1  N   UNL     1       4.062   4.717  18.816  0.00  0.00    +0.000 N 
ATOM      2  C   UNL     1       3.753   5.905  19.422  0.00  0.00    +0.000 A 
ATOM      3  C   UNL     1       2.490   5.814  19.972  0.00  0.00    +0.000 A 
ATOM      4  C   UNL     1       2.006   4.502  19.668  0.00  0.00    +0.000 A 
ATOM      5  C   UNL     1       0.800   3.816  19.934  0.00  0.00    +0.000 A 
ATOM      6  C   UNL     1       0.652   2.485  19.528  0.00  0.00    +0.000 A 
ATOM      7  C   UNL     1       1.693   1.822  18.887  0.00  0.00    +0.000 A 
ATOM      8  C   UNL     1       2.899   2.473  18.615  0.00  0.00    +0.000 A 
ATOM      9  C   UNL     1       3.026   3.820  18.992  0.00  0.00    +0.000 A 
ENDROOT
BRANCH   3  10
ATOM     10  C   UNL     1       1.828   6.862  20.727  0.00  0.00    +0.000 C 
ATOM     11  N   UNL     1       1.682   8.034  20.196  0.00  0.00    +0.000 NA
BRANCH  11  12
ATOM     12  N   UNL     1       1.040   8.965  20.965  0.00  0.00    +0.000 N 
ATOM     13  C   UNL     1       0.825  10.246  20.488  0.00  0.00    +0.000 C 
ATOM     14  O   UNL     1       1.256  10.671  19.418  0.00  0.00    +0.000 OA
ATOM     15  H   UNL     1       0.641   8.678  21.854  0.00  0.00    +0.000 HD
BRANCH  13  16
ATOM     16  C   UNL     1       0.052  11.174  21.368  0.00  0.00    +0.000 A 
ATOM     17  C   UNL     1      -0.806  10.560  22.312  0.00  0.00    +0.000 A 
ATOM     18  C   UNL     1      -1.565  11.325  23.199  0.00  0.00    +0.000 A 
ATOM     19  C   UNL     1      -1.478  12.712  23.171  0.00  0.00    +0.000 A 
ATOM     20  C   UNL     1      -0.633  13.334  22.254  0.00  0.00    +0.000 A 
ATOM     21  C   UNL     1       0.131  12.577  21.352  0.00  0.00    +0.000 A 
ATOM     22 BR   UNL     1       1.265  13.583  20.201  0.00  0.00    +0.000 Br
ENDBRANCH  13  16
ENDBRANCH  11  12
ENDBRANCH   3  10
BRANCH   1  23
ATOM     23  C   UNL     1       5.364   4.428  18.230  0.00  0.00    +0.000 C 
BRANCH  23  25
ATOM     24  O   UNL     1       5.166   5.906  16.406  0.00  0.00    +0.000 OA
ATOM     25  C   UNL     1       5.611   4.818  16.784  0.00  0.00    +0.000 C 
ATOM     26  N   UNL     1       6.303   3.938  15.971  0.00  0.00    +0.000 N 
ATOM     27  H   UNL     1       6.429   2.990  16.305  0.00  0.00    +0.000 HD
BRANCH  26  28
ATOM     28  C   UNL     1       6.690   4.182  14.630  0.00  0.00    +0.000 A 
ATOM     29  C   UNL     1       7.655   5.129  14.261  0.00  0.00    +0.000 A 
ATOM     30  C   UNL     1       7.902   5.410  12.914  0.00  0.00    +0.000 A 
ATOM     31  C   UNL     1       7.207   4.721  11.932  0.00  0.00    +0.000 A 
ATOM     32  F   UNL     1       7.407   5.023  10.643  0.00  0.00    +0.000 F 
ATOM     33  C   UNL     1       6.303   3.723  12.274  0.00  0.00    +0.000 A 
ATOM     34  C   UNL     1       6.055   3.443  13.622  0.00  0.00    +0.000 A 
ENDBRANCH  26  28
ENDBRANCH  23  25
ENDBRANCH   1  23
TORSDOF 6
ENDMDL
MODEL 6
REMARK VINA RESULT:      -8.5      1.600      1.816
REMARK  Name = 
REMARK  6 active torsions:
REMARK  status: ('A' for Active; 'I' for Inactive)
REMARK    1  A    between atoms: C_2  and  C_3
REMARK    2  A    between atoms: C_3  and  N_4
REMARK    3  A    between atoms: C_6  and  C_7
REMARK    4  A    between atoms: N_8  and  N_9
REMARK    5  A    between atoms: C_10  and  C_12
REMARK    6  A    between atoms: N_25  and  C_26
REMARK                            x       y       z     vdW  Elec       q    Type
REMARK                         _______ _______ _______ _____ _____    ______ ____
ROOT
ATOM      1  N   UNL     1       4.005   4.817  18.762  0.00  0.00    +0.000 N 
ATOM      2  C   UNL     1       3.745   6.086  19.206  0.00  0.00    +0.000 A 
ATOM      3  C   UNL     1       2.523   6.096  19.848  0.00  0.00    +0.000 A 
ATOM      4  C   UNL     1       2.011   4.761  19.774  0.00  0.00    +0.000 A 
ATOM      5  C   UNL     1       0.823   4.140  20.219  0.00  0.00    +0.000 A 
ATOM      6  C   UNL     1       0.641   2.766  20.023  0.00  0.00    +0.000 A 
ATOM      7  C   UNL     1       1.631   2.001  19.417  0.00  0.00    +0.000 A 
ATOM      8  C   UNL     1       2.819   2.587  18.972  0.00  0.00    +0.000 A 
ATOM      9  C   UNL     1       2.979   3.972  19.137  0.00  0.00    +0.000 A 
ENDROOT
BRANCH   3  10
ATOM     10  C   UNL     1       1.921   7.253  20.485  0.00  0.00    +0.000 C 
ATOM     11  N   UNL     1       1.722   8.329  19.791  0.00  0.00    +0.000 NA
BRANCH  11  12
ATOM     12  N   UNL     1       1.142   9.373  20.458  0.00  0.00    +0.000 N 
ATOM     13  C   UNL     1       0.073  10.056  19.905  0.00  0.00    +0.000 C 
ATOM     14  O   UNL     1      -0.368   9.858  18.774  0.00  0.00    +0.000 OA
ATOM     15  H   UNL     1       1.444   9.580  21.405  0.00  0.00    +0.000 HD
BRANCH  13  16
ATOM     16  C   UNL     1      -0.544  11.133  20.736  0.00  0.00    +0.000 A 
ATOM     17  C   UNL     1      -0.950  12.296  20.038  0.00  0.00    +0.000 A 
ATOM     18  C   UNL     1      -1.556  13.361  20.705  0.00  0.00    +0.000 A 
ATOM     19  C   UNL     1      -1.778  13.287  22.076  0.00  0.00    +0.000 A 
ATOM     20  C   UNL     1      -1.393  12.147  22.778  0.00  0.00    +0.000 A 
ATOM     21  C   UNL     1      -0.777  11.070  22.120  0.00  0.00    +0.000 A 
ATOM     22 BR   UNL     1      -0.358   9.575  23.221  0.00  0.00    +0.000 Br
ENDBRANCH  13  16
ENDBRANCH  11  12
ENDBRANCH   3  10
BRANCH   1  23
ATOM     23  C   UNL     1       5.261   4.425  18.138  0.00  0.00    +0.000 C 
BRANCH  23  25
ATOM     24  O   UNL     1       4.888   5.761  16.233  0.00  0.00    +0.000 OA
ATOM     25  C   UNL     1       5.487   4.778  16.678  0.00  0.00    +0.000 C 
ATOM     26  N   UNL     1       6.332   3.980  15.929  0.00  0.00    +0.000 N 
ATOM     27  H   UNL     1       6.596   3.081  16.316  0.00  0.00    +0.000 HD
BRANCH  26  28
ATOM     28  C   UNL     1       6.717   4.214  14.585  0.00  0.00    +0.000 A 
ATOM     29  C   UNL     1       7.683   5.157  14.208  0.00  0.00    +0.000 A 
ATOM     30  C   UNL     1       7.927   5.429  12.859  0.00  0.00    +0.000 A 
ATOM     31  C   UNL     1       7.227   4.737  11.884  0.00  0.00    +0.000 A 
ATOM     32  F   UNL     1       7.424   5.031  10.592  0.00  0.00    +0.000 F 
ATOM     33  C   UNL     1       6.321   3.743  12.233  0.00  0.00    +0.000 A 
ATOM     34  C   UNL     1       6.076   3.472  13.584  0.00  0.00    +0.000 A 
ENDBRANCH  26  28
ENDBRANCH  23  25
ENDBRANCH   1  23
TORSDOF 6
ENDMDL
MODEL 7
REMARK VINA RESULT:      -8.5      1.001      1.309
REMARK  Name = 
REMARK  6 active torsions:
REMARK  status: ('A' for Active; 'I' for Inactive)
REMARK    1  A    between atoms: C_2  and  C_3
REMARK    2  A    between atoms: C_3  and  N_4
REMARK    3  A    between atoms: C_6  and  C_7
REMARK    4  A    between atoms: N_8  and  N_9
REMARK    5  A    between atoms: C_10  and  C_12
REMARK    6  A    between atoms: N_25  and  C_26
REMARK                            x       y       z     vdW  Elec       q    Type
REMARK                         _______ _______ _______ _____ _____    ______ ____
ROOT
ATOM      1  N   UNL     1       4.162   5.273  19.004  0.00  0.00    +0.000 N 
ATOM      2  C   UNL     1       3.630   6.535  18.988  0.00  0.00    +0.000 A 
ATOM      3  C   UNL     1       2.405   6.513  19.626  0.00  0.00    +0.000 A 
ATOM      4  C   UNL     1       2.182   5.160  20.036  0.00  0.00    +0.000 A 
ATOM      5  C   UNL     1       1.128   4.500  20.707  0.00  0.00    +0.000 A 
ATOM      6  C   UNL     1       1.240   3.137  21.006  0.00  0.00    +0.000 A 
ATOM      7  C   UNL     1       2.391   2.432  20.672  0.00  0.00    +0.000 A 
ATOM      8  C   UNL     1       3.451   3.059  20.012  0.00  0.00    +0.000 A 
ATOM      9  C   UNL     1       3.316   4.417  19.681  0.00  0.00    +0.000 A 
ENDROOT
BRANCH   3  10
ATOM     10  C   UNL     1       1.552   7.668  19.840  0.00  0.00    +0.000 C 
ATOM     11  N   UNL     1       1.167   7.959  21.042  0.00  0.00    +0.000 NA
BRANCH  11  12
ATOM     12  N   UNL     1       0.373   9.067  21.164  0.00  0.00    +0.000 N 
ATOM     13  C   UNL     1       0.453   9.870  22.288  0.00  0.00    +0.000 C 
ATOM     14  O   UNL     1       1.142   9.619  23.275  0.00  0.00    +0.000 OA
ATOM     15  H   UNL     1      -0.208   9.344  20.379  0.00  0.00    +0.000 HD
BRANCH  13  16
ATOM     16  C   UNL     1      -0.397  11.098  22.303  0.00  0.00    +0.000 A 
ATOM     17  C   UNL     1      -1.536  11.051  23.141  0.00  0.00    +0.000 A 
ATOM     18  C   UNL     1      -2.395  12.146  23.252  0.00  0.00    +0.000 A 
ATOM     19  C   UNL     1      -2.132  13.310  22.538  0.00  0.00    +0.000 A 
ATOM     20  C   UNL     1      -1.011  13.378  21.714  0.00  0.00    +0.000 A 
ATOM     21  C   UNL     1      -0.142  12.282  21.590  0.00  0.00    +0.000 A 
ATOM     22 BR   UNL     1       1.363  12.561  20.459  0.00  0.00    +0.000 Br
ENDBRANCH  13  16
ENDBRANCH  11  12
ENDBRANCH   3  10
BRANCH   1  23
ATOM     23  C   UNL     1       5.497   4.958  18.514  0.00  0.00    +0.000 C 
BRANCH  23  25
ATOM     24  O   UNL     1       5.105   3.331  16.856  0.00  0.00    +0.000 OA
ATOM     25  C   UNL     1       5.644   4.413  17.104  0.00  0.00    +0.000 C 
ATOM     26  N   UNL     1       6.376   5.143  16.186  0.00  0.00    +0.000 N 
ATOM     27  H   UNL     1       6.958   5.894  16.539  0.00  0.00    +0.000 HD
BRANCH  26  28
ATOM     28  C   UNL     1       6.539   4.823  14.815  0.00  0.00    +0.000 A 
ATOM     29  C   UNL     1       5.708   3.932  14.123  0.00  0.00    +0.000 A 
ATOM     30  C   UNL     1       5.996   3.563  12.806  0.00  0.00    +0.000 A 
ATOM     31  C   UNL     1       7.100   4.106  12.169  0.00  0.00    +0.000 A 
ATOM     32  F   UNL     1       7.406   3.716  10.924  0.00  0.00    +0.000 F 
ATOM     33  C   UNL     1       7.894   5.050  12.809  0.00  0.00    +0.000 A 
ATOM     34  C   UNL     1       7.605   5.419  14.128  0.00  0.00    +0.000 A 
ENDBRANCH  26  28
ENDBRANCH  23  25
ENDBRANCH   1  23
TORSDOF 6
ENDMDL
MODEL 8
REMARK VINA RESULT:      -8.5      5.388      8.631
REMARK  Name = 
REMARK  6 active torsions:
REMARK  status: ('A' for Active; 'I' for Inactive)
REMARK    1  A    between atoms: C_2  and  C_3
REMARK    2  A    between atoms: C_3  and  N_4
REMARK    3  A    between atoms: C_6  and  C_7
REMARK    4  A    between atoms: N_8  and  N_9
REMARK    5  A    between atoms: C_10  and  C_12
REMARK    6  A    between atoms: N_25  and  C_26
REMARK                            x       y       z     vdW  Elec       q    Type
REMARK                         _______ _______ _______ _____ _____    ______ ____
ROOT
ATOM      1  N   UNL     1       4.899   5.095  17.898  0.00  0.00    +0.000 N 
ATOM      2  C   UNL     1       5.720   5.926  18.612  0.00  0.00    +0.000 A 
ATOM      3  C   UNL     1       6.826   6.234  17.843  0.00  0.00    +0.000 A 
ATOM      4  C   UNL     1       6.668   5.536  16.603  0.00  0.00    +0.000 A 
ATOM      5  C   UNL     1       7.450   5.430  15.431  0.00  0.00    +0.000 A 
ATOM      6  C   UNL     1       6.978   4.682  14.346  0.00  0.00    +0.000 A 
ATOM      7  C   UNL     1       5.734   4.064  14.401  0.00  0.00    +0.000 A 
ATOM      8  C   UNL     1       4.937   4.155  15.544  0.00  0.00    +0.000 A 
ATOM      9  C   UNL     1       5.432   4.875  16.643  0.00  0.00    +0.000 A 
ENDROOT
BRANCH   3  10
ATOM     10  C   UNL     1       7.905   7.117  18.244  0.00  0.00    +0.000 C 
ATOM     11  N   UNL     1       7.864   8.366  17.902  0.00  0.00    +0.000 NA
BRANCH  11  12
ATOM     12  N   UNL     1       8.912   9.137  18.325  0.00  0.00    +0.000 N 
ATOM     13  C   UNL     1       8.859  10.516  18.221  0.00  0.00    +0.000 C 
ATOM     14  O   UNL     1       7.949  11.138  17.676  0.00  0.00    +0.000 OA
ATOM     15  H   UNL     1       9.690   8.691  18.802  0.00  0.00    +0.000 HD
BRANCH  13  16
ATOM     16  C   UNL     1      10.016  11.281  18.775  0.00  0.00    +0.000 A 
ATOM     17  C   UNL     1      11.039  11.609  17.853  0.00  0.00    +0.000 A 
ATOM     18  C   UNL     1      12.160  12.338  18.251  0.00  0.00    +0.000 A 
ATOM     19  C   UNL     1      12.282  12.762  19.570  0.00  0.00    +0.000 A 
ATOM     20  C   UNL     1      11.282  12.455  20.490  0.00  0.00    +0.000 A 
ATOM     21  C   UNL     1      10.151  11.717  20.104  0.00  0.00    +0.000 A 
ATOM     22 BR   UNL     1       8.862  11.428  21.474  0.00  0.00    +0.000 Br
ENDBRANCH  13  16
ENDBRANCH  11  12
ENDBRANCH   3  10
BRANCH   1  23
ATOM     23  C   UNL     1       3.589   4.663  18.367  0.00  0.00    +0.000 C 
BRANCH  23  25
ATOM     24  O   UNL     1       2.024   5.301  20.009  0.00  0.00    +0.000 OA
ATOM     25  C   UNL     1       2.687   5.683  19.040  0.00  0.00    +0.000 C 
ATOM     26  N   UNL     1       2.644   6.967  18.528  0.00  0.00    +0.000 N 
ATOM     27  H   UNL     1       3.044   7.121  17.611  0.00  0.00    +0.000 HD
BRANCH  26  28
ATOM     28  C   UNL     1       1.925   8.055  19.083  0.00  0.00    +0.000 A 
ATOM     29  C   UNL     1       1.525   9.177  18.345  0.00  0.00    +0.000 A 
ATOM     30  C   UNL     1       0.929  10.272  18.975  0.00  0.00    +0.000 A 
ATOM     31  C   UNL     1       0.704  10.236  20.343  0.00  0.00    +0.000 A 
ATOM     32  F   UNL     1       0.179  11.303  20.957  0.00  0.00    +0.000 F 
ATOM     33  C   UNL     1       1.022   9.103  21.082  0.00  0.00    +0.000 A 
ATOM     34  C   UNL     1       1.620   8.007  20.450  0.00  0.00    +0.000 A 
ENDBRANCH  26  28
ENDBRANCH  23  25
ENDBRANCH   1  23
TORSDOF 6
ENDMDL
MODEL 9
REMARK VINA RESULT:      -8.4      1.805      1.891
REMARK  Name = 
REMARK  6 active torsions:
REMARK  status: ('A' for Active; 'I' for Inactive)
REMARK    1  A    between atoms: C_2  and  C_3
REMARK    2  A    between atoms: C_3  and  N_4
REMARK    3  A    between atoms: C_6  and  C_7
REMARK    4  A    between atoms: N_8  and  N_9
REMARK    5  A    between atoms: C_10  and  C_12
REMARK    6  A    between atoms: N_25  and  C_26
REMARK                            x       y       z     vdW  Elec       q    Type
REMARK                         _______ _______ _______ _____ _____    ______ ____
ROOT
ATOM      1  N   UNL     1       4.564   4.598  19.086  0.00  0.00    +0.000 N 
ATOM      2  C   UNL     1       4.242   5.917  19.266  0.00  0.00    +0.000 A 
ATOM      3  C   UNL     1       2.897   6.014  19.567  0.00  0.00    +0.000 A 
ATOM      4  C   UNL     1       2.379   4.680  19.554  0.00  0.00    +0.000 A 
ATOM      5  C   UNL     1       1.097   4.124  19.764  0.00  0.00    +0.000 A 
ATOM      6  C   UNL     1       0.926   2.735  19.724  0.00  0.00    +0.000 A 
ATOM      7  C   UNL     1       2.012   1.895  19.505  0.00  0.00    +0.000 A 
ATOM      8  C   UNL     1       3.292   2.416  19.298  0.00  0.00    +0.000 A 
ATOM      9  C   UNL     1       3.450   3.812  19.302  0.00  0.00    +0.000 A 
ENDROOT
BRANCH   3  10
ATOM     10  C   UNL     1       2.192   7.248  19.860  0.00  0.00    +0.000 C 
ATOM     11  N   UNL     1       1.991   8.106  18.910  0.00  0.00    +0.000 NA
BRANCH  11  12
ATOM     12  N   UNL     1       1.310   9.239  19.262  0.00  0.00    +0.000 N 
ATOM     13  C   UNL     1       1.375  10.373  18.472  0.00  0.00    +0.000 C 
ATOM     14  O   UNL     1       2.094  10.490  17.481  0.00  0.00    +0.000 OA
ATOM     15  H   UNL     1       0.682   9.208  20.059  0.00  0.00    +0.000 HD
BRANCH  13  16
ATOM     16  C   UNL     1       0.542  11.540  18.893  0.00  0.00    +0.000 A 
ATOM     17  C   UNL     1      -0.774  11.238  19.318  0.00  0.00    +0.000 A 
ATOM     18  C   UNL     1      -1.639  12.244  19.752  0.00  0.00    +0.000 A 
ATOM     19  C   UNL     1      -1.209  13.566  19.781  0.00  0.00    +0.000 A 
ATOM     20  C   UNL     1       0.086  13.881  19.373  0.00  0.00    +0.000 A 
ATOM     21  C   UNL     1       0.964  12.879  18.929  0.00  0.00    +0.000 A 
ATOM     22 BR   UNL     1       2.708  13.478  18.455  0.00  0.00    +0.000 Br
ENDBRANCH  13  16
ENDBRANCH  11  12
ENDBRANCH   3  10
BRANCH   1  23
ATOM     23  C   UNL     1       5.924   4.127  18.864  0.00  0.00    +0.000 C 
BRANCH  23  25
ATOM     24  O   UNL     1       7.713   4.889  17.533  0.00  0.00    +0.000 OA
ATOM     25  C   UNL     1       6.578   4.402  17.522  0.00  0.00    +0.000 C 
ATOM     26  N   UNL     1       5.871   4.110  16.370  0.00  0.00    +0.000 N 
ATOM     27  H   UNL     1       4.879   3.927  16.461  0.00  0.00    +0.000 HD
BRANCH  26  28
ATOM     28  C   UNL     1       6.363   4.226  15.046  0.00  0.00    +0.000 A 
ATOM     29  C   UNL     1       7.409   5.084  14.679  0.00  0.00    +0.000 A 
ATOM     30  C   UNL     1       7.763   5.245  13.337  0.00  0.00    +0.000 A 
ATOM     31  C   UNL     1       7.093   4.525  12.360  0.00  0.00    +0.000 A 
ATOM     32  F   UNL     1       7.398   4.715  11.070  0.00  0.00    +0.000 F 
ATOM     33  C   UNL     1       6.105   3.611  12.707  0.00  0.00    +0.000 A 
ATOM     34  C   UNL     1       5.750   3.451  14.052  0.00  0.00    +0.000 A 
ENDBRANCH  26  28
ENDBRANCH  23  25
ENDBRANCH   1  23
TORSDOF 6
ENDMDL
