MODEL 1
REMARK VINA RESULT:      -7.3      0.000      0.000
REMARK  Name = 
REMARK  2 active torsions:
REMARK  status: ('A' for Active; 'I' for Inactive)
REMARK    1  A    between atoms: N_2  and  C_4
REMARK    2  A    between atoms: C_11  and  N_12
REMARK                            x       y       z     vdW  Elec       q    Type
REMARK                         _______ _______ _______ _____ _____    ______ ____
ROOT
ATOM      1  C   UNL     1       1.280   9.054  19.546  0.00  0.00    +0.000 A 
ATOM      2  C   UNL     1       0.621   8.739  20.738  0.00  0.00    +0.000 A 
ATOM      3  C   UNL     1       0.788   7.472  21.285  0.00  0.00    +0.000 A 
ATOM      4  C   UNL     1       1.600   6.522  20.649  0.00  0.00    +0.000 A 
ATOM      5  C   UNL     1       1.745   5.248  21.200  0.00  0.00    +0.000 A 
ATOM      6  C   UNL     1       2.543   4.286  20.578  0.00  0.00    +0.000 A 
ATOM      7  C   UNL     1       3.241   4.563  19.380  0.00  0.00    +0.000 A 
ATOM      8  C   UNL     1       4.065   3.639  18.682  0.00  0.00    +0.000 A 
ATOM      9  C   UNL     1       4.729   3.963  17.495  0.00  0.00    +0.000 A 
ATOM     10  C   UNL     1       4.590   5.241  16.971  0.00  0.00    +0.000 A 
ATOM     11  C   UNL     1       3.786   6.190  17.618  0.00  0.00    +0.000 A 
ATOM     12  C   UNL     1       3.652   7.467  17.075  0.00  0.00    +0.000 A 
ATOM     13  C   UNL     1       2.843   8.423  17.688  0.00  0.00    +0.000 A 
ATOM     14  C   UNL     1       2.130   8.137  18.874  0.00  0.00    +0.000 A 
ATOM     15  C   UNL     1       2.279   6.844  19.444  0.00  0.00    +0.000 A 
ATOM     16  C   UNL     1       3.103   5.861  18.820  0.00  0.00    +0.000 A 
ENDROOT
BRANCH   1  18
ATOM     17  O   UNL     1       1.778  11.293  19.409  0.00  0.00    +0.000 OA
ATOM     18  N   UNL     1       1.042  10.382  19.006  0.00  0.00    +0.000 N 
ATOM     19  O   UNL     1       0.104  10.514  18.210  0.00  0.00    +0.000 OA
ENDBRANCH   1  18
BRANCH   8  20
ATOM     20  N   UNL     1       4.252   2.282  19.173  0.00  0.00    +0.000 N 
ATOM     21  O   UNL     1       5.024   2.119  20.126  0.00  0.00    +0.000 OA
ATOM     22  O   UNL     1       3.646   1.381  18.576  0.00  0.00    +0.000 OA
ENDBRANCH   8  20
TORSDOF 2
ENDMDL
MODEL 2
REMARK VINA RESULT:      -7.3      0.096      6.570
REMARK  Name = 
REMARK  2 active torsions:
REMARK  status: ('A' for Active; 'I' for Inactive)
REMARK    1  A    between atoms: N_2  and  C_4
REMARK    2  A    between atoms: C_11  and  N_12
REMARK                            x       y       z     vdW  Elec       q    Type
REMARK                         _______ _______ _______ _____ _____    ______ ____
ROOT
ATOM      1  C   UNL     1       4.034   3.713  18.686  0.00  0.00    +0.000 A 
ATOM      2  C   UNL     1       4.705   4.023  17.499  0.00  0.00    +0.000 A 
ATOM      3  C   UNL     1       4.562   5.295  16.958  0.00  0.00    +0.000 A 
ATOM      4  C   UNL     1       3.754   6.252  17.590  0.00  0.00    +0.000 A 
ATOM      5  C   UNL     1       3.606   7.520  17.026  0.00  0.00    +0.000 A 
ATOM      6  C   UNL     1       2.800   8.483  17.636  0.00  0.00    +0.000 A 
ATOM      7  C   UNL     1       2.115   8.222  18.845  0.00  0.00    +0.000 A 
ATOM      8  C   UNL     1       1.272   9.144  19.522  0.00  0.00    +0.000 A 
ATOM      9  C   UNL     1       0.611   8.830  20.714  0.00  0.00    +0.000 A 
ATOM     10  C   UNL     1       0.785   7.570  21.270  0.00  0.00    +0.000 A 
ATOM     11  C   UNL     1       1.603   6.623  20.641  0.00  0.00    +0.000 A 
ATOM     12  C   UNL     1       1.762   5.360  21.211  0.00  0.00    +0.000 A 
ATOM     13  C   UNL     1       2.555   4.392  20.594  0.00  0.00    +0.000 A 
ATOM     14  C   UNL     1       3.222   4.650  19.376  0.00  0.00    +0.000 A 
ATOM     15  C   UNL     1       3.081   5.941  18.801  0.00  0.00    +0.000 A 
ATOM     16  C   UNL     1       2.269   6.934  19.425  0.00  0.00    +0.000 A 
ENDROOT
BRANCH   1  18
ATOM     17  O   UNL     1       5.013   2.190  20.101  0.00  0.00    +0.000 OA
ATOM     18  N   UNL     1       4.196   2.358  19.185  0.00  0.00    +0.000 N 
ATOM     19  O   UNL     1       3.532   1.466  18.641  0.00  0.00    +0.000 OA
ENDBRANCH   1  18
BRANCH   8  20
ATOM     20  N   UNL     1       1.042  10.479  18.991  0.00  0.00    +0.000 N 
ATOM     21  O   UNL     1       1.798  11.383  19.370  0.00  0.00    +0.000 OA
ATOM     22  O   UNL     1       0.081  10.620  18.222  0.00  0.00    +0.000 OA
ENDBRANCH   8  20
TORSDOF 2
ENDMDL
MODEL 3
REMARK VINA RESULT:      -7.1      2.186      3.407
REMARK  Name = 
REMARK  2 active torsions:
REMARK  status: ('A' for Active; 'I' for Inactive)
REMARK    1  A    between atoms: N_2  and  C_4
REMARK    2  A    between atoms: C_11  and  N_12
REMARK                            x       y       z     vdW  Elec       q    Type
REMARK                         _______ _______ _______ _____ _____    ______ ____
ROOT
ATOM      1  C   UNL     1       1.094   8.300  20.410  0.00  0.00    +0.000 A 
ATOM      2  C   UNL     1       1.216   9.366  19.513  0.00  0.00    +0.000 A 
ATOM      3  C   UNL     1       2.045   9.223  18.407  0.00  0.00    +0.000 A 
ATOM      4  C   UNL     1       2.752   8.030  18.195  0.00  0.00    +0.000 A 
ATOM      5  C   UNL     1       3.593   7.906  17.089  0.00  0.00    +0.000 A 
ATOM      6  C   UNL     1       4.311   6.730  16.865  0.00  0.00    +0.000 A 
ATOM      7  C   UNL     1       4.208   5.620  17.734  0.00  0.00    +0.000 A 
ATOM      8  C   UNL     1       4.909   4.393  17.580  0.00  0.00    +0.000 A 
ATOM      9  C   UNL     1       4.776   3.328  18.476  0.00  0.00    +0.000 A 
ATOM     10  C   UNL     1       3.918   3.461  19.561  0.00  0.00    +0.000 A 
ATOM     11  C   UNL     1       3.206   4.651  19.760  0.00  0.00    +0.000 A 
ATOM     12  C   UNL     1       2.354   4.770  20.858  0.00  0.00    +0.000 A 
ATOM     13  C   UNL     1       1.649   5.951  21.090  0.00  0.00    +0.000 A 
ATOM     14  C   UNL     1       1.770   7.065  20.230  0.00  0.00    +0.000 A 
ATOM     15  C   UNL     1       2.620   6.943  19.099  0.00  0.00    +0.000 A 
ATOM     16  C   UNL     1       3.346   5.739  18.857  0.00  0.00    +0.000 A 
ENDROOT
BRANCH   1  18
ATOM     17  O   UNL     1       0.733   9.132  22.521  0.00  0.00    +0.000 OA
ATOM     18  N   UNL     1       0.239   8.521  21.564  0.00  0.00    +0.000 N 
ATOM     19  O   UNL     1      -0.907   8.056  21.521  0.00  0.00    +0.000 OA
ENDBRANCH   1  18
BRANCH   8  20
ATOM     20  N   UNL     1       5.826   4.188  16.470  0.00  0.00    +0.000 N 
ATOM     21  O   UNL     1       5.340   3.857  15.380  0.00  0.00    +0.000 OA
ATOM     22  O   UNL     1       7.034   4.327  16.706  0.00  0.00    +0.000 OA
ENDBRANCH   8  20
TORSDOF 2
ENDMDL
MODEL 4
REMARK VINA RESULT:      -7.0      2.181      5.677
REMARK  Name = 
REMARK  2 active torsions:
REMARK  status: ('A' for Active; 'I' for Inactive)
REMARK    1  A    between atoms: N_2  and  C_4
REMARK    2  A    between atoms: C_11  and  N_12
REMARK                            x       y       z     vdW  Elec       q    Type
REMARK                         _______ _______ _______ _____ _____    ______ ____
ROOT
ATOM      1  C   UNL     1       4.913   4.342  17.589  0.00  0.00    +0.000 A 
ATOM      2  C   UNL     1       4.757   3.266  18.467  0.00  0.00    +0.000 A 
ATOM      3  C   UNL     1       3.900   3.401  19.552  0.00  0.00    +0.000 A 
ATOM      4  C   UNL     1       3.204   4.601  19.766  0.00  0.00    +0.000 A 
ATOM      5  C   UNL     1       2.359   4.729  20.869  0.00  0.00    +0.000 A 
ATOM      6  C   UNL     1       1.664   5.917  21.102  0.00  0.00    +0.000 A 
ATOM      7  C   UNL     1       1.776   7.027  20.233  0.00  0.00    +0.000 A 
ATOM      8  C   UNL     1       1.110   8.270  20.405  0.00  0.00    +0.000 A 
ATOM      9  C   UNL     1       1.263   9.340  19.517  0.00  0.00    +0.000 A 
ATOM     10  C   UNL     1       2.092   9.187  18.414  0.00  0.00    +0.000 A 
ATOM     11  C   UNL     1       2.775   7.983  18.200  0.00  0.00    +0.000 A 
ATOM     12  C   UNL     1       3.609   7.849  17.090  0.00  0.00    +0.000 A 
ATOM     13  C   UNL     1       4.315   6.668  16.865  0.00  0.00    +0.000 A 
ATOM     14  C   UNL     1       4.217   5.568  17.747  0.00  0.00    +0.000 A 
ATOM     15  C   UNL     1       3.352   5.690  18.867  0.00  0.00    +0.000 A 
ATOM     16  C   UNL     1       2.630   6.897  19.105  0.00  0.00    +0.000 A 
ENDROOT
BRANCH   1  18
ATOM     17  O   UNL     1       7.042   4.380  16.725  0.00  0.00    +0.000 OA
ATOM     18  N   UNL     1       5.847   4.151  16.492  0.00  0.00    +0.000 N 
ATOM     19  O   UNL     1       5.380   3.807  15.398  0.00  0.00    +0.000 OA
ENDBRANCH   1  18
BRANCH   8  20
ATOM     20  N   UNL     1       0.230   8.498  21.541  0.00  0.00    +0.000 N 
ATOM     21  O   UNL     1       0.683   9.142  22.496  0.00  0.00    +0.000 OA
ATOM     22  O   UNL     1      -0.903   8.000  21.482  0.00  0.00    +0.000 OA
ENDBRANCH   8  20
TORSDOF 2
ENDMDL
MODEL 5
REMARK VINA RESULT:      -6.8      0.982      6.649
REMARK  Name = 
REMARK  2 active torsions:
REMARK  status: ('A' for Active; 'I' for Inactive)
REMARK    1  A    between atoms: N_2  and  C_4
REMARK    2  A    between atoms: C_11  and  N_12
REMARK                            x       y       z     vdW  Elec       q    Type
REMARK                         _______ _______ _______ _____ _____    ______ ____
ROOT
ATOM      1  C   UNL     1       4.020   4.845  18.387  0.00  0.00    +0.000 A 
ATOM      2  C   UNL     1       4.616   5.401  17.251  0.00  0.00    +0.000 A 
ATOM      3  C   UNL     1       4.294   6.705  16.893  0.00  0.00    +0.000 A 
ATOM      4  C   UNL     1       3.383   7.450  17.655  0.00  0.00    +0.000 A 
ATOM      5  C   UNL     1       3.057   8.752  17.274  0.00  0.00    +0.000 A 
ATOM      6  C   UNL     1       2.146   9.507  18.016  0.00  0.00    +0.000 A 
ATOM      7  C   UNL     1       1.530   8.994  19.180  0.00  0.00    +0.000 A 
ATOM      8  C   UNL     1       0.589   9.694  19.983  0.00  0.00    +0.000 A 
ATOM      9  C   UNL     1       0.004   9.135  21.124  0.00  0.00    +0.000 A 
ATOM     10  C   UNL     1       0.355   7.845  21.499  0.00  0.00    +0.000 A 
ATOM     11  C   UNL     1       1.275   7.110  20.740  0.00  0.00    +0.000 A 
ATOM     12  C   UNL     1       1.612   5.814  21.129  0.00  0.00    +0.000 A 
ATOM     13  C   UNL     1       2.510   5.054  20.379  0.00  0.00    +0.000 A 
ATOM     14  C   UNL     1       3.108   5.562  19.205  0.00  0.00    +0.000 A 
ATOM     15  C   UNL     1       2.786   6.890  18.815  0.00  0.00    +0.000 A 
ATOM     16  C   UNL     1       1.865   7.671  19.576  0.00  0.00    +0.000 A 
ENDROOT
BRANCH   1  18
ATOM     17  O   UNL     1       5.302   3.288  19.487  0.00  0.00    +0.000 OA
ATOM     18  N   UNL     1       4.370   3.468  18.693  0.00  0.00    +0.000 N 
ATOM     19  O   UNL     1       3.734   2.576  18.115  0.00  0.00    +0.000 OA
ENDBRANCH   1  18
BRANCH   8  20
ATOM     20  N   UNL     1       0.174  11.046  19.645  0.00  0.00    +0.000 N 
ATOM     21  O   UNL     1      -0.794  11.174  18.884  0.00  0.00    +0.000 OA
ATOM     22  O   UNL     1       0.845  11.974  20.117  0.00  0.00    +0.000 OA
ENDBRANCH   8  20
TORSDOF 2
ENDMDL
MODEL 6
REMARK VINA RESULT:      -6.8      0.989      1.345
REMARK  Name = 
REMARK  2 active torsions:
REMARK  status: ('A' for Active; 'I' for Inactive)
REMARK    1  A    between atoms: N_2  and  C_4
REMARK    2  A    between atoms: C_11  and  N_12
REMARK                            x       y       z     vdW  Elec       q    Type
REMARK                         _______ _______ _______ _____ _____    ______ ____
ROOT
ATOM      1  C   UNL     1       0.566   9.675  19.980  0.00  0.00    +0.000 A 
ATOM      2  C   UNL     1      -0.007   9.122  21.129  0.00  0.00    +0.000 A 
ATOM      3  C   UNL     1       0.347   7.831  21.502  0.00  0.00    +0.000 A 
ATOM      4  C   UNL     1       1.261   7.092  20.736  0.00  0.00    +0.000 A 
ATOM      5  C   UNL     1       1.594   5.791  21.113  0.00  0.00    +0.000 A 
ATOM      6  C   UNL     1       2.496   5.037  20.360  0.00  0.00    +0.000 A 
ATOM      7  C   UNL     1       3.113   5.559  19.200  0.00  0.00    +0.000 A 
ATOM      8  C   UNL     1       4.033   4.855  18.376  0.00  0.00    +0.000 A 
ATOM      9  C   UNL     1       4.610   5.418  17.234  0.00  0.00    +0.000 A 
ATOM     10  C   UNL     1       4.282   6.722  16.884  0.00  0.00    +0.000 A 
ATOM     11  C   UNL     1       3.377   7.458  17.660  0.00  0.00    +0.000 A 
ATOM     12  C   UNL     1       3.054   8.764  17.292  0.00  0.00    +0.000 A 
ATOM     13  C   UNL     1       2.142   9.511  18.036  0.00  0.00    +0.000 A 
ATOM     14  C   UNL     1       1.511   8.980  19.183  0.00  0.00    +0.000 A 
ATOM     15  C   UNL     1       1.852   7.658  19.576  0.00  0.00    +0.000 A 
ATOM     16  C   UNL     1       2.782   6.886  18.817  0.00  0.00    +0.000 A 
ENDROOT
BRANCH   1  18
ATOM     17  O   UNL     1       0.815  11.959  20.046  0.00  0.00    +0.000 OA
ATOM     18  N   UNL     1       0.133  11.015  19.623  0.00  0.00    +0.000 N 
ATOM     19  O   UNL     1      -0.901  11.121  18.950  0.00  0.00    +0.000 OA
ENDBRANCH   1  18
BRANCH   8  20
ATOM     20  N   UNL     1       4.417   3.486  18.682  0.00  0.00    +0.000 N 
ATOM     21  O   UNL     1       3.800   2.577  18.111  0.00  0.00    +0.000 OA
ATOM     22  O   UNL     1       5.315   3.329  19.522  0.00  0.00    +0.000 OA
ENDBRANCH   8  20
TORSDOF 2
ENDMDL
MODEL 7
REMARK VINA RESULT:      -6.7      1.371      3.232
REMARK  Name = 
REMARK  2 active torsions:
REMARK  status: ('A' for Active; 'I' for Inactive)
REMARK    1  A    between atoms: N_2  and  C_4
REMARK    2  A    between atoms: C_11  and  N_12
REMARK                            x       y       z     vdW  Elec       q    Type
REMARK                         _______ _______ _______ _____ _____    ______ ____
ROOT
ATOM      1  C   UNL     1       0.886  10.252  19.680  0.00  0.00    +0.000 A 
ATOM      2  C   UNL     1       1.432  10.833  18.532  0.00  0.00    +0.000 A 
ATOM      3  C   UNL     1       2.275  10.075  17.729  0.00  0.00    +0.000 A 
ATOM      4  C   UNL     1       2.577   8.747  18.066  0.00  0.00    +0.000 A 
ATOM      5  C   UNL     1       3.438   8.002  17.260  0.00  0.00    +0.000 A 
ATOM      6  C   UNL     1       3.757   6.682  17.583  0.00  0.00    +0.000 A 
ATOM      7  C   UNL     1       3.216   6.045  18.724  0.00  0.00    +0.000 A 
ATOM      8  C   UNL     1       3.496   4.711  19.125  0.00  0.00    +0.000 A 
ATOM      9  C   UNL     1       2.939   4.132  20.270  0.00  0.00    +0.000 A 
ATOM     10  C   UNL     1       2.068   4.881  21.049  0.00  0.00    +0.000 A 
ATOM     11  C   UNL     1       1.762   6.203  20.701  0.00  0.00    +0.000 A 
ATOM     12  C   UNL     1       0.890   6.944  21.499  0.00  0.00    +0.000 A 
ATOM     13  C   UNL     1       0.584   8.267  21.184  0.00  0.00    +0.000 A 
ATOM     14  C   UNL     1       1.141   8.907  20.054  0.00  0.00    +0.000 A 
ATOM     15  C   UNL     1       2.013   8.152  19.226  0.00  0.00    +0.000 A 
ATOM     16  C   UNL     1       2.333   6.798  19.543  0.00  0.00    +0.000 A 
ENDROOT
BRANCH   1  18
ATOM     17  O   UNL     1       0.570  11.663  21.465  0.00  0.00    +0.000 OA
ATOM     18  N   UNL     1       0.038  11.104  20.496  0.00  0.00    +0.000 N 
ATOM     19  O   UNL     1      -1.158  11.185  20.186  0.00  0.00    +0.000 OA
ENDBRANCH   1  18
BRANCH   8  20
ATOM     20  N   UNL     1       4.402   3.872  18.356  0.00  0.00    +0.000 N 
ATOM     21  O   UNL     1       3.919   3.203  17.433  0.00  0.00    +0.000 OA
ATOM     22  O   UNL     1       5.591   3.862  18.706  0.00  0.00    +0.000 OA
ENDBRANCH   8  20
TORSDOF 2
ENDMDL
MODEL 8
REMARK VINA RESULT:      -6.7      1.353      6.063
REMARK  Name = 
REMARK  2 active torsions:
REMARK  status: ('A' for Active; 'I' for Inactive)
REMARK    1  A    between atoms: N_2  and  C_4
REMARK    2  A    between atoms: C_11  and  N_12
REMARK                            x       y       z     vdW  Elec       q    Type
REMARK                         _______ _______ _______ _____ _____    ______ ____
ROOT
ATOM      1  C   UNL     1       3.453   4.678  19.109  0.00  0.00    +0.000 A 
ATOM      2  C   UNL     1       2.883   4.097  20.245  0.00  0.00    +0.000 A 
ATOM      3  C   UNL     1       2.028   4.858  21.033  0.00  0.00    +0.000 A 
ATOM      4  C   UNL     1       1.744   6.190  20.696  0.00  0.00    +0.000 A 
ATOM      5  C   UNL     1       0.896   6.947  21.505  0.00  0.00    +0.000 A 
ATOM      6  C   UNL     1       0.608   8.277  21.191  0.00  0.00    +0.000 A 
ATOM      7  C   UNL     1       1.148   8.903  20.044  0.00  0.00    +0.000 A 
ATOM      8  C   UNL     1       0.909  10.250  19.660  0.00  0.00    +0.000 A 
ATOM      9  C   UNL     1       1.476  10.823  18.517  0.00  0.00    +0.000 A 
ATOM     10  C   UNL     1       2.301  10.048  17.713  0.00  0.00    +0.000 A 
ATOM     11  C   UNL     1       2.572   8.715  18.048  0.00  0.00    +0.000 A 
ATOM     12  C   UNL     1       3.407   7.953  17.232  0.00  0.00    +0.000 A 
ATOM     13  C   UNL     1       3.708   6.630  17.555  0.00  0.00    +0.000 A 
ATOM     14  C   UNL     1       3.183   6.013  18.712  0.00  0.00    +0.000 A 
ATOM     15  C   UNL     1       2.314   6.777  19.536  0.00  0.00    +0.000 A 
ATOM     16  C   UNL     1       2.005   8.132  19.214  0.00  0.00    +0.000 A 
ENDROOT
BRANCH   1  18
ATOM     17  O   UNL     1       3.875   3.174  17.424  0.00  0.00    +0.000 OA
ATOM     18  N   UNL     1       4.364   3.844  18.344  0.00  0.00    +0.000 N 
ATOM     19  O   UNL     1       5.554   3.837  18.685  0.00  0.00    +0.000 OA
ENDBRANCH   1  18
BRANCH   8  20
ATOM     20  N   UNL     1       0.059  11.118  20.460  0.00  0.00    +0.000 N 
ATOM     21  O   UNL     1       0.576  11.695  21.425  0.00  0.00    +0.000 OA
ATOM     22  O   UNL     1      -1.135  11.189  20.134  0.00  0.00    +0.000 OA
ENDBRANCH   8  20
TORSDOF 2
ENDMDL
MODEL 9
REMARK VINA RESULT:      -6.5      1.244      6.012
REMARK  Name = 
REMARK  2 active torsions:
REMARK  status: ('A' for Active; 'I' for Inactive)
REMARK    1  A    between atoms: N_2  and  C_4
REMARK    2  A    between atoms: C_11  and  N_12
REMARK                            x       y       z     vdW  Elec       q    Type
REMARK                         _______ _______ _______ _____ _____    ______ ____
ROOT
ATOM      1  C   UNL     1       3.937   2.604  20.473  0.00  0.00    +0.000 A 
ATOM      2  C   UNL     1       2.943   2.621  21.456  0.00  0.00    +0.000 A 
ATOM      3  C   UNL     1       2.101   3.723  21.542  0.00  0.00    +0.000 A 
ATOM      4  C   UNL     1       2.247   4.804  20.660  0.00  0.00    +0.000 A 
ATOM      5  C   UNL     1       1.406   5.911  20.768  0.00  0.00    +0.000 A 
ATOM      6  C   UNL     1       1.541   7.000  19.905  0.00  0.00    +0.000 A 
ATOM      7  C   UNL     1       2.521   7.021  18.885  0.00  0.00    +0.000 A 
ATOM      8  C   UNL     1       2.727   8.091  17.973  0.00  0.00    +0.000 A 
ATOM      9  C   UNL     1       3.717   8.064  16.986  0.00  0.00    +0.000 A 
ATOM     10  C   UNL     1       4.533   6.945  16.880  0.00  0.00    +0.000 A 
ATOM     11  C   UNL     1       4.374   5.864  17.757  0.00  0.00    +0.000 A 
ATOM     12  C   UNL     1       5.206   4.751  17.639  0.00  0.00    +0.000 A 
ATOM     13  C   UNL     1       5.081   3.671  18.512  0.00  0.00    +0.000 A 
ATOM     14  C   UNL     1       4.114   3.661  19.543  0.00  0.00    +0.000 A 
ATOM     15  C   UNL     1       3.249   4.782  19.654  0.00  0.00    +0.000 A 
ATOM     16  C   UNL     1       3.374   5.892  18.766  0.00  0.00    +0.000 A 
ENDROOT
BRANCH   1  18
ATOM     17  O   UNL     1       4.700   0.674  19.486  0.00  0.00    +0.000 OA
ATOM     18  N   UNL     1       4.807   1.441  20.453  0.00  0.00    +0.000 N 
ATOM     19  O   UNL     1       5.569   1.281  21.416  0.00  0.00    +0.000 OA
ENDBRANCH   1  18
BRANCH   8  20
ATOM     20  N   UNL     1       1.911   9.294  18.031  0.00  0.00    +0.000 N 
ATOM     21  O   UNL     1       0.738   9.209  17.645  0.00  0.00    +0.000 OA
ATOM     22  O   UNL     1       2.463  10.328  18.433  0.00  0.00    +0.000 OA
ENDBRANCH   8  20
TORSDOF 2
ENDMDL
