MODEL 1
REMARK VINA RESULT:      -8.4      0.000      0.000
REMARK  Name = 
REMARK  3 active torsions:
REMARK  status: ('A' for Active; 'I' for Inactive)
REMARK    1  A    between atoms: C_2  and  C_4
REMARK    2  A    between atoms: C_6  and  C_7
REMARK    3  A    between atoms: C_15  and  C_16
REMARK                            x       y       z     vdW  Elec       q    Type
REMARK                         _______ _______ _______ _____ _____    ______ ____
ROOT
ATOM      1  C   UNL     1       3.499   4.211  19.233  0.00  0.00    +0.000 A 
ATOM      2  S   UNL     1       2.367   5.013  20.246  0.00  0.00    +0.000 S 
ATOM      3  C   UNL     1       2.646   6.495  19.424  0.00  0.00    +0.000 A 
ATOM      4  N   UNL     1       3.563   6.424  18.478  0.00  0.00    +0.000 NA
ATOM      5  C   UNL     1       4.045   5.122  18.338  0.00  0.00    +0.000 A 
ENDROOT
BRANCH   3   6
ATOM      6  C   UNL     1       1.898   7.709  19.804  0.00  0.00    +0.000 A 
ATOM      7  C   UNL     1       1.411   7.869  21.082  0.00  0.00    +0.000 A 
ATOM      8  C   UNL     1       0.726   9.036  21.311  0.00  0.00    +0.000 A 
ATOM      9  N   UNL     1       0.535   9.982  20.374  0.00  0.00    +0.000 NA
ATOM     10  C   UNL     1       1.066   9.748  19.172  0.00  0.00    +0.000 A 
ATOM     11  N   UNL     1       0.882  10.700  18.192  0.00  0.00    +0.000 N 
ATOM     12  N   UNL     1       1.721   8.640  18.836  0.00  0.00    +0.000 NA
ATOM     13  H   UNL     1       0.069  11.261  18.404  0.00  0.00    +0.000 HD
ATOM     14  H   UNL     1       0.930  10.275  17.277  0.00  0.00    +0.000 HD
ENDBRANCH   3   6
BRANCH   5  15
ATOM     15  C   UNL     1       5.050   4.816  17.317  0.00  0.00    +0.000 A 
ATOM     16  C   UNL     1       4.690   4.494  16.001  0.00  0.00    +0.000 A 
ATOM     17  C   UNL     1       5.666   4.299  15.025  0.00  0.00    +0.000 A 
ATOM     18  F   UNL     1       5.292   4.060  13.761  0.00  0.00    +0.000 F 
ATOM     19  C   UNL     1       7.016   4.358  15.337  0.00  0.00    +0.000 A 
ATOM     20  C   UNL     1       7.395   4.603  16.654  0.00  0.00    +0.000 A 
ATOM     21  C   UNL     1       6.420   4.830  17.631  0.00  0.00    +0.000 A 
ATOM     22  F   UNL     1       6.841   5.088  18.879  0.00  0.00    +0.000 F 
ENDBRANCH   5  15
BRANCH   1  24
ATOM     23  N   UNL     1       4.906   2.394  19.893  0.00  0.00    +0.000 N 
ATOM     24  C   UNL     1       3.695   2.785  19.389  0.00  0.00    +0.000 C 
ATOM     25  O   UNL     1       2.882   1.921  19.075  0.00  0.00    +0.000 OA
ATOM     26  H   UNL     1       5.080   1.405  20.001  0.00  0.00    +0.000 HD
ATOM     27  H   UNL     1       5.599   3.060  20.208  0.00  0.00    +0.000 HD
ENDBRANCH   1  24
TORSDOF 3
ENDMDL
MODEL 2
REMARK VINA RESULT:      -8.2      3.637      7.062
REMARK  Name = 
REMARK  3 active torsions:
REMARK  status: ('A' for Active; 'I' for Inactive)
REMARK    1  A    between atoms: C_2  and  C_4
REMARK    2  A    between atoms: C_6  and  C_7
REMARK    3  A    between atoms: C_15  and  C_16
REMARK                            x       y       z     vdW  Elec       q    Type
REMARK                         _______ _______ _______ _____ _____    ______ ____
ROOT
ATOM      1  C   UNL     1       3.787   6.160  17.579  0.00  0.00    +0.000 A 
ATOM      2  S   UNL     1       4.784   6.684  16.282  0.00  0.00    +0.000 S 
ATOM      3  C   UNL     1       5.046   5.057  15.796  0.00  0.00    +0.000 A 
ATOM      4  N   UNL     1       4.469   4.161  16.574  0.00  0.00    +0.000 NA
ATOM      5  C   UNL     1       3.726   4.773  17.585  0.00  0.00    +0.000 A 
ENDROOT
BRANCH   3   6
ATOM      6  C   UNL     1       5.866   4.758  14.606  0.00  0.00    +0.000 A 
ATOM      7  C   UNL     1       5.479   3.791  13.705  0.00  0.00    +0.000 A 
ATOM      8  C   UNL     1       6.327   3.599  12.644  0.00  0.00    +0.000 A 
ATOM      9  N   UNL     1       7.463   4.299  12.463  0.00  0.00    +0.000 NA
ATOM     10  C   UNL     1       7.741   5.231  13.377  0.00  0.00    +0.000 A 
ATOM     11  N   UNL     1       8.900   5.961  13.218  0.00  0.00    +0.000 N 
ATOM     12  N   UNL     1       7.003   5.478  14.456  0.00  0.00    +0.000 NA
ATOM     13  H   UNL     1       9.557   5.445  12.649  0.00  0.00    +0.000 HD
ATOM     14  H   UNL     1       9.224   6.302  14.111  0.00  0.00    +0.000 HD
ENDBRANCH   3   6
BRANCH   5  15
ATOM     15  C   UNL     1       2.977   3.957  18.543  0.00  0.00    +0.000 A 
ATOM     16  C   UNL     1       3.599   3.356  19.646  0.00  0.00    +0.000 A 
ATOM     17  C   UNL     1       2.849   2.664  20.595  0.00  0.00    +0.000 A 
ATOM     18  F   UNL     1       3.462   2.158  21.674  0.00  0.00    +0.000 F 
ATOM     19  C   UNL     1       1.481   2.497  20.447  0.00  0.00    +0.000 A 
ATOM     20  C   UNL     1       0.854   3.022  19.320  0.00  0.00    +0.000 A 
ATOM     21  C   UNL     1       1.597   3.745  18.381  0.00  0.00    +0.000 A 
ATOM     22  F   UNL     1       0.938   4.252  17.328  0.00  0.00    +0.000 F 
ENDBRANCH   5  15
BRANCH   1  24
ATOM     23  N   UNL     1       2.851   8.347  17.815  0.00  0.00    +0.000 N 
ATOM     24  C   UNL     1       3.142   7.152  18.414  0.00  0.00    +0.000 C 
ATOM     25  O   UNL     1       2.877   7.010  19.604  0.00  0.00    +0.000 OA
ATOM     26  H   UNL     1       2.414   9.066  18.374  0.00  0.00    +0.000 HD
ATOM     27  H   UNL     1       3.008   8.508  16.829  0.00  0.00    +0.000 HD
ENDBRANCH   1  24
TORSDOF 3
ENDMDL
MODEL 3
REMARK VINA RESULT:      -8.2      0.752      1.388
REMARK  Name = 
REMARK  3 active torsions:
REMARK  status: ('A' for Active; 'I' for Inactive)
REMARK    1  A    between atoms: C_2  and  C_4
REMARK    2  A    between atoms: C_6  and  C_7
REMARK    3  A    between atoms: C_15  and  C_16
REMARK                            x       y       z     vdW  Elec       q    Type
REMARK                         _______ _______ _______ _____ _____    ______ ____
ROOT
ATOM      1  C   UNL     1       3.472   4.315  19.212  0.00  0.00    +0.000 A 
ATOM      2  S   UNL     1       2.347   5.149  20.207  0.00  0.00    +0.000 S 
ATOM      3  C   UNL     1       2.644   6.612  19.357  0.00  0.00    +0.000 A 
ATOM      4  N   UNL     1       3.562   6.513  18.414  0.00  0.00    +0.000 NA
ATOM      5  C   UNL     1       4.029   5.203  18.300  0.00  0.00    +0.000 A 
ENDROOT
BRANCH   3   6
ATOM      6  C   UNL     1       1.908   7.841  19.711  0.00  0.00    +0.000 A 
ATOM      7  C   UNL     1       1.635   8.801  18.761  0.00  0.00    +0.000 A 
ATOM      8  C   UNL     1       0.953   9.901  19.212  0.00  0.00    +0.000 A 
ATOM      9  N   UNL     1       0.555  10.058  20.488  0.00  0.00    +0.000 NA
ATOM     10  C   UNL     1       0.844   9.064  21.330  0.00  0.00    +0.000 A 
ATOM     11  N   UNL     1       0.451   9.200  22.644  0.00  0.00    +0.000 N 
ATOM     12  N   UNL     1       1.526   7.969  21.003  0.00  0.00    +0.000 NA
ATOM     13  H   UNL     1       0.332  10.179  22.869  0.00  0.00    +0.000 HD
ATOM     14  H   UNL     1       1.049   8.654  23.247  0.00  0.00    +0.000 HD
ENDBRANCH   3   6
BRANCH   5  15
ATOM     15  C   UNL     1       5.033   4.865  17.287  0.00  0.00    +0.000 A 
ATOM     16  C   UNL     1       4.673   4.542  15.971  0.00  0.00    +0.000 A 
ATOM     17  C   UNL     1       5.650   4.318  15.003  0.00  0.00    +0.000 A 
ATOM     18  F   UNL     1       5.277   4.078  13.738  0.00  0.00    +0.000 F 
ATOM     19  C   UNL     1       6.999   4.348  15.322  0.00  0.00    +0.000 A 
ATOM     20  C   UNL     1       7.376   4.594  16.640  0.00  0.00    +0.000 A 
ATOM     21  C   UNL     1       6.400   4.851  17.609  0.00  0.00    +0.000 A 
ATOM     22  F   UNL     1       6.821   5.108  18.857  0.00  0.00    +0.000 F 
ENDBRANCH   5  15
BRANCH   1  24
ATOM     23  N   UNL     1       4.879   2.492  19.854  0.00  0.00    +0.000 N 
ATOM     24  C   UNL     1       3.652   2.891  19.396  0.00  0.00    +0.000 C 
ATOM     25  O   UNL     1       2.811   2.033  19.143  0.00  0.00    +0.000 OA
ATOM     26  H   UNL     1       5.041   1.503  19.980  0.00  0.00    +0.000 HD
ATOM     27  H   UNL     1       5.596   3.154  20.119  0.00  0.00    +0.000 HD
ENDBRANCH   1  24
TORSDOF 3
ENDMDL
MODEL 4
REMARK VINA RESULT:      -8.0      3.726      6.896
REMARK  Name = 
REMARK  3 active torsions:
REMARK  status: ('A' for Active; 'I' for Inactive)
REMARK    1  A    between atoms: C_2  and  C_4
REMARK    2  A    between atoms: C_6  and  C_7
REMARK    3  A    between atoms: C_15  and  C_16
REMARK                            x       y       z     vdW  Elec       q    Type
REMARK                         _______ _______ _______ _____ _____    ______ ____
ROOT
ATOM      1  C   UNL     1       3.924   6.058  17.413  0.00  0.00    +0.000 A 
ATOM      2  S   UNL     1       4.906   6.621  16.121  0.00  0.00    +0.000 S 
ATOM      3  C   UNL     1       5.187   5.008  15.601  0.00  0.00    +0.000 A 
ATOM      4  N   UNL     1       4.628   4.088  16.365  0.00  0.00    +0.000 NA
ATOM      5  C   UNL     1       3.883   4.670  17.392  0.00  0.00    +0.000 A 
ENDROOT
BRANCH   3   6
ATOM      6  C   UNL     1       6.005   4.744  14.401  0.00  0.00    +0.000 A 
ATOM      7  C   UNL     1       5.618   3.800  13.476  0.00  0.00    +0.000 A 
ATOM      8  C   UNL     1       6.463   3.640  12.407  0.00  0.00    +0.000 A 
ATOM      9  N   UNL     1       7.595   4.348  12.242  0.00  0.00    +0.000 NA
ATOM     10  C   UNL     1       7.874   5.256  13.179  0.00  0.00    +0.000 A 
ATOM     11  N   UNL     1       9.030   5.994  13.036  0.00  0.00    +0.000 N 
ATOM     12  N   UNL     1       7.139   5.472  14.267  0.00  0.00    +0.000 NA
ATOM     13  H   UNL     1       9.686   5.495  12.452  0.00  0.00    +0.000 HD
ATOM     14  H   UNL     1       9.356   6.312  13.937  0.00  0.00    +0.000 HD
ENDBRANCH   3   6
BRANCH   5  15
ATOM     15  C   UNL     1       3.150   3.825  18.338  0.00  0.00    +0.000 A 
ATOM     16  C   UNL     1       1.838   3.401  18.086  0.00  0.00    +0.000 A 
ATOM     17  C   UNL     1       1.197   2.520  18.956  0.00  0.00    +0.000 A 
ATOM     18  F   UNL     1      -0.032   2.079  18.654  0.00  0.00    +0.000 F 
ATOM     19  C   UNL     1       1.811   2.086  20.121  0.00  0.00    +0.000 A 
ATOM     20  C   UNL     1       3.086   2.554  20.428  0.00  0.00    +0.000 A 
ATOM     21  C   UNL     1       3.746   3.413  19.542  0.00  0.00    +0.000 A 
ATOM     22  F   UNL     1       4.984   3.811  19.874  0.00  0.00    +0.000 F 
ENDBRANCH   5  15
BRANCH   1  24
ATOM     23  N   UNL     1       2.961   8.227  17.697  0.00  0.00    +0.000 N 
ATOM     24  C   UNL     1       3.270   7.024  18.271  0.00  0.00    +0.000 C 
ATOM     25  O   UNL     1       3.011   6.854  19.459  0.00  0.00    +0.000 OA
ATOM     26  H   UNL     1       2.517   8.928  18.273  0.00  0.00    +0.000 HD
ATOM     27  H   UNL     1       3.112   8.411  16.715  0.00  0.00    +0.000 HD
ENDBRANCH   1  24
TORSDOF 3
ENDMDL
MODEL 5
REMARK VINA RESULT:      -7.6      1.578      2.659
REMARK  Name = 
REMARK  3 active torsions:
REMARK  status: ('A' for Active; 'I' for Inactive)
REMARK    1  A    between atoms: C_2  and  C_4
REMARK    2  A    between atoms: C_6  and  C_7
REMARK    3  A    between atoms: C_15  and  C_16
REMARK                            x       y       z     vdW  Elec       q    Type
REMARK                         _______ _______ _______ _____ _____    ______ ____
ROOT
ATOM      1  C   UNL     1       2.957   4.479  19.867  0.00  0.00    +0.000 A 
ATOM      2  S   UNL     1       1.612   5.250  20.608  0.00  0.00    +0.000 S 
ATOM      3  C   UNL     1       2.159   6.783  20.059  0.00  0.00    +0.000 A 
ATOM      4  N   UNL     1       3.302   6.746  19.400  0.00  0.00    +0.000 NA
ATOM      5  C   UNL     1       3.761   5.435  19.260  0.00  0.00    +0.000 A 
ENDROOT
BRANCH   3   6
ATOM      6  C   UNL     1       1.374   8.000  20.345  0.00  0.00    +0.000 A 
ATOM      7  C   UNL     1       1.313   9.032  19.435  0.00  0.00    +0.000 A 
ATOM      8  C   UNL     1       0.559  10.112  19.818  0.00  0.00    +0.000 A 
ATOM      9  N   UNL     1      -0.097  10.184  20.991  0.00  0.00    +0.000 NA
ATOM     10  C   UNL     1       0.002   9.124  21.796  0.00  0.00    +0.000 A 
ATOM     11  N   UNL     1      -0.657   9.172  23.005  0.00  0.00    +0.000 N 
ATOM     12  N   UNL     1       0.729   8.040  21.535  0.00  0.00    +0.000 NA
ATOM     13  H   UNL     1      -0.814  10.133  23.274  0.00  0.00    +0.000 HD
ATOM     14  H   UNL     1      -0.203   8.568  23.676  0.00  0.00    +0.000 HD
ENDBRANCH   3   6
BRANCH   5  15
ATOM     15  C   UNL     1       5.002   5.165  18.529  0.00  0.00    +0.000 A 
ATOM     16  C   UNL     1       6.260   5.437  19.086  0.00  0.00    +0.000 A 
ATOM     17  C   UNL     1       7.426   5.083  18.410  0.00  0.00    +0.000 A 
ATOM     18  F   UNL     1       8.613   5.293  18.996  0.00  0.00    +0.000 F 
ATOM     19  C   UNL     1       7.381   4.511  17.148  0.00  0.00    +0.000 A 
ATOM     20  C   UNL     1       6.143   4.302  16.545  0.00  0.00    +0.000 A 
ATOM     21  C   UNL     1       4.968   4.625  17.232  0.00  0.00    +0.000 A 
ATOM     22  F   UNL     1       3.802   4.377  16.616  0.00  0.00    +0.000 F 
ENDBRANCH   5  15
BRANCH   1  24
ATOM     23  N   UNL     1       2.080   2.342  19.253  0.00  0.00    +0.000 N 
ATOM     24  C   UNL     1       3.055   3.036  19.917  0.00  0.00    +0.000 C 
ATOM     25  O   UNL     1       3.912   2.406  20.531  0.00  0.00    +0.000 OA
ATOM     26  H   UNL     1       2.112   1.332  19.281  0.00  0.00    +0.000 HD
ATOM     27  H   UNL     1       1.374   2.803  18.697  0.00  0.00    +0.000 HD
ENDBRANCH   1  24
TORSDOF 3
ENDMDL
MODEL 6
REMARK VINA RESULT:      -7.6      3.726      7.161
REMARK  Name = 
REMARK  3 active torsions:
REMARK  status: ('A' for Active; 'I' for Inactive)
REMARK    1  A    between atoms: C_2  and  C_4
REMARK    2  A    between atoms: C_6  and  C_7
REMARK    3  A    between atoms: C_15  and  C_16
REMARK                            x       y       z     vdW  Elec       q    Type
REMARK                         _______ _______ _______ _____ _____    ______ ____
ROOT
ATOM      1  C   UNL     1       3.852   6.127  17.514  0.00  0.00    +0.000 A 
ATOM      2  S   UNL     1       4.855   6.634  16.214  0.00  0.00    +0.000 S 
ATOM      3  C   UNL     1       5.109   5.002  15.742  0.00  0.00    +0.000 A 
ATOM      4  N   UNL     1       4.526   4.115  16.527  0.00  0.00    +0.000 NA
ATOM      5  C   UNL     1       3.784   4.740  17.531  0.00  0.00    +0.000 A 
ENDROOT
BRANCH   3   6
ATOM      6  C   UNL     1       5.930   4.688  14.557  0.00  0.00    +0.000 A 
ATOM      7  C   UNL     1       7.118   5.346  14.326  0.00  0.00    +0.000 A 
ATOM      8  C   UNL     1       7.788   4.972  13.188  0.00  0.00    +0.000 A 
ATOM      9  N   UNL     1       7.344   4.025  12.341  0.00  0.00    +0.000 NA
ATOM     10  C   UNL     1       6.195   3.428  12.662  0.00  0.00    +0.000 A 
ATOM     11  N   UNL     1       5.716   2.456  11.810  0.00  0.00    +0.000 N 
ATOM     12  N   UNL     1       5.453   3.733  13.724  0.00  0.00    +0.000 NA
ATOM     13  H   UNL     1       6.099   2.590  10.884  0.00  0.00    +0.000 HD
ATOM     14  H   UNL     1       4.712   2.382  11.892  0.00  0.00    +0.000 HD
ENDBRANCH   3   6
BRANCH   5  15
ATOM     15  C   UNL     1       3.028   3.936  18.494  0.00  0.00    +0.000 A 
ATOM     16  C   UNL     1       3.649   3.323  19.592  0.00  0.00    +0.000 A 
ATOM     17  C   UNL     1       2.895   2.644  20.547  0.00  0.00    +0.000 A 
ATOM     18  F   UNL     1       3.507   2.127  21.621  0.00  0.00    +0.000 F 
ATOM     19  C   UNL     1       1.522   2.502  20.410  0.00  0.00    +0.000 A 
ATOM     20  C   UNL     1       0.895   3.038  19.289  0.00  0.00    +0.000 A 
ATOM     21  C   UNL     1       1.644   3.749  18.344  0.00  0.00    +0.000 A 
ATOM     22  F   UNL     1       0.985   4.268  17.296  0.00  0.00    +0.000 F 
ENDBRANCH   5  15
BRANCH   1  24
ATOM     23  N   UNL     1       2.974   8.338  17.743  0.00  0.00    +0.000 N 
ATOM     24  C   UNL     1       3.211   7.129  18.338  0.00  0.00    +0.000 C 
ATOM     25  O   UNL     1       2.905   6.984  19.518  0.00  0.00    +0.000 OA
ATOM     26  H   UNL     1       2.540   9.064  18.296  0.00  0.00    +0.000 HD
ATOM     27  H   UNL     1       3.165   8.504  16.764  0.00  0.00    +0.000 HD
ENDBRANCH   1  24
TORSDOF 3
ENDMDL
MODEL 7
REMARK VINA RESULT:      -7.5      1.333      2.222
REMARK  Name = 
REMARK  3 active torsions:
REMARK  status: ('A' for Active; 'I' for Inactive)
REMARK    1  A    between atoms: C_2  and  C_4
REMARK    2  A    between atoms: C_6  and  C_7
REMARK    3  A    between atoms: C_15  and  C_16
REMARK                            x       y       z     vdW  Elec       q    Type
REMARK                         _______ _______ _______ _____ _____    ______ ____
ROOT
ATOM      1  C   UNL     1       3.022   4.540  19.820  0.00  0.00    +0.000 A 
ATOM      2  S   UNL     1       1.657   5.327  20.504  0.00  0.00    +0.000 S 
ATOM      3  C   UNL     1       2.226   6.849  19.947  0.00  0.00    +0.000 A 
ATOM      4  N   UNL     1       3.390   6.797  19.327  0.00  0.00    +0.000 NA
ATOM      5  C   UNL     1       3.849   5.483  19.224  0.00  0.00    +0.000 A 
ENDROOT
BRANCH   3   6
ATOM      6  C   UNL     1       1.437   8.073  20.186  0.00  0.00    +0.000 A 
ATOM      7  C   UNL     1       0.790   8.274  21.386  0.00  0.00    +0.000 A 
ATOM      8  C   UNL     1       0.083   9.445  21.486  0.00  0.00    +0.000 A 
ATOM      9  N   UNL     1       0.014  10.359  20.501  0.00  0.00    +0.000 NA
ATOM     10  C   UNL     1       0.694  10.086  19.385  0.00  0.00    +0.000 A 
ATOM     11  N   UNL     1       0.638  11.004  18.358  0.00  0.00    +0.000 N 
ATOM     12  N   UNL     1       1.386   8.970  19.173  0.00  0.00    +0.000 NA
ATOM     13  H   UNL     1      -0.196  11.569  18.446  0.00  0.00    +0.000 HD
ATOM     14  H   UNL     1       0.801  10.549  17.472  0.00  0.00    +0.000 HD
ENDBRANCH   3   6
BRANCH   5  15
ATOM     15  C   UNL     1       5.111   5.197  18.539  0.00  0.00    +0.000 A 
ATOM     16  C   UNL     1       6.352   5.439  19.146  0.00  0.00    +0.000 A 
ATOM     17  C   UNL     1       7.537   5.071  18.512  0.00  0.00    +0.000 A 
ATOM     18  F   UNL     1       8.704   5.253  19.146  0.00  0.00    +0.000 F 
ATOM     19  C   UNL     1       7.530   4.511  17.244  0.00  0.00    +0.000 A 
ATOM     20  C   UNL     1       6.313   4.330  16.592  0.00  0.00    +0.000 A 
ATOM     21  C   UNL     1       5.118   4.669  17.236  0.00  0.00    +0.000 A 
ATOM     22  F   UNL     1       3.973   4.449  16.573  0.00  0.00    +0.000 F 
ENDBRANCH   5  15
BRANCH   1  24
ATOM     23  N   UNL     1       2.163   2.394  19.209  0.00  0.00    +0.000 N 
ATOM     24  C   UNL     1       3.113   3.097  19.899  0.00  0.00    +0.000 C 
ATOM     25  O   UNL     1       3.943   2.476  20.556  0.00  0.00    +0.000 OA
ATOM     26  H   UNL     1       2.190   1.386  19.255  0.00  0.00    +0.000 HD
ATOM     27  H   UNL     1       1.480   2.848  18.618  0.00  0.00    +0.000 HD
ENDBRANCH   1  24
TORSDOF 3
ENDMDL
MODEL 8
REMARK VINA RESULT:      -7.4      1.107      1.211
REMARK  Name = 
REMARK  3 active torsions:
REMARK  status: ('A' for Active; 'I' for Inactive)
REMARK    1  A    between atoms: C_2  and  C_4
REMARK    2  A    between atoms: C_6  and  C_7
REMARK    3  A    between atoms: C_15  and  C_16
REMARK                            x       y       z     vdW  Elec       q    Type
REMARK                         _______ _______ _______ _____ _____    ______ ____
ROOT
ATOM      1  C   UNL     1       3.675   4.844  18.458  0.00  0.00    +0.000 A 
ATOM      2  S   UNL     1       2.592   5.772  19.416  0.00  0.00    +0.000 S 
ATOM      3  C   UNL     1       2.898   7.163  18.457  0.00  0.00    +0.000 A 
ATOM      4  N   UNL     1       3.790   6.976  17.503  0.00  0.00    +0.000 NA
ATOM      5  C   UNL     1       4.228   5.651  17.473  0.00  0.00    +0.000 A 
ENDROOT
BRANCH   3   6
ATOM      6  C   UNL     1       2.196   8.431  18.738  0.00  0.00    +0.000 A 
ATOM      7  C   UNL     1       1.264   8.514  19.749  0.00  0.00    +0.000 A 
ATOM      8  C   UNL     1       0.675   9.743  19.908  0.00  0.00    +0.000 A 
ATOM      9  N   UNL     1       0.973  10.815  19.151  0.00  0.00    +0.000 NA
ATOM     10  C   UNL     1       1.906  10.642  18.212  0.00  0.00    +0.000 A 
ATOM     11  N   UNL     1       2.228  11.723  17.420  0.00  0.00    +0.000 N 
ATOM     12  N   UNL     1       2.518   9.488  17.955  0.00  0.00    +0.000 NA
ATOM     13  H   UNL     1       1.463  12.382  17.409  0.00  0.00    +0.000 HD
ATOM     14  H   UNL     1       2.586  11.410  16.529  0.00  0.00    +0.000 HD
ENDBRANCH   3   6
BRANCH   5  15
ATOM     15  C   UNL     1       5.199   5.220  16.465  0.00  0.00    +0.000 A 
ATOM     16  C   UNL     1       4.806   4.537  15.305  0.00  0.00    +0.000 A 
ATOM     17  C   UNL     1       5.735   4.222  14.316  0.00  0.00    +0.000 A 
ATOM     18  F   UNL     1       5.319   3.629  13.189  0.00  0.00    +0.000 F 
ATOM     19  C   UNL     1       7.081   4.518  14.474  0.00  0.00    +0.000 A 
ATOM     20  C   UNL     1       7.505   5.130  15.651  0.00  0.00    +0.000 A 
ATOM     21  C   UNL     1       6.571   5.477  16.633  0.00  0.00    +0.000 A 
ATOM     22  F   UNL     1       7.030   6.089  17.735  0.00  0.00    +0.000 F 
ENDBRANCH   5  15
BRANCH   1  24
ATOM     23  N   UNL     1       5.019   3.058  19.307  0.00  0.00    +0.000 N 
ATOM     24  C   UNL     1       3.830   3.433  18.741  0.00  0.00    +0.000 C 
ATOM     25  O   UNL     1       3.002   2.564  18.481  0.00  0.00    +0.000 OA
ATOM     26  H   UNL     1       5.164   2.078  19.504  0.00  0.00    +0.000 HD
ATOM     27  H   UNL     1       5.721   3.732  19.581  0.00  0.00    +0.000 HD
ENDBRANCH   1  24
TORSDOF 3
ENDMDL
MODEL 9
REMARK VINA RESULT:      -7.4      4.170      7.027
REMARK  Name = 
REMARK  3 active torsions:
REMARK  status: ('A' for Active; 'I' for Inactive)
REMARK    1  A    between atoms: C_2  and  C_4
REMARK    2  A    between atoms: C_6  and  C_7
REMARK    3  A    between atoms: C_15  and  C_16
REMARK                            x       y       z     vdW  Elec       q    Type
REMARK                         _______ _______ _______ _____ _____    ______ ____
ROOT
ATOM      1  C   UNL     1       5.763   4.729  17.939  0.00  0.00    +0.000 A 
ATOM      2  S   UNL     1       7.007   4.995  16.785  0.00  0.00    +0.000 S 
ATOM      3  C   UNL     1       5.998   4.405  15.527  0.00  0.00    +0.000 A 
ATOM      4  N   UNL     1       4.815   3.984  15.934  0.00  0.00    +0.000 NA
ATOM      5  C   UNL     1       4.653   4.184  17.306  0.00  0.00    +0.000 A 
ENDROOT
BRANCH   3   6
ATOM      6  C   UNL     1       6.480   4.385  14.132  0.00  0.00    +0.000 A 
ATOM      7  C   UNL     1       6.048   3.422  13.247  0.00  0.00    +0.000 A 
ATOM      8  C   UNL     1       6.572   3.504  11.982  0.00  0.00    +0.000 A 
ATOM      9  N   UNL     1       7.443   4.455  11.599  0.00  0.00    +0.000 NA
ATOM     10  C   UNL     1       7.784   5.359  12.519  0.00  0.00    +0.000 A 
ATOM     11  N   UNL     1       8.677   6.343  12.154  0.00  0.00    +0.000 N 
ATOM     12  N   UNL     1       7.357   5.354  13.780  0.00  0.00    +0.000 NA
ATOM     13  H   UNL     1       9.230   6.032  11.366  0.00  0.00    +0.000 HD
ATOM     14  H   UNL     1       9.173   6.685  12.964  0.00  0.00    +0.000 HD
ENDBRANCH   3   6
BRANCH   5  15
ATOM     15  C   UNL     1       3.395   3.816  17.960  0.00  0.00    +0.000 A 
ATOM     16  C   UNL     1       3.130   2.499  18.361  0.00  0.00    +0.000 A 
ATOM     17  C   UNL     1       1.967   2.191  19.065  0.00  0.00    +0.000 A 
ATOM     18  F   UNL     1       1.772   0.937  19.495  0.00  0.00    +0.000 F 
ATOM     19  C   UNL     1       1.014   3.161  19.337  0.00  0.00    +0.000 A 
ATOM     20  C   UNL     1       1.223   4.461  18.883  0.00  0.00    +0.000 A 
ATOM     21  C   UNL     1       2.403   4.781  18.203  0.00  0.00    +0.000 A 
ATOM     22  F   UNL     1       2.566   6.054  17.811  0.00  0.00    +0.000 F 
ENDBRANCH   5  15
BRANCH   1  24
ATOM     23  N   UNL     1       7.286   5.355  19.672  0.00  0.00    +0.000 N 
ATOM     24  C   UNL     1       5.986   5.121  19.315  0.00  0.00    +0.000 C 
ATOM     25  O   UNL     1       5.113   5.221  20.172  0.00  0.00    +0.000 OA
ATOM     26  H   UNL     1       7.477   5.617  20.629  0.00  0.00    +0.000 HD
ATOM     27  H   UNL     1       8.042   5.329  19.001  0.00  0.00    +0.000 HD
ENDBRANCH   1  24
TORSDOF 3
ENDMDL
