MODEL 1
REMARK VINA RESULT:      -7.5      0.000      0.000
REMARK  Name = 
REMARK  4 active torsions:
REMARK  status: ('A' for Active; 'I' for Inactive)
REMARK    1  A    between atoms: C_1  and  C_2
REMARK    2  A    between atoms: C_6  and  C_7
REMARK    3  A    between atoms: C_13  and  N_14
REMARK    4  A    between atoms: N_17  and  C_18
REMARK                            x       y       z     vdW  Elec       q    Type
REMARK                         _______ _______ _______ _____ _____    ______ ____
ROOT
ATOM      1  C   UNL     1       4.470   3.925  17.738  0.00  0.00    +0.000 C 
ATOM      2  O   UNL     1       4.135   2.762  17.517  0.00  0.00    +0.000 OA
ATOM      3  N   UNL     1       4.050   4.593  18.893  0.00  0.00    +0.000 N 
ATOM      4  C   UNL     1       3.398   3.856  19.965  0.00  0.00    +0.000 C 
ATOM      5  C   UNL     1       1.915   4.183  19.981  0.00  0.00    +0.000 C 
ATOM      6  C   UNL     1       1.684   5.686  20.152  0.00  0.00    +0.000 C 
ATOM      7  C   UNL     1       2.538   6.572  19.217  0.00  0.00    +0.000 C 
ATOM      8  C   UNL     1       3.990   6.046  19.045  0.00  0.00    +0.000 C 
ENDROOT
BRANCH   1  14
ATOM      9  C   UNL     1       7.618   4.709  18.028  0.00  0.00    +0.000 C 
ATOM     10  C   UNL     1       6.686   4.978  16.917  0.00  0.00    +0.000 A 
ATOM     11  N   UNL     1       7.097   5.621  15.822  0.00  0.00    +0.000 NA
ATOM     12  O   UNL     1       5.974   5.734  15.023  0.00  0.00    +0.000 OA
ATOM     13  N   UNL     1       4.867   5.162  15.638  0.00  0.00    +0.000 NA
ATOM     14  C   UNL     1       5.322   4.634  16.787  0.00  0.00    +0.000 A 
ENDBRANCH   1  14
BRANCH   7  15
ATOM     15  N   UNL     1       2.548   8.030  19.471  0.00  0.00    +0.000 NA
ATOM     16  C   UNL     1       2.460   8.879  18.272  0.00  0.00    +0.000 C 
ATOM     17  C   UNL     1       1.038   9.131  17.719  0.00  0.00    +0.000 C 
ATOM     18  N   UNL     1       0.099   9.510  18.789  0.00  0.00    +0.000 N 
ATOM     19  C   UNL     1       0.157   8.763  20.051  0.00  0.00    +0.000 C 
ATOM     20  C   UNL     1       1.620   8.557  20.491  0.00  0.00    +0.000 C 
BRANCH  18  21
ATOM     21  C   UNL     1      -1.040  10.232  18.471  0.00  0.00    +0.000 A 
ATOM     22  C   UNL     1      -1.833   9.950  17.346  0.00  0.00    +0.000 A 
ATOM     23  C   UNL     1      -3.035  10.628  17.116  0.00  0.00    +0.000 A 
ATOM     24  C   UNL     1      -3.456  11.596  18.015  0.00  0.00    +0.000 A 
ATOM     25  F   UNL     1      -4.621  12.226  17.817  0.00  0.00    +0.000 F 
ATOM     26  C   UNL     1      -2.689  11.913  19.124  0.00  0.00    +0.000 A 
ATOM     27  C   UNL     1      -1.490  11.240  19.341  0.00  0.00    +0.000 A 
ENDBRANCH  18  21
ENDBRANCH   7  15
TORSDOF 3
ENDMDL
MODEL 2
REMARK VINA RESULT:      -7.0      5.128      9.465
REMARK  Name = 
REMARK  4 active torsions:
REMARK  status: ('A' for Active; 'I' for Inactive)
REMARK    1  A    between atoms: C_1  and  C_2
REMARK    2  A    between atoms: C_6  and  C_7
REMARK    3  A    between atoms: C_13  and  N_14
REMARK    4  A    between atoms: N_17  and  C_18
REMARK                            x       y       z     vdW  Elec       q    Type
REMARK                         _______ _______ _______ _____ _____    ______ ____
ROOT
ATOM      1  C   UNL     1      -3.136  12.709  20.394  0.00  0.00    +0.000 C 
ATOM      2  O   UNL     1      -4.345  12.490  20.323  0.00  0.00    +0.000 OA
ATOM      3  N   UNL     1      -2.268  12.317  19.371  0.00  0.00    +0.000 N 
ATOM      4  C   UNL     1      -2.802  11.846  18.101  0.00  0.00    +0.000 C 
ATOM      5  C   UNL     1      -2.617  10.343  17.995  0.00  0.00    +0.000 C 
ATOM      6  C   UNL     1      -1.142   9.959  18.125  0.00  0.00    +0.000 C 
ATOM      7  C   UNL     1      -0.414  10.624  19.315  0.00  0.00    +0.000 C 
ATOM      8  C   UNL     1      -0.829  12.106  19.527  0.00  0.00    +0.000 C 
ENDROOT
BRANCH   1  14
ATOM      9  C   UNL     1      -1.763  11.405  23.045  0.00  0.00    +0.000 C 
ATOM     10  C   UNL     1      -1.993  12.824  22.713  0.00  0.00    +0.000 A 
ATOM     11  N   UNL     1      -1.612  13.791  23.549  0.00  0.00    +0.000 NA
ATOM     12  O   UNL     1      -2.014  14.970  22.950  0.00  0.00    +0.000 OA
ATOM     13  N   UNL     1      -2.654  14.721  21.741  0.00  0.00    +0.000 NA
ATOM     14  C   UNL     1      -2.583  13.391  21.562  0.00  0.00    +0.000 A 
ENDBRANCH   1  14
BRANCH   7  15
ATOM     15  N   UNL     1       1.059  10.491  19.382  0.00  0.00    +0.000 NA
ATOM     16  C   UNL     1       1.572   9.747  20.544  0.00  0.00    +0.000 C 
ATOM     17  C   UNL     1       1.583   8.207  20.417  0.00  0.00    +0.000 C 
ATOM     18  N   UNL     1       2.155   7.772  19.131  0.00  0.00    +0.000 N 
ATOM     19  C   UNL     1       1.754   8.497  17.920  0.00  0.00    +0.000 C 
ATOM     20  C   UNL     1       1.762  10.018  18.172  0.00  0.00    +0.000 C 
BRANCH  18  21
ATOM     21  C   UNL     1       2.698   6.502  19.021  0.00  0.00    +0.000 A 
ATOM     22  C   UNL     1       2.447   5.482  19.955  0.00  0.00    +0.000 A 
ATOM     23  C   UNL     1       2.922   4.181  19.756  0.00  0.00    +0.000 A 
ATOM     24  C   UNL     1       3.653   3.889  18.614  0.00  0.00    +0.000 A 
ATOM     25  F   UNL     1       4.082   2.639  18.402  0.00  0.00    +0.000 F 
ATOM     26  C   UNL     1       3.934   4.874  17.683  0.00  0.00    +0.000 A 
ATOM     27  C   UNL     1       3.466   6.168  17.893  0.00  0.00    +0.000 A 
ENDBRANCH  18  21
ENDBRANCH   7  15
TORSDOF 3
ENDMDL
MODEL 3
REMARK VINA RESULT:      -6.9      5.042      9.664
REMARK  Name = 
REMARK  4 active torsions:
REMARK  status: ('A' for Active; 'I' for Inactive)
REMARK    1  A    between atoms: C_1  and  C_2
REMARK    2  A    between atoms: C_6  and  C_7
REMARK    3  A    between atoms: C_13  and  N_14
REMARK    4  A    between atoms: N_17  and  C_18
REMARK                            x       y       z     vdW  Elec       q    Type
REMARK                         _______ _______ _______ _____ _____    ______ ____
ROOT
ATOM      1  C   UNL     1      -3.502  12.460  20.177  0.00  0.00    +0.000 C 
ATOM      2  O   UNL     1      -4.684  12.209  19.951  0.00  0.00    +0.000 OA
ATOM      3  N   UNL     1      -2.510  12.189  19.229  0.00  0.00    +0.000 N 
ATOM      4  C   UNL     1      -2.880  11.813  17.872  0.00  0.00    +0.000 C 
ATOM      5  C   UNL     1      -2.620  10.333  17.663  0.00  0.00    +0.000 C 
ATOM      6  C   UNL     1      -1.152   9.988  17.928  0.00  0.00    +0.000 C 
ATOM      7  C   UNL     1      -0.589  10.570  19.244  0.00  0.00    +0.000 C 
ATOM      8  C   UNL     1      -1.089  12.013  19.530  0.00  0.00    +0.000 C 
ENDROOT
BRANCH   1  14
ATOM      9  C   UNL     1      -2.691  15.552  20.809  0.00  0.00    +0.000 C 
ATOM     10  C   UNL     1      -2.755  14.396  21.723  0.00  0.00    +0.000 A 
ATOM     11  N   UNL     1      -2.465  14.534  23.019  0.00  0.00    +0.000 NA
ATOM     12  O   UNL     1      -2.584  13.265  23.555  0.00  0.00    +0.000 OA
ATOM     13  N   UNL     1      -2.941  12.343  22.578  0.00  0.00    +0.000 NA
ATOM     14  C   UNL     1      -3.111  13.056  21.452  0.00  0.00    +0.000 A 
ENDBRANCH   1  14
BRANCH   7  15
ATOM     15  N   UNL     1       0.871  10.481  19.466  0.00  0.00    +0.000 NA
ATOM     16  C   UNL     1       1.281   9.731  20.664  0.00  0.00    +0.000 C 
ATOM     17  C   UNL     1       1.355   8.195  20.515  0.00  0.00    +0.000 C 
ATOM     18  N   UNL     1       2.076   7.803  19.291  0.00  0.00    +0.000 N 
ATOM     19  C   UNL     1       1.783   8.539  18.056  0.00  0.00    +0.000 C 
ATOM     20  C   UNL     1       1.715  10.053  18.331  0.00  0.00    +0.000 C 
BRANCH  18  21
ATOM     21  C   UNL     1       2.668   6.552  19.220  0.00  0.00    +0.000 A 
ATOM     22  C   UNL     1       3.723   6.256  18.340  0.00  0.00    +0.000 A 
ATOM     23  C   UNL     1       4.369   5.015  18.372  0.00  0.00    +0.000 A 
ATOM     24  C   UNL     1       3.964   4.058  19.290  0.00  0.00    +0.000 A 
ATOM     25  F   UNL     1       4.600   2.881  19.346  0.00  0.00    +0.000 F 
ATOM     26  C   UNL     1       2.916   4.309  20.158  0.00  0.00    +0.000 A 
ATOM     27  C   UNL     1       2.272   5.543  20.114  0.00  0.00    +0.000 A 
ENDBRANCH  18  21
ENDBRANCH   7  15
TORSDOF 3
ENDMDL
MODEL 4
REMARK VINA RESULT:      -6.9      5.710     10.601
REMARK  Name = 
REMARK  4 active torsions:
REMARK  status: ('A' for Active; 'I' for Inactive)
REMARK    1  A    between atoms: C_1  and  C_2
REMARK    2  A    between atoms: C_6  and  C_7
REMARK    3  A    between atoms: C_13  and  N_14
REMARK    4  A    between atoms: N_17  and  C_18
REMARK                            x       y       z     vdW  Elec       q    Type
REMARK                         _______ _______ _______ _____ _____    ______ ____
ROOT
ATOM      1  C   UNL     1      -5.705  12.653  22.140  0.00  0.00    +0.000 C 
ATOM      2  O   UNL     1      -6.769  12.119  22.448  0.00  0.00    +0.000 OA
ATOM      3  N   UNL     1      -5.402  12.947  20.806  0.00  0.00    +0.000 N 
ATOM      4  C   UNL     1      -6.431  12.833  19.782  0.00  0.00    +0.000 C 
ATOM      5  C   UNL     1      -6.167  11.606  18.929  0.00  0.00    +0.000 C 
ATOM      6  C   UNL     1      -4.781  11.670  18.283  0.00  0.00    +0.000 C 
ATOM      7  C   UNL     1      -3.642  12.043  19.259  0.00  0.00    +0.000 C 
ATOM      8  C   UNL     1      -4.053  13.142  20.277  0.00  0.00    +0.000 C 
ENDROOT
BRANCH   1  14
ATOM      9  C   UNL     1      -5.434  15.423  23.834  0.00  0.00    +0.000 C 
ATOM     10  C   UNL     1      -4.612  14.199  23.903  0.00  0.00    +0.000 A 
ATOM     11  N   UNL     1      -3.591  14.111  24.758  0.00  0.00    +0.000 NA
ATOM     12  O   UNL     1      -3.029  12.869  24.526  0.00  0.00    +0.000 OA
ATOM     13  N   UNL     1      -3.707  12.197  23.516  0.00  0.00    +0.000 NA
ATOM     14  C   UNL     1      -4.731  12.996  23.173  0.00  0.00    +0.000 A 
ENDBRANCH   1  14
BRANCH   7  15
ATOM     15  N   UNL     1      -2.315  12.350  18.682  0.00  0.00    +0.000 NA
ATOM     16  C   UNL     1      -1.220  12.486  19.656  0.00  0.00    +0.000 C 
ATOM     17  C   UNL     1      -0.553  11.170  20.120  0.00  0.00    +0.000 C 
ATOM     18  N   UNL     1      -0.233  10.293  18.980  0.00  0.00    +0.000 N 
ATOM     19  C   UNL     1      -1.238  10.146  17.922  0.00  0.00    +0.000 C 
ATOM     20  C   UNL     1      -1.844  11.516  17.557  0.00  0.00    +0.000 C 
BRANCH  18  21
ATOM     21  C   UNL     1       0.768   9.344  19.112  0.00  0.00    +0.000 A 
ATOM     22  C   UNL     1       0.996   8.636  20.304  0.00  0.00    +0.000 A 
ATOM     23  C   UNL     1       1.943   7.607  20.369  0.00  0.00    +0.000 A 
ATOM     24  C   UNL     1       2.671   7.277  19.236  0.00  0.00    +0.000 A 
ATOM     25  F   UNL     1       3.555   6.273  19.284  0.00  0.00    +0.000 F 
ATOM     26  C   UNL     1       2.486   7.968  18.050  0.00  0.00    +0.000 A 
ATOM     27  C   UNL     1       1.548   8.995  17.996  0.00  0.00    +0.000 A 
ENDBRANCH  18  21
ENDBRANCH   7  15
TORSDOF 3
ENDMDL
MODEL 5
REMARK VINA RESULT:      -6.9      0.988      1.256
REMARK  Name = 
REMARK  4 active torsions:
REMARK  status: ('A' for Active; 'I' for Inactive)
REMARK    1  A    between atoms: C_1  and  C_2
REMARK    2  A    between atoms: C_6  and  C_7
REMARK    3  A    between atoms: C_13  and  N_14
REMARK    4  A    between atoms: N_17  and  C_18
REMARK                            x       y       z     vdW  Elec       q    Type
REMARK                         _______ _______ _______ _____ _____    ______ ____
ROOT
ATOM      1  C   UNL     1       4.584   3.633  18.123  0.00  0.00    +0.000 C 
ATOM      2  O   UNL     1       4.225   2.524  17.729  0.00  0.00    +0.000 OA
ATOM      3  N   UNL     1       3.859   4.324  19.099  0.00  0.00    +0.000 N 
ATOM      4  C   UNL     1       2.795   3.651  19.831  0.00  0.00    +0.000 C 
ATOM      5  C   UNL     1       1.446   4.157  19.350  0.00  0.00    +0.000 C 
ATOM      6  C   UNL     1       1.333   5.674  19.523  0.00  0.00    +0.000 C 
ATOM      7  C   UNL     1       2.552   6.466  18.999  0.00  0.00    +0.000 C 
ATOM      8  C   UNL     1       3.905   5.770  19.310  0.00  0.00    +0.000 C 
ENDROOT
BRANCH   1  14
ATOM      9  C   UNL     1       5.155   4.592  15.063  0.00  0.00    +0.000 C 
ATOM     10  C   UNL     1       6.035   4.661  16.244  0.00  0.00    +0.000 A 
ATOM     11  N   UNL     1       7.260   5.183  16.153  0.00  0.00    +0.000 NA
ATOM     12  O   UNL     1       7.808   5.049  17.415  0.00  0.00    +0.000 OA
ATOM     13  N   UNL     1       6.913   4.434  18.283  0.00  0.00    +0.000 NA
ATOM     14  C   UNL     1       5.787   4.251  17.573  0.00  0.00    +0.000 A 
ENDBRANCH   1  14
BRANCH   7  15
ATOM     15  N   UNL     1       2.629   7.907  19.330  0.00  0.00    +0.000 NA
ATOM     16  C   UNL     1       2.479   8.824  18.188  0.00  0.00    +0.000 C 
ATOM     17  C   UNL     1       1.029   9.147  17.759  0.00  0.00    +0.000 C 
ATOM     18  N   UNL     1       0.186   9.493  18.917  0.00  0.00    +0.000 N 
ATOM     19  C   UNL     1       0.313   8.675  20.128  0.00  0.00    +0.000 C 
ATOM     20  C   UNL     1       1.796   8.402  20.444  0.00  0.00    +0.000 C 
BRANCH  18  21
ATOM     21  C   UNL     1      -0.950  10.264  18.726  0.00  0.00    +0.000 A 
ATOM     22  C   UNL     1      -1.895   9.995  17.723  0.00  0.00    +0.000 A 
ATOM     23  C   UNL     1      -3.084  10.727  17.629  0.00  0.00    +0.000 A 
ATOM     24  C   UNL     1      -3.337  11.738  18.543  0.00  0.00    +0.000 A 
ATOM     25  F   UNL     1      -4.487  12.422  18.478  0.00  0.00    +0.000 F 
ATOM     26  C   UNL     1      -2.418  12.043  19.533  0.00  0.00    +0.000 A 
ATOM     27  C   UNL     1      -1.234  11.315  19.615  0.00  0.00    +0.000 A 
ENDBRANCH  18  21
ENDBRANCH   7  15
TORSDOF 3
ENDMDL
MODEL 6
REMARK VINA RESULT:      -6.7      2.694      3.913
REMARK  Name = 
REMARK  4 active torsions:
REMARK  status: ('A' for Active; 'I' for Inactive)
REMARK    1  A    between atoms: C_1  and  C_2
REMARK    2  A    between atoms: C_6  and  C_7
REMARK    3  A    between atoms: C_13  and  N_14
REMARK    4  A    between atoms: N_17  and  C_18
REMARK                            x       y       z     vdW  Elec       q    Type
REMARK                         _______ _______ _______ _____ _____    ______ ____
ROOT
ATOM      1  C   UNL     1       7.077   4.769  16.061  0.00  0.00    +0.000 C 
ATOM      2  O   UNL     1       8.185   4.350  16.392  0.00  0.00    +0.000 OA
ATOM      3  N   UNL     1       6.329   5.590  16.912  0.00  0.00    +0.000 N 
ATOM      4  C   UNL     1       6.940   6.149  18.109  0.00  0.00    +0.000 C 
ATOM      5  C   UNL     1       6.405   5.434  19.337  0.00  0.00    +0.000 C 
ATOM      6  C   UNL     1       4.881   5.544  19.419  0.00  0.00    +0.000 C 
ATOM      7  C   UNL     1       4.148   5.212  18.099  0.00  0.00    +0.000 C 
ATOM      8  C   UNL     1       4.879   5.766  16.845  0.00  0.00    +0.000 C 
ENDROOT
BRANCH   1  14
ATOM      9  C   UNL     1       8.243   5.457  13.099  0.00  0.00    +0.000 C 
ATOM     10  C   UNL     1       7.023   4.718  13.475  0.00  0.00    +0.000 A 
ATOM     11  N   UNL     1       6.218   4.208  12.540  0.00  0.00    +0.000 NA
ATOM     12  O   UNL     1       5.173   3.631  13.236  0.00  0.00    +0.000 OA
ATOM     13  N   UNL     1       5.336   3.795  14.607  0.00  0.00    +0.000 NA
ATOM     14  C   UNL     1       6.519   4.414  14.759  0.00  0.00    +0.000 A 
ENDBRANCH   1  14
BRANCH   7  15
ATOM     15  N   UNL     1       2.701   5.512  18.022  0.00  0.00    +0.000 NA
ATOM     16  C   UNL     1       1.936   5.243  19.251  0.00  0.00    +0.000 C 
ATOM     17  C   UNL     1       1.962   6.353  20.327  0.00  0.00    +0.000 C 
ATOM     18  N   UNL     1       1.705   7.681  19.743  0.00  0.00    +0.000 N 
ATOM     19  C   UNL     1       2.372   8.017  18.480  0.00  0.00    +0.000 C 
ATOM     20  C   UNL     1       2.299   6.832  17.497  0.00  0.00    +0.000 C 
BRANCH  18  21
ATOM     21  C   UNL     1       1.208   8.694  20.547  0.00  0.00    +0.000 A 
ATOM     22  C   UNL     1       0.865   9.963  20.051  0.00  0.00    +0.000 A 
ATOM     23  C   UNL     1       0.265  10.925  20.870  0.00  0.00    +0.000 A 
ATOM     24  C   UNL     1      -0.000  10.623  22.197  0.00  0.00    +0.000 A 
ATOM     25  F   UNL     1      -0.604  11.528  22.977  0.00  0.00    +0.000 F 
ATOM     26  C   UNL     1       0.342   9.389  22.724  0.00  0.00    +0.000 A 
ATOM     27  C   UNL     1       0.947   8.440  21.904  0.00  0.00    +0.000 A 
ENDBRANCH  18  21
ENDBRANCH   7  15
TORSDOF 3
ENDMDL
MODEL 7
REMARK VINA RESULT:      -6.7      1.043      1.604
REMARK  Name = 
REMARK  4 active torsions:
REMARK  status: ('A' for Active; 'I' for Inactive)
REMARK    1  A    between atoms: C_1  and  C_2
REMARK    2  A    between atoms: C_6  and  C_7
REMARK    3  A    between atoms: C_13  and  N_14
REMARK    4  A    between atoms: N_17  and  C_18
REMARK                            x       y       z     vdW  Elec       q    Type
REMARK                         _______ _______ _______ _____ _____    ______ ____
ROOT
ATOM      1  C   UNL     1       4.645   3.744  18.757  0.00  0.00    +0.000 C 
ATOM      2  O   UNL     1       4.336   2.573  18.546  0.00  0.00    +0.000 OA
ATOM      3  N   UNL     1       3.906   4.540  19.638  0.00  0.00    +0.000 N 
ATOM      4  C   UNL     1       2.894   3.937  20.493  0.00  0.00    +0.000 C 
ATOM      5  C   UNL     1       1.512   4.298  19.981  0.00  0.00    +0.000 C 
ATOM      6  C   UNL     1       1.323   5.815  19.925  0.00  0.00    +0.000 C 
ATOM      7  C   UNL     1       2.487   6.577  19.253  0.00  0.00    +0.000 C 
ATOM      8  C   UNL     1       3.882   6.003  19.626  0.00  0.00    +0.000 C 
ENDROOT
BRANCH   1  14
ATOM      9  C   UNL     1       5.054   4.358  15.584  0.00  0.00    +0.000 C 
ATOM     10  C   UNL     1       5.981   4.589  16.709  0.00  0.00    +0.000 A 
ATOM     11  N   UNL     1       7.183   5.132  16.502  0.00  0.00    +0.000 NA
ATOM     12  O   UNL     1       7.787   5.161  17.745  0.00  0.00    +0.000 OA
ATOM     13  N   UNL     1       6.951   4.625  18.718  0.00  0.00    +0.000 NA
ATOM     14  C   UNL     1       5.803   4.328  18.085  0.00  0.00    +0.000 A 
ENDBRANCH   1  14
BRANCH   7  15
ATOM     15  N   UNL     1       2.496   8.053  19.360  0.00  0.00    +0.000 NA
ATOM     16  C   UNL     1       2.307   8.777  18.092  0.00  0.00    +0.000 C 
ATOM     17  C   UNL     1       0.845   8.964  17.626  0.00  0.00    +0.000 C 
ATOM     18  N   UNL     1      -0.017   9.442  18.721  0.00  0.00    +0.000 N 
ATOM     19  C   UNL     1       0.145   8.825  20.042  0.00  0.00    +0.000 C 
ATOM     20  C   UNL     1       1.639   8.673  20.389  0.00  0.00    +0.000 C 
BRANCH  18  21
ATOM     21  C   UNL     1      -1.187  10.122  18.420  0.00  0.00    +0.000 A 
ATOM     22  C   UNL     1      -1.662  11.198  19.187  0.00  0.00    +0.000 A 
ATOM     23  C   UNL     1      -2.787  11.931  18.792  0.00  0.00    +0.000 A 
ATOM     24  C   UNL     1      -3.446  11.591  17.621  0.00  0.00    +0.000 A 
ATOM     25  F   UNL     1      -4.504  12.309  17.221  0.00  0.00    +0.000 F 
ATOM     26  C   UNL     1      -3.016  10.524  16.851  0.00  0.00    +0.000 A 
ATOM     27  C   UNL     1      -1.902   9.795  17.255  0.00  0.00    +0.000 A 
ENDBRANCH  18  21
ENDBRANCH   7  15
TORSDOF 3
ENDMDL
MODEL 8
REMARK VINA RESULT:      -6.6      5.294     10.135
REMARK  Name = 
REMARK  4 active torsions:
REMARK  status: ('A' for Active; 'I' for Inactive)
REMARK    1  A    between atoms: C_1  and  C_2
REMARK    2  A    between atoms: C_6  and  C_7
REMARK    3  A    between atoms: C_13  and  N_14
REMARK    4  A    between atoms: N_17  and  C_18
REMARK                            x       y       z     vdW  Elec       q    Type
REMARK                         _______ _______ _______ _____ _____    ______ ____
ROOT
ATOM      1  C   UNL     1      -5.309  12.014  19.220  0.00  0.00    +0.000 C 
ATOM      2  O   UNL     1      -6.345  11.506  18.795  0.00  0.00    +0.000 OA
ATOM      3  N   UNL     1      -4.115  11.936  18.496  0.00  0.00    +0.000 N 
ATOM      4  C   UNL     1      -4.123  11.450  17.124  0.00  0.00    +0.000 C 
ATOM      5  C   UNL     1      -3.527  10.055  17.072  0.00  0.00    +0.000 C 
ATOM      6  C   UNL     1      -2.102  10.043  17.630  0.00  0.00    +0.000 C 
ATOM      7  C   UNL     1      -1.943  10.772  18.984  0.00  0.00    +0.000 C 
ATOM      8  C   UNL     1      -2.777  12.080  19.069  0.00  0.00    +0.000 C 
ENDROOT
BRANCH   1  14
ATOM      9  C   UNL     1      -5.561  15.214  19.779  0.00  0.00    +0.000 C 
ATOM     10  C   UNL     1      -5.413  14.105  20.741  0.00  0.00    +0.000 A 
ATOM     11  N   UNL     1      -5.377  14.341  22.054  0.00  0.00    +0.000 NA
ATOM     12  O   UNL     1      -5.191  13.103  22.641  0.00  0.00    +0.000 OA
ATOM     13  N   UNL     1      -5.106  12.103  21.679  0.00  0.00    +0.000 NA
ATOM     14  C   UNL     1      -5.309  12.717  20.501  0.00  0.00    +0.000 A 
ENDBRANCH   1  14
BRANCH   7  15
ATOM     15  N   UNL     1      -0.570  11.007  19.481  0.00  0.00    +0.000 NA
ATOM     16  C   UNL     1      -0.156  10.162  20.613  0.00  0.00    +0.000 C 
ATOM     17  C   UNL     1       0.369   8.752  20.256  0.00  0.00    +0.000 C 
ATOM     18  N   UNL     1       1.351   8.801  19.158  0.00  0.00    +0.000 N 
ATOM     19  C   UNL     1       1.058   9.670  18.013  0.00  0.00    +0.000 C 
ATOM     20  C   UNL     1       0.525  11.035  18.490  0.00  0.00    +0.000 C 
BRANCH  18  21
ATOM     21  C   UNL     1       2.274   7.776  19.024  0.00  0.00    +0.000 A 
ATOM     22  C   UNL     1       2.381   6.721  19.945  0.00  0.00    +0.000 A 
ATOM     23  C   UNL     1       3.249   5.646  19.721  0.00  0.00    +0.000 A 
ATOM     24  C   UNL     1       4.018   5.619  18.567  0.00  0.00    +0.000 A 
ATOM     25  F   UNL     1       4.826   4.578  18.331  0.00  0.00    +0.000 F 
ATOM     26  C   UNL     1       3.951   6.652  17.648  0.00  0.00    +0.000 A 
ATOM     27  C   UNL     1       3.091   7.722  17.882  0.00  0.00    +0.000 A 
ENDBRANCH  18  21
ENDBRANCH   7  15
TORSDOF 3
ENDMDL
MODEL 9
REMARK VINA RESULT:      -6.6      4.916      9.312
REMARK  Name = 
REMARK  4 active torsions:
REMARK  status: ('A' for Active; 'I' for Inactive)
REMARK    1  A    between atoms: C_1  and  C_2
REMARK    2  A    between atoms: C_6  and  C_7
REMARK    3  A    between atoms: C_13  and  N_14
REMARK    4  A    between atoms: N_17  and  C_18
REMARK                            x       y       z     vdW  Elec       q    Type
REMARK                         _______ _______ _______ _____ _____    ______ ____
ROOT
ATOM      1  C   UNL     1      -2.548  12.368  20.233  0.00  0.00    +0.000 C 
ATOM      2  O   UNL     1      -3.758  12.314  20.019  0.00  0.00    +0.000 OA
ATOM      3  N   UNL     1      -1.622  12.008  19.249  0.00  0.00    +0.000 N 
ATOM      4  C   UNL     1      -2.063  11.780  17.881  0.00  0.00    +0.000 C 
ATOM      5  C   UNL     1      -2.036  10.293  17.577  0.00  0.00    +0.000 C 
ATOM      6  C   UNL     1      -0.636   9.712  17.787  0.00  0.00    +0.000 C 
ATOM      7  C   UNL     1       0.026  10.117  19.123  0.00  0.00    +0.000 C 
ATOM      8  C   UNL     1      -0.242  11.598  19.507  0.00  0.00    +0.000 C 
ENDROOT
BRANCH   1  14
ATOM      9  C   UNL     1      -1.199  15.227  21.018  0.00  0.00    +0.000 C 
ATOM     10  C   UNL     1      -1.464  14.053  21.870  0.00  0.00    +0.000 A 
ATOM     11  N   UNL     1      -1.151  14.067  23.168  0.00  0.00    +0.000 NA
ATOM     12  O   UNL     1      -1.492  12.812  23.638  0.00  0.00    +0.000 OA
ATOM     13  N   UNL     1      -2.010  12.022  22.618  0.00  0.00    +0.000 NA
ATOM     14  C   UNL     1      -2.054  12.814  21.533  0.00  0.00    +0.000 A 
ENDBRANCH   1  14
BRANCH   7  15
ATOM     15  N   UNL     1       1.458   9.791  19.306  0.00  0.00    +0.000 NA
ATOM     16  C   UNL     1       1.745   8.758  20.315  0.00  0.00    +0.000 C 
ATOM     17  C   UNL     1       1.620   7.291  19.843  0.00  0.00    +0.000 C 
ATOM     18  N   UNL     1       2.305   7.075  18.557  0.00  0.00    +0.000 N 
ATOM     19  C   UNL     1       2.134   8.087  17.509  0.00  0.00    +0.000 C 
ATOM     20  C   UNL     1       2.259   9.505  18.099  0.00  0.00    +0.000 C 
BRANCH  18  21
ATOM     21  C   UNL     1       2.730   5.801  18.217  0.00  0.00    +0.000 A 
ATOM     22  C   UNL     1       4.087   5.454  18.103  0.00  0.00    +0.000 A 
ATOM     23  C   UNL     1       4.481   4.133  17.866  0.00  0.00    +0.000 A 
ATOM     24  C   UNL     1       3.517   3.144  17.742  0.00  0.00    +0.000 A 
ATOM     25  F   UNL     1       3.890   1.873  17.547  0.00  0.00    +0.000 F 
ATOM     26  C   UNL     1       2.171   3.454  17.829  0.00  0.00    +0.000 A 
ATOM     27  C   UNL     1       1.786   4.772  18.057  0.00  0.00    +0.000 A 
ENDBRANCH  18  21
ENDBRANCH   7  15
TORSDOF 3
ENDMDL
