MODEL 1
REMARK VINA RESULT:      -7.8      0.000      0.000
REMARK  Name = 
REMARK  6 active torsions:
REMARK  status: ('A' for Active; 'I' for Inactive)
REMARK    1  A    between atoms: C_1  and  C_2
REMARK    2  A    between atoms: C_2  and  C_3
REMARK    3  A    between atoms: C_2  and  C_4
REMARK    4  A    between atoms: C_2  and  N_5
REMARK    5  A    between atoms: C_6  and  C_8
REMARK    6  A    between atoms: N_10  and  C_11
REMARK                            x       y       z     vdW  Elec       q    Type
REMARK                         _______ _______ _______ _____ _____    ______ ____
ROOT
ATOM      1  C   UNL     1       4.278   5.424  18.998  0.00  0.00    +0.000 A 
ATOM      2  N   UNL     1       3.750   6.677  18.997  0.00  0.00    +0.000 NA
ATOM      3  N   UNL     1       2.589   6.579  19.736  0.00  0.00    +0.000 N 
ATOM      4  C   UNL     1       2.359   5.279  20.039  0.00  0.00    +0.000 A 
ATOM      5  C   UNL     1       3.471   4.546  19.745  0.00  0.00    +0.000 A 
ATOM      6  C   UNL     1       3.060   3.097  19.720  0.00  0.00    +0.000 C 
ATOM      7  C   UNL     1       2.532   2.645  21.111  0.00  0.00    +0.000 C 
ATOM      8  C   UNL     1       1.270   3.531  21.356  0.00  0.00    +0.000 C 
ATOM      9  C   UNL     1       1.170   4.368  20.068  0.00  0.00    +0.000 C 
ATOM     10  C   UNL     1       1.676   3.300  19.019  0.00  0.00    +0.000 C 
ENDROOT
BRANCH   3  11
ATOM     11  C   UNL     1       1.773   7.692  20.042  0.00  0.00    +0.000 A 
ATOM     12  C   UNL     1       1.203   7.826  21.314  0.00  0.00    +0.000 A 
ATOM     13  C   UNL     1       0.408   8.942  21.601  0.00  0.00    +0.000 A 
ATOM     14  C   UNL     1       0.157   9.890  20.611  0.00  0.00    +0.000 A 
ATOM     15  F   UNL     1      -0.620  10.945  20.889  0.00  0.00    +0.000 F 
ATOM     16  C   UNL     1       0.692   9.754  19.340  0.00  0.00    +0.000 A 
ATOM     17  C   UNL     1       1.507   8.662  19.065  0.00  0.00    +0.000 A 
ATOM     18  F   UNL     1       1.971   8.542  17.813  0.00  0.00    +0.000 F 
ENDBRANCH   3  11
BRANCH   1  20
ATOM     19  N   UNL     1       5.196   5.293  16.778  0.00  0.00    +0.000 N 
ATOM     20  C   UNL     1       5.367   4.998  18.117  0.00  0.00    +0.000 C 
ATOM     21  O   UNL     1       6.315   4.338  18.543  0.00  0.00    +0.000 OA
ATOM     22  H   UNL     1       4.332   5.780  16.566  0.00  0.00    +0.000 HD
BRANCH  19  24
ATOM     23  C   UNL     1       5.846   3.216  15.585  0.00  0.00    +0.000 C 
ATOM     24  C   UNL     1       6.026   4.743  15.698  0.00  0.00    +0.000 C 
ATOM     25  C   UNL     1       7.510   5.077  15.924  0.00  0.00    +0.000 C 
ATOM     26  C   UNL     1       5.589   5.371  14.365  0.00  0.00    +0.000 C 
ENDBRANCH  19  24
ENDBRANCH   1  20
TORSDOF 3
ENDMDL
MODEL 2
REMARK VINA RESULT:      -7.8      2.754      6.488
REMARK  Name = 
REMARK  6 active torsions:
REMARK  status: ('A' for Active; 'I' for Inactive)
REMARK    1  A    between atoms: C_1  and  C_2
REMARK    2  A    between atoms: C_2  and  C_3
REMARK    3  A    between atoms: C_2  and  C_4
REMARK    4  A    between atoms: C_2  and  N_5
REMARK    5  A    between atoms: C_6  and  C_8
REMARK    6  A    between atoms: N_10  and  C_11
REMARK                            x       y       z     vdW  Elec       q    Type
REMARK                         _______ _______ _______ _____ _____    ______ ____
ROOT
ATOM      1  C   UNL     1       2.137   6.919  19.443  0.00  0.00    +0.000 A 
ATOM      2  N   UNL     1       3.227   7.070  18.645  0.00  0.00    +0.000 NA
ATOM      3  N   UNL     1       3.639   5.787  18.350  0.00  0.00    +0.000 N 
ATOM      4  C   UNL     1       2.906   4.905  19.072  0.00  0.00    +0.000 A 
ATOM      5  C   UNL     1       1.849   5.556  19.637  0.00  0.00    +0.000 A 
ATOM      6  C   UNL     1       1.299   4.663  20.718  0.00  0.00    +0.000 C 
ATOM      7  C   UNL     1       0.784   3.322  20.123  0.00  0.00    +0.000 C 
ATOM      8  C   UNL     1       2.054   2.656  19.507  0.00  0.00    +0.000 C 
ATOM      9  C   UNL     1       3.177   3.652  19.847  0.00  0.00    +0.000 C 
ATOM     10  C   UNL     1       2.672   4.146  21.260  0.00  0.00    +0.000 C 
ENDROOT
BRANCH   3  11
ATOM     11  C   UNL     1       4.709   5.503  17.472  0.00  0.00    +0.000 A 
ATOM     12  C   UNL     1       5.860   6.301  17.475  0.00  0.00    +0.000 A 
ATOM     13  C   UNL     1       6.915   5.996  16.607  0.00  0.00    +0.000 A 
ATOM     14  C   UNL     1       6.799   4.927  15.721  0.00  0.00    +0.000 A 
ATOM     15  F   UNL     1       7.806   4.654  14.880  0.00  0.00    +0.000 F 
ATOM     16  C   UNL     1       5.655   4.147  15.689  0.00  0.00    +0.000 A 
ATOM     17  C   UNL     1       4.620   4.431  16.573  0.00  0.00    +0.000 A 
ATOM     18  F   UNL     1       3.512   3.682  16.482  0.00  0.00    +0.000 F 
ENDBRANCH   3  11
BRANCH   1  20
ATOM     19  N   UNL     1       0.743   8.879  19.486  0.00  0.00    +0.000 N 
ATOM     20  C   UNL     1       1.533   8.009  20.212  0.00  0.00    +0.000 C 
ATOM     21  O   UNL     1       1.797   8.178  21.402  0.00  0.00    +0.000 OA
ATOM     22  H   UNL     1       0.672   8.653  18.499  0.00  0.00    +0.000 HD
BRANCH  19  24
ATOM     23  C   UNL     1       1.354  11.246  19.919  0.00  0.00    +0.000 C 
ATOM     24  C   UNL     1       0.253  10.169  19.991  0.00  0.00    +0.000 C 
ATOM     25  C   UNL     1      -0.251  10.033  21.438  0.00  0.00    +0.000 C 
ATOM     26  C   UNL     1      -0.921  10.634  19.114  0.00  0.00    +0.000 C 
ENDBRANCH  19  24
ENDBRANCH   1  20
TORSDOF 3
ENDMDL
MODEL 3
REMARK VINA RESULT:      -7.7      2.747      6.537
REMARK  Name = 
REMARK  6 active torsions:
REMARK  status: ('A' for Active; 'I' for Inactive)
REMARK    1  A    between atoms: C_1  and  C_2
REMARK    2  A    between atoms: C_2  and  C_3
REMARK    3  A    between atoms: C_2  and  C_4
REMARK    4  A    between atoms: C_2  and  N_5
REMARK    5  A    between atoms: C_6  and  C_8
REMARK    6  A    between atoms: N_10  and  C_11
REMARK                            x       y       z     vdW  Elec       q    Type
REMARK                         _______ _______ _______ _____ _____    ______ ____
ROOT
ATOM      1  C   UNL     1       2.176   6.946  19.499  0.00  0.00    +0.000 A 
ATOM      2  N   UNL     1       3.298   7.096  18.746  0.00  0.00    +0.000 NA
ATOM      3  N   UNL     1       3.710   5.812  18.453  0.00  0.00    +0.000 N 
ATOM      4  C   UNL     1       2.942   4.929  19.136  0.00  0.00    +0.000 A 
ATOM      5  C   UNL     1       1.869   5.583  19.666  0.00  0.00    +0.000 A 
ATOM      6  C   UNL     1       1.269   4.684  20.714  0.00  0.00    +0.000 C 
ATOM      7  C   UNL     1       0.767   3.353  20.085  0.00  0.00    +0.000 C 
ATOM      8  C   UNL     1       2.055   2.683  19.512  0.00  0.00    +0.000 C 
ATOM      9  C   UNL     1       3.172   3.666  19.907  0.00  0.00    +0.000 C 
ATOM     10  C   UNL     1       2.615   4.149  21.305  0.00  0.00    +0.000 C 
ENDROOT
BRANCH   3  11
ATOM     11  C   UNL     1       4.812   5.528  17.615  0.00  0.00    +0.000 A 
ATOM     12  C   UNL     1       4.665   5.535  16.222  0.00  0.00    +0.000 A 
ATOM     13  C   UNL     1       5.772   5.264  15.409  0.00  0.00    +0.000 A 
ATOM     14  C   UNL     1       6.999   4.950  15.988  0.00  0.00    +0.000 A 
ATOM     15  F   UNL     1       8.049   4.673  15.202  0.00  0.00    +0.000 F 
ATOM     16  C   UNL     1       7.151   4.911  17.365  0.00  0.00    +0.000 A 
ATOM     17  C   UNL     1       6.059   5.212  18.171  0.00  0.00    +0.000 A 
ATOM     18  F   UNL     1       6.233   5.121  19.497  0.00  0.00    +0.000 F 
ENDBRANCH   3  11
BRANCH   1  20
ATOM     19  N   UNL     1       0.742   8.877  19.519  0.00  0.00    +0.000 N 
ATOM     20  C   UNL     1       1.551   8.032  20.255  0.00  0.00    +0.000 C 
ATOM     21  O   UNL     1       1.814   8.223  21.442  0.00  0.00    +0.000 OA
ATOM     22  H   UNL     1       0.674   8.636  18.535  0.00  0.00    +0.000 HD
BRANCH  19  24
ATOM     23  C   UNL     1       1.320  11.249  19.969  0.00  0.00    +0.000 C 
ATOM     24  C   UNL     1       0.226  10.163  20.009  0.00  0.00    +0.000 C 
ATOM     25  C   UNL     1      -0.319  10.024  21.440  0.00  0.00    +0.000 C 
ATOM     26  C   UNL     1      -0.925  10.617  19.097  0.00  0.00    +0.000 C 
ENDBRANCH  19  24
ENDBRANCH   1  20
TORSDOF 3
ENDMDL
MODEL 4
REMARK VINA RESULT:      -7.4      2.871      6.671
REMARK  Name = 
REMARK  6 active torsions:
REMARK  status: ('A' for Active; 'I' for Inactive)
REMARK    1  A    between atoms: C_1  and  C_2
REMARK    2  A    between atoms: C_2  and  C_3
REMARK    3  A    between atoms: C_2  and  C_4
REMARK    4  A    between atoms: C_2  and  N_5
REMARK    5  A    between atoms: C_6  and  C_8
REMARK    6  A    between atoms: N_10  and  C_11
REMARK                            x       y       z     vdW  Elec       q    Type
REMARK                         _______ _______ _______ _____ _____    ______ ____
ROOT
ATOM      1  C   UNL     1       2.214   7.127  18.963  0.00  0.00    +0.000 A 
ATOM      2  N   UNL     1       3.302   7.195  18.150  0.00  0.00    +0.000 NA
ATOM      3  N   UNL     1       3.715   5.889  17.990  0.00  0.00    +0.000 N 
ATOM      4  C   UNL     1       2.987   5.086  18.803  0.00  0.00    +0.000 A 
ATOM      5  C   UNL     1       1.930   5.791  19.300  0.00  0.00    +0.000 A 
ATOM      6  C   UNL     1       1.385   5.016  20.471  0.00  0.00    +0.000 C 
ATOM      7  C   UNL     1       0.871   3.618  20.023  0.00  0.00    +0.000 C 
ATOM      8  C   UNL     1       2.141   2.894  19.476  0.00  0.00    +0.000 C 
ATOM      9  C   UNL     1       3.262   3.923  19.705  0.00  0.00    +0.000 C 
ATOM     10  C   UNL     1       2.761   4.562  21.060  0.00  0.00    +0.000 C 
ENDROOT
BRANCH   3  11
ATOM     11  C   UNL     1       4.783   5.516  17.144  0.00  0.00    +0.000 A 
ATOM     12  C   UNL     1       5.935   6.309  17.063  0.00  0.00    +0.000 A 
ATOM     13  C   UNL     1       6.988   5.915  16.229  0.00  0.00    +0.000 A 
ATOM     14  C   UNL     1       6.869   4.763  15.455  0.00  0.00    +0.000 A 
ATOM     15  F   UNL     1       7.874   4.404  14.645  0.00  0.00    +0.000 F 
ATOM     16  C   UNL     1       5.724   3.985  15.505  0.00  0.00    +0.000 A 
ATOM     17  C   UNL     1       4.691   4.359  16.357  0.00  0.00    +0.000 A 
ATOM     18  F   UNL     1       3.582   3.606  16.345  0.00  0.00    +0.000 F 
ENDBRANCH   3  11
BRANCH   1  20
ATOM     19  N   UNL     1       1.633   8.274  20.996  0.00  0.00    +0.000 N 
ATOM     20  C   UNL     1       1.610   8.290  19.615  0.00  0.00    +0.000 C 
ATOM     21  O   UNL     1       1.038   9.165  18.964  0.00  0.00    +0.000 OA
ATOM     22  H   UNL     1       2.077   7.454  21.396  0.00  0.00    +0.000 HD
BRANCH  19  24
ATOM     23  C   UNL     1       0.847  10.615  21.244  0.00  0.00    +0.000 C 
ATOM     24  C   UNL     1       0.870   9.197  21.847  0.00  0.00    +0.000 C 
ATOM     25  C   UNL     1       1.458   9.244  23.268  0.00  0.00    +0.000 C 
ATOM     26  C   UNL     1      -0.581   8.700  21.944  0.00  0.00    +0.000 C 
ENDBRANCH  19  24
ENDBRANCH   1  20
TORSDOF 3
ENDMDL
MODEL 5
REMARK VINA RESULT:      -7.4      2.660      6.653
REMARK  Name = 
REMARK  6 active torsions:
REMARK  status: ('A' for Active; 'I' for Inactive)
REMARK    1  A    between atoms: C_1  and  C_2
REMARK    2  A    between atoms: C_2  and  C_3
REMARK    3  A    between atoms: C_2  and  C_4
REMARK    4  A    between atoms: C_2  and  N_5
REMARK    5  A    between atoms: C_6  and  C_8
REMARK    6  A    between atoms: N_10  and  C_11
REMARK                            x       y       z     vdW  Elec       q    Type
REMARK                         _______ _______ _______ _____ _____    ______ ____
ROOT
ATOM      1  C   UNL     1       2.282   7.089  18.775  0.00  0.00    +0.000 A 
ATOM      2  N   UNL     1       3.343   7.152  17.928  0.00  0.00    +0.000 NA
ATOM      3  N   UNL     1       3.750   5.845  17.762  0.00  0.00    +0.000 N 
ATOM      4  C   UNL     1       3.047   5.047  18.603  0.00  0.00    +0.000 A 
ATOM      5  C   UNL     1       2.007   5.755  19.129  0.00  0.00    +0.000 A 
ATOM      6  C   UNL     1       1.498   4.987  20.320  0.00  0.00    +0.000 C 
ATOM      7  C   UNL     1       0.970   3.587  19.895  0.00  0.00    +0.000 C 
ATOM      8  C   UNL     1       2.222   2.859  19.313  0.00  0.00    +0.000 C 
ATOM      9  C   UNL     1       3.350   3.888  19.501  0.00  0.00    +0.000 C 
ATOM     10  C   UNL     1       2.892   4.535  20.868  0.00  0.00    +0.000 C 
ENDROOT
BRANCH   3  11
ATOM     11  C   UNL     1       4.791   5.467  16.885  0.00  0.00    +0.000 A 
ATOM     12  C   UNL     1       4.602   4.428  15.964  0.00  0.00    +0.000 A 
ATOM     13  C   UNL     1       5.641   4.077  15.095  0.00  0.00    +0.000 A 
ATOM     14  C   UNL     1       6.867   4.733  15.177  0.00  0.00    +0.000 A 
ATOM     15  F   UNL     1       7.863   4.377  14.354  0.00  0.00    +0.000 F 
ATOM     16  C   UNL     1       7.077   5.742  16.102  0.00  0.00    +0.000 A 
ATOM     17  C   UNL     1       6.034   6.112  16.944  0.00  0.00    +0.000 A 
ATOM     18  F   UNL     1       6.289   7.062  17.855  0.00  0.00    +0.000 F 
ENDBRANCH   3  11
BRANCH   1  20
ATOM     19  N   UNL     1       1.663   8.197  20.820  0.00  0.00    +0.000 N 
ATOM     20  C   UNL     1       1.698   8.256  19.440  0.00  0.00    +0.000 C 
ATOM     21  O   UNL     1       1.191   9.174  18.796  0.00  0.00    +0.000 OA
ATOM     22  H   UNL     1       2.055   7.346  21.210  0.00  0.00    +0.000 HD
BRANCH  19  24
ATOM     23  C   UNL     1       0.862  10.535  21.048  0.00  0.00    +0.000 C 
ATOM     24  C   UNL     1       0.902   9.124  21.669  0.00  0.00    +0.000 C 
ATOM     25  C   UNL     1       1.507   9.193  23.081  0.00  0.00    +0.000 C 
ATOM     26  C   UNL     1      -0.544   8.618  21.788  0.00  0.00    +0.000 C 
ENDBRANCH  19  24
ENDBRANCH   1  20
TORSDOF 3
ENDMDL
MODEL 6
REMARK VINA RESULT:      -7.2      3.526      5.427
REMARK  Name = 
REMARK  6 active torsions:
REMARK  status: ('A' for Active; 'I' for Inactive)
REMARK    1  A    between atoms: C_1  and  C_2
REMARK    2  A    between atoms: C_2  and  C_3
REMARK    3  A    between atoms: C_2  and  C_4
REMARK    4  A    between atoms: C_2  and  N_5
REMARK    5  A    between atoms: C_6  and  C_8
REMARK    6  A    between atoms: N_10  and  C_11
REMARK                            x       y       z     vdW  Elec       q    Type
REMARK                         _______ _______ _______ _____ _____    ______ ____
ROOT
ATOM      1  C   UNL     1       5.467   4.787  15.546  0.00  0.00    +0.000 A 
ATOM      2  N   UNL     1       4.364   4.156  16.030  0.00  0.00    +0.000 NA
ATOM      3  N   UNL     1       4.408   4.350  17.395  0.00  0.00    +0.000 N 
ATOM      4  C   UNL     1       5.579   4.946  17.725  0.00  0.00    +0.000 A 
ATOM      5  C   UNL     1       6.193   5.389  16.590  0.00  0.00    +0.000 A 
ATOM      6  C   UNL     1       7.627   5.683  16.942  0.00  0.00    +0.000 C 
ATOM      7  C   UNL     1       7.719   6.805  18.014  0.00  0.00    +0.000 C 
ATOM      8  C   UNL     1       6.997   6.209  19.264  0.00  0.00    +0.000 C 
ATOM      9  C   UNL     1       6.605   4.793  18.805  0.00  0.00    +0.000 C 
ATOM     10  C   UNL     1       7.849   4.459  17.890  0.00  0.00    +0.000 C 
ENDROOT
BRANCH   3  11
ATOM     11  C   UNL     1       3.389   3.911  18.269  0.00  0.00    +0.000 A 
ATOM     12  C   UNL     1       2.673   4.832  19.045  0.00  0.00    +0.000 A 
ATOM     13  C   UNL     1       1.658   4.378  19.895  0.00  0.00    +0.000 A 
ATOM     14  C   UNL     1       1.392   3.014  19.995  0.00  0.00    +0.000 A 
ATOM     15  F   UNL     1       0.432   2.587  20.826  0.00  0.00    +0.000 F 
ATOM     16  C   UNL     1       2.112   2.091  19.255  0.00  0.00    +0.000 A 
ATOM     17  C   UNL     1       3.099   2.544  18.387  0.00  0.00    +0.000 A 
ATOM     18  F   UNL     1       3.802   1.618  17.720  0.00  0.00    +0.000 F 
ENDBRANCH   3  11
BRANCH   1  20
ATOM     19  N   UNL     1       5.172   3.860  13.345  0.00  0.00    +0.000 N 
ATOM     20  C   UNL     1       5.970   4.618  14.181  0.00  0.00    +0.000 C 
ATOM     21  O   UNL     1       7.073   5.047  13.846  0.00  0.00    +0.000 OA
ATOM     22  H   UNL     1       4.323   3.513  13.781  0.00  0.00    +0.000 HD
BRANCH  19  24
ATOM     23  C   UNL     1       6.027   1.877  12.122  0.00  0.00    +0.000 C 
ATOM     24  C   UNL     1       5.596   3.354  12.032  0.00  0.00    +0.000 C 
ATOM     25  C   UNL     1       6.748   4.201  11.466  0.00  0.00    +0.000 C 
ATOM     26  C   UNL     1       4.410   3.442  11.059  0.00  0.00    +0.000 C 
ENDBRANCH  19  24
ENDBRANCH   1  20
TORSDOF 3
ENDMDL
MODEL 7
REMARK VINA RESULT:      -7.2      1.222      1.609
REMARK  Name = 
REMARK  6 active torsions:
REMARK  status: ('A' for Active; 'I' for Inactive)
REMARK    1  A    between atoms: C_1  and  C_2
REMARK    2  A    between atoms: C_2  and  C_3
REMARK    3  A    between atoms: C_2  and  C_4
REMARK    4  A    between atoms: C_2  and  N_5
REMARK    5  A    between atoms: C_6  and  C_8
REMARK    6  A    between atoms: N_10  and  C_11
REMARK                            x       y       z     vdW  Elec       q    Type
REMARK                         _______ _______ _______ _____ _____    ______ ____
ROOT
ATOM      1  C   UNL     1       3.707   6.320  18.586  0.00  0.00    +0.000 A 
ATOM      2  N   UNL     1       3.077   7.500  18.834  0.00  0.00    +0.000 NA
ATOM      3  N   UNL     1       2.138   7.210  19.803  0.00  0.00    +0.000 N 
ATOM      4  C   UNL     1       2.110   5.872  20.013  0.00  0.00    +0.000 A 
ATOM      5  C   UNL     1       3.186   5.298  19.401  0.00  0.00    +0.000 A 
ATOM      6  C   UNL     1       2.919   3.819  19.320  0.00  0.00    +0.000 C 
ATOM      7  C   UNL     1       2.779   3.200  20.740  0.00  0.00    +0.000 C 
ATOM      8  C   UNL     1       1.533   3.912  21.354  0.00  0.00    +0.000 C 
ATOM      9  C   UNL     1       1.054   4.830  20.216  0.00  0.00    +0.000 C 
ATOM     10  C   UNL     1       1.396   3.915  18.975  0.00  0.00    +0.000 C 
ENDROOT
BRANCH   3  11
ATOM     11  C   UNL     1       1.316   8.193  20.398  0.00  0.00    +0.000 A 
ATOM     12  C   UNL     1       1.095   8.191  21.781  0.00  0.00    +0.000 A 
ATOM     13  C   UNL     1       0.288   9.181  22.354  0.00  0.00    +0.000 A 
ATOM     14  C   UNL     1      -0.321  10.136  21.543  0.00  0.00    +0.000 A 
ATOM     15  F   UNL     1      -1.108  11.069  22.097  0.00  0.00    +0.000 F 
ATOM     16  C   UNL     1      -0.133  10.133  20.170  0.00  0.00    +0.000 A 
ATOM     17  C   UNL     1       0.694   9.169  19.606  0.00  0.00    +0.000 A 
ATOM     18  F   UNL     1       0.817   9.171  18.271  0.00  0.00    +0.000 F 
ENDBRANCH   3  11
BRANCH   1  20
ATOM     19  N   UNL     1       5.591   5.160  17.643  0.00  0.00    +0.000 N 
ATOM     20  C   UNL     1       4.593   6.094  17.443  0.00  0.00    +0.000 C 
ATOM     21  O   UNL     1       4.501   6.767  16.417  0.00  0.00    +0.000 OA
ATOM     22  H   UNL     1       5.585   4.735  18.564  0.00  0.00    +0.000 HD
BRANCH  19  24
ATOM     23  C   UNL     1       7.212   6.304  16.151  0.00  0.00    +0.000 C 
ATOM     24  C   UNL     1       6.732   4.962  16.738  0.00  0.00    +0.000 C 
ATOM     25  C   UNL     1       6.365   3.996  15.599  0.00  0.00    +0.000 C 
ATOM     26  C   UNL     1       7.897   4.349  17.532  0.00  0.00    +0.000 C 
ENDBRANCH  19  24
ENDBRANCH   1  20
TORSDOF 3
ENDMDL
MODEL 8
REMARK VINA RESULT:      -7.2      2.624      6.474
REMARK  Name = 
REMARK  6 active torsions:
REMARK  status: ('A' for Active; 'I' for Inactive)
REMARK    1  A    between atoms: C_1  and  C_2
REMARK    2  A    between atoms: C_2  and  C_3
REMARK    3  A    between atoms: C_2  and  C_4
REMARK    4  A    between atoms: C_2  and  N_5
REMARK    5  A    between atoms: C_6  and  C_8
REMARK    6  A    between atoms: N_10  and  C_11
REMARK                            x       y       z     vdW  Elec       q    Type
REMARK                         _______ _______ _______ _____ _____    ______ ____
ROOT
ATOM      1  C   UNL     1       2.262   5.987  19.242  0.00  0.00    +0.000 A 
ATOM      2  N   UNL     1       3.356   6.364  18.528  0.00  0.00    +0.000 NA
ATOM      3  N   UNL     1       3.772   5.222  17.876  0.00  0.00    +0.000 N 
ATOM      4  C   UNL     1       3.038   4.167  18.307  0.00  0.00    +0.000 A 
ATOM      5  C   UNL     1       1.976   4.626  19.031  0.00  0.00    +0.000 A 
ATOM      6  C   UNL     1       1.422   3.458  19.803  0.00  0.00    +0.000 C 
ATOM      7  C   UNL     1       0.914   2.346  18.842  0.00  0.00    +0.000 C 
ATOM      8  C   UNL     1       2.189   1.888  18.066  0.00  0.00    +0.000 C 
ATOM      9  C   UNL     1       3.308   2.744  18.687  0.00  0.00    +0.000 C 
ATOM     10  C   UNL     1       2.794   2.806  20.180  0.00  0.00    +0.000 C 
ENDROOT
BRANCH   3  11
ATOM     11  C   UNL     1       4.848   5.205  16.960  0.00  0.00    +0.000 A 
ATOM     12  C   UNL     1       4.682   4.660  15.680  0.00  0.00    +0.000 A 
ATOM     13  C   UNL     1       5.756   4.665  14.782  0.00  0.00    +0.000 A 
ATOM     14  C   UNL     1       6.991   5.173  15.178  0.00  0.00    +0.000 A 
ATOM     15  F   UNL     1       8.019   5.156  14.319  0.00  0.00    +0.000 F 
ATOM     16  C   UNL     1       7.176   5.689  16.451  0.00  0.00    +0.000 A 
ATOM     17  C   UNL     1       6.100   5.713  17.331  0.00  0.00    +0.000 A 
ATOM     18  F   UNL     1       6.329   6.179  18.567  0.00  0.00    +0.000 F 
ENDBRANCH   3  11
BRANCH   1  20
ATOM     19  N   UNL     1       1.323   8.096  19.919  0.00  0.00    +0.000 N 
ATOM     20  C   UNL     1       1.651   6.806  20.290  0.00  0.00    +0.000 C 
ATOM     21  O   UNL     1       1.534   6.391  21.443  0.00  0.00    +0.000 OA
ATOM     22  H   UNL     1       1.542   8.320  18.953  0.00  0.00    +0.000 HD
BRANCH  19  24
ATOM     23  C   UNL     1       1.965   9.271  22.008  0.00  0.00    +0.000 C 
ATOM     24  C   UNL     1       0.942   9.157  20.861  0.00  0.00    +0.000 C 
ATOM     25  C   UNL     1      -0.461   8.899  21.437  0.00  0.00    +0.000 C 
ATOM     26  C   UNL     1       0.916  10.500  20.115  0.00  0.00    +0.000 C 
ENDBRANCH  19  24
ENDBRANCH   1  20
TORSDOF 3
ENDMDL
MODEL 9
REMARK VINA RESULT:      -7.2      2.712      6.470
REMARK  Name = 
REMARK  6 active torsions:
REMARK  status: ('A' for Active; 'I' for Inactive)
REMARK    1  A    between atoms: C_1  and  C_2
REMARK    2  A    between atoms: C_2  and  C_3
REMARK    3  A    between atoms: C_2  and  C_4
REMARK    4  A    between atoms: C_2  and  N_5
REMARK    5  A    between atoms: C_6  and  C_8
REMARK    6  A    between atoms: N_10  and  C_11
REMARK                            x       y       z     vdW  Elec       q    Type
REMARK                         _______ _______ _______ _____ _____    ______ ____
ROOT
ATOM      1  C   UNL     1       2.079   6.412  19.547  0.00  0.00    +0.000 A 
ATOM      2  N   UNL     1       3.185   6.618  18.783  0.00  0.00    +0.000 NA
ATOM      3  N   UNL     1       3.635   5.356  18.454  0.00  0.00    +0.000 N 
ATOM      4  C   UNL     1       2.908   4.432  19.126  0.00  0.00    +0.000 A 
ATOM      5  C   UNL     1       1.820   5.036  19.686  0.00  0.00    +0.000 A 
ATOM      6  C   UNL     1       1.266   4.093  20.720  0.00  0.00    +0.000 C 
ATOM      7  C   UNL     1       0.800   2.761  20.067  0.00  0.00    +0.000 C 
ATOM      8  C   UNL     1       2.102   2.149  19.460  0.00  0.00    +0.000 C 
ATOM      9  C   UNL     1       3.190   3.159  19.863  0.00  0.00    +0.000 C 
ATOM     10  C   UNL     1       2.639   3.590  21.279  0.00  0.00    +0.000 C 
ENDROOT
BRANCH   3  11
ATOM     11  C   UNL     1       4.734   5.130  17.595  0.00  0.00    +0.000 A 
ATOM     12  C   UNL     1       4.528   4.847  16.238  0.00  0.00    +0.000 A 
ATOM     13  C   UNL     1       5.629   4.638  15.401  0.00  0.00    +0.000 A 
ATOM     14  C   UNL     1       6.919   4.673  15.926  0.00  0.00    +0.000 A 
ATOM     15  F   UNL     1       7.967   4.453  15.121  0.00  0.00    +0.000 F 
ATOM     16  C   UNL     1       7.135   4.924  17.271  0.00  0.00    +0.000 A 
ATOM     17  C   UNL     1       6.042   5.163  18.097  0.00  0.00    +0.000 A 
ATOM     18  F   UNL     1       6.288   5.358  19.400  0.00  0.00    +0.000 F 
ENDBRANCH   3  11
BRANCH   1  20
ATOM     19  N   UNL     1       1.251   8.667  19.691  0.00  0.00    +0.000 N 
ATOM     20  C   UNL     1       1.428   7.459  20.338  0.00  0.00    +0.000 C 
ATOM     21  O   UNL     1       1.153   7.288  21.525  0.00  0.00    +0.000 OA
ATOM     22  H   UNL     1       1.591   8.681  18.735  0.00  0.00    +0.000 HD
BRANCH  19  24
ATOM     23  C   UNL     1      -0.674  10.053  20.420  0.00  0.00    +0.000 C 
ATOM     24  C   UNL     1       0.860   9.915  20.361  0.00  0.00    +0.000 C 
ATOM     25  C   UNL     1       1.467  11.133  19.644  0.00  0.00    +0.000 C 
ATOM     26  C   UNL     1       1.389   9.892  21.803  0.00  0.00    +0.000 C 
ENDBRANCH  19  24
ENDBRANCH   1  20
TORSDOF 3
ENDMDL
