MODEL 1
REMARK VINA RESULT:      -8.1      0.000      0.000
REMARK  Name = 
REMARK  5 active torsions:
REMARK  status: ('A' for Active; 'I' for Inactive)
REMARK    1  A    between atoms: C_2  and  C_3
REMARK    2  A    between atoms: C_9  and  C_10
REMARK    3  A    between atoms: N_12  and  C_13
REMARK    4  A    between atoms: C_20  and  N_21
REMARK    5  A    between atoms: C_23  and  C_24
REMARK                            x       y       z     vdW  Elec       q    Type
REMARK                         _______ _______ _______ _____ _____    ______ ____
ROOT
ATOM      1  C   UNL     1       3.668   3.604  19.873  0.00  0.00    +0.000 A 
ATOM      2  C   UNL     1       2.720   3.795  20.879  0.00  0.00    +0.000 A 
ATOM      3  N   UNL     1       2.512   2.878  21.909  0.00  0.00    +0.000 N 
ATOM      4  N   UNL     1       1.984   4.896  20.991  0.00  0.00    +0.000 NA
ATOM      5  C   UNL     1       2.243   5.867  20.104  0.00  0.00    +0.000 A 
ATOM      6  S   UNL     1       1.300   7.274  20.194  0.00  0.00    +0.000 S 
ATOM      7  C   UNL     1       2.164   8.023  18.932  0.00  0.00    +0.000 A 
ATOM      8  C   UNL     1       3.194   7.198  18.488  0.00  0.00    +0.000 A 
ATOM      9  C   UNL     1       3.203   5.867  19.089  0.00  0.00    +0.000 A 
ATOM     10  C   UNL     1       3.938   4.634  18.913  0.00  0.00    +0.000 A 
ATOM     11  H   UNL     1       2.368   1.923  21.602  0.00  0.00    +0.000 HD
ATOM     12  H   UNL     1       1.747   3.217  22.486  0.00  0.00    +0.000 HD
ENDROOT
BRANCH  10  13
ATOM     13  C   UNL     1       4.930   4.417  17.803  0.00  0.00    +0.000 A 
ATOM     14  C   UNL     1       4.462   3.985  16.535  0.00  0.00    +0.000 A 
ATOM     15  C   UNL     1       5.284   3.919  15.403  0.00  0.00    +0.000 A 
ATOM     16  C   UNL     1       6.642   4.157  15.520  0.00  0.00    +0.000 A 
ATOM     17  C   UNL     1       7.160   4.525  16.757  0.00  0.00    +0.000 A 
ATOM     18  C   UNL     1       6.309   4.723  17.864  0.00  0.00    +0.000 A 
ATOM     19 BR   UNL     1       7.143   5.541  19.372  0.00  0.00    +0.000 Br
ENDBRANCH  10  13
BRANCH   7  20
ATOM     20  C   UNL     1       1.784   9.357  18.442  0.00  0.00    +0.000 C 
ATOM     21  O   UNL     1       1.900   9.653  17.254  0.00  0.00    +0.000 OA
ATOM     22  N   UNL     1       1.315  10.231  19.415  0.00  0.00    +0.000 N 
ATOM     23  H   UNL     1       1.370   9.904  20.371  0.00  0.00    +0.000 HD
BRANCH  22  24
ATOM     24  C   UNL     1       0.842  11.554  19.229  0.00  0.00    +0.000 A 
ATOM     25  C   UNL     1      -0.507  11.878  19.073  0.00  0.00    +0.000 A 
ATOM     26  C   UNL     1      -0.903  13.205  18.879  0.00  0.00    +0.000 A 
ATOM     27  C   UNL     1       0.049  14.219  18.840  0.00  0.00    +0.000 A 
ATOM     28 CL   UNL     1      -0.442  15.847  18.584  0.00  0.00    +0.000 Cl
ATOM     29  C   UNL     1       1.396  13.914  19.010  0.00  0.00    +0.000 A 
ATOM     30  C   UNL     1       1.789  12.588  19.217  0.00  0.00    +0.000 A 
ENDBRANCH  22  24
ENDBRANCH   7  20
BRANCH   8  31
ATOM     31  N   UNL     1       4.080   7.645  17.568  0.00  0.00    +0.000 N 
ATOM     32  H   UNL     1       4.773   8.349  17.848  0.00  0.00    +0.000 HD
ATOM     33  H   UNL     1       3.870   7.697  16.578  0.00  0.00    +0.000 HD
ENDBRANCH   8  31
BRANCH   1  35
ATOM     34  N   UNL     1       4.880   1.305  19.884  0.00  0.00    +0.000 NA
ATOM     35  C   UNL     1       4.343   2.336  19.859  0.00  0.00    +0.000 C 
ENDBRANCH   1  35
TORSDOF 5
ENDMDL
MODEL 2
REMARK VINA RESULT:      -6.8      1.122      1.414
REMARK  Name = 
REMARK  5 active torsions:
REMARK  status: ('A' for Active; 'I' for Inactive)
REMARK    1  A    between atoms: C_2  and  C_3
REMARK    2  A    between atoms: C_9  and  C_10
REMARK    3  A    between atoms: N_12  and  C_13
REMARK    4  A    between atoms: C_20  and  N_21
REMARK    5  A    between atoms: C_23  and  C_24
REMARK                            x       y       z     vdW  Elec       q    Type
REMARK                         _______ _______ _______ _____ _____    ______ ____
ROOT
ATOM      1  C   UNL     1       3.523   3.683  20.081  0.00  0.00    +0.000 A 
ATOM      2  C   UNL     1       2.562   3.831  21.082  0.00  0.00    +0.000 A 
ATOM      3  N   UNL     1       2.377   2.896  22.099  0.00  0.00    +0.000 N 
ATOM      4  N   UNL     1       1.789   4.905  21.200  0.00  0.00    +0.000 NA
ATOM      5  C   UNL     1       2.023   5.895  20.326  0.00  0.00    +0.000 A 
ATOM      6  S   UNL     1       1.032   7.269  20.425  0.00  0.00    +0.000 S 
ATOM      7  C   UNL     1       1.880   8.060  19.178  0.00  0.00    +0.000 A 
ATOM      8  C   UNL     1       2.940   7.275  18.733  0.00  0.00    +0.000 A 
ATOM      9  C   UNL     1       2.989   5.938  19.319  0.00  0.00    +0.000 A 
ATOM     10  C   UNL     1       3.767   4.733  19.135  0.00  0.00    +0.000 A 
ATOM     11  H   UNL     1       2.267   1.940  21.781  0.00  0.00    +0.000 HD
ATOM     12  H   UNL     1       1.596   3.203  22.675  0.00  0.00    +0.000 HD
ENDROOT
BRANCH  10  13
ATOM     13  C   UNL     1       4.773   4.561  18.031  0.00  0.00    +0.000 A 
ATOM     14  C   UNL     1       6.093   5.047  18.220  0.00  0.00    +0.000 A 
ATOM     15  C   UNL     1       7.136   4.784  17.322  0.00  0.00    +0.000 A 
ATOM     16  C   UNL     1       6.874   4.135  16.129  0.00  0.00    +0.000 A 
ATOM     17  C   UNL     1       5.582   3.692  15.870  0.00  0.00    +0.000 A 
ATOM     18  C   UNL     1       4.564   3.837  16.834  0.00  0.00    +0.000 A 
ATOM     19 BR   UNL     1       2.958   2.883  16.446  0.00  0.00    +0.000 Br
ENDBRANCH  10  13
BRANCH   7  20
ATOM     20  C   UNL     1       1.460   9.386  18.700  0.00  0.00    +0.000 C 
ATOM     21  O   UNL     1       1.437   9.650  17.498  0.00  0.00    +0.000 OA
ATOM     22  N   UNL     1       1.121  10.293  19.697  0.00  0.00    +0.000 N 
ATOM     23  H   UNL     1       1.287   9.990  20.648  0.00  0.00    +0.000 HD
BRANCH  22  24
ATOM     24  C   UNL     1       0.644  11.617  19.532  0.00  0.00    +0.000 A 
ATOM     25  C   UNL     1      -0.707  11.964  19.580  0.00  0.00    +0.000 A 
ATOM     26  C   UNL     1      -1.109  13.290  19.395  0.00  0.00    +0.000 A 
ATOM     27  C   UNL     1      -0.160  14.281  19.161  0.00  0.00    +0.000 A 
ATOM     28 CL   UNL     1      -0.660  15.908  18.916  0.00  0.00    +0.000 Cl
ATOM     29  C   UNL     1       1.193  13.954  19.127  0.00  0.00    +0.000 A 
ATOM     30  C   UNL     1       1.593  12.629  19.325  0.00  0.00    +0.000 A 
ENDBRANCH  22  24
ENDBRANCH   7  20
BRANCH   8  31
ATOM     31  N   UNL     1       3.819   7.762  17.825  0.00  0.00    +0.000 N 
ATOM     32  H   UNL     1       3.459   8.300  17.028  0.00  0.00    +0.000 HD
ATOM     33  H   UNL     1       4.697   7.307  17.607  0.00  0.00    +0.000 HD
ENDBRANCH   8  31
BRANCH   1  35
ATOM     34  N   UNL     1       4.834   1.438  20.075  0.00  0.00    +0.000 NA
ATOM     35  C   UNL     1       4.240   2.439  20.059  0.00  0.00    +0.000 C 
ENDBRANCH   1  35
TORSDOF 5
ENDMDL
MODEL 3
REMARK VINA RESULT:      -6.8      4.057      9.550
REMARK  Name = 
REMARK  5 active torsions:
REMARK  status: ('A' for Active; 'I' for Inactive)
REMARK    1  A    between atoms: C_2  and  C_3
REMARK    2  A    between atoms: C_9  and  C_10
REMARK    3  A    between atoms: N_12  and  C_13
REMARK    4  A    between atoms: C_20  and  N_21
REMARK    5  A    between atoms: C_23  and  C_24
REMARK                            x       y       z     vdW  Elec       q    Type
REMARK                         _______ _______ _______ _____ _____    ______ ____
ROOT
ATOM      1  C   UNL     1      -0.721  13.380  21.949  0.00  0.00    +0.000 A 
ATOM      2  C   UNL     1      -1.117  12.234  22.640  0.00  0.00    +0.000 A 
ATOM      3  N   UNL     1      -1.972  12.271  23.741  0.00  0.00    +0.000 N 
ATOM      4  N   UNL     1      -0.778  11.004  22.270  0.00  0.00    +0.000 NA
ATOM      5  C   UNL     1      -0.069  10.906  21.137  0.00  0.00    +0.000 A 
ATOM      6  S   UNL     1       0.411   9.353  20.651  0.00  0.00    +0.000 S 
ATOM      7  C   UNL     1       1.134   9.941  19.226  0.00  0.00    +0.000 A 
ATOM      8  C   UNL     1       0.958  11.318  19.122  0.00  0.00    +0.000 A 
ATOM      9  C   UNL     1       0.342  11.939  20.291  0.00  0.00    +0.000 A 
ATOM     10  C   UNL     1       0.050  13.281  20.744  0.00  0.00    +0.000 A 
ATOM     11  H   UNL     1      -1.699  12.924  24.467  0.00  0.00    +0.000 HD
ATOM     12  H   UNL     1      -2.075  11.323  24.095  0.00  0.00    +0.000 HD
ENDROOT
BRANCH  10  13
ATOM     13  C   UNL     1       0.512  14.515  20.018  0.00  0.00    +0.000 A 
ATOM     14  C   UNL     1      -0.387  15.178  19.143  0.00  0.00    +0.000 A 
ATOM     15  C   UNL     1      -0.104  16.419  18.559  0.00  0.00    +0.000 A 
ATOM     16  C   UNL     1       1.146  16.990  18.720  0.00  0.00    +0.000 A 
ATOM     17  C   UNL     1       2.084  16.348  19.521  0.00  0.00    +0.000 A 
ATOM     18  C   UNL     1       1.750  15.168  20.216  0.00  0.00    +0.000 A 
ATOM     19 BR   UNL     1       3.037  14.619  21.513  0.00  0.00    +0.000 Br
ENDBRANCH  10  13
BRANCH   7  20
ATOM     20  C   UNL     1       1.836   9.036  18.305  0.00  0.00    +0.000 C 
ATOM     21  O   UNL     1       2.051   9.360  17.137  0.00  0.00    +0.000 OA
ATOM     22  N   UNL     1       2.208   7.812  18.847  0.00  0.00    +0.000 N 
ATOM     23  H   UNL     1       1.878   7.623  19.785  0.00  0.00    +0.000 HD
BRANCH  22  24
ATOM     24  C   UNL     1       2.927   6.770  18.212  0.00  0.00    +0.000 A 
ATOM     25  C   UNL     1       2.473   5.452  18.135  0.00  0.00    +0.000 A 
ATOM     26  C   UNL     1       3.242   4.469  17.504  0.00  0.00    +0.000 A 
ATOM     27  C   UNL     1       4.474   4.798  16.946  0.00  0.00    +0.000 A 
ATOM     28 CL   UNL     1       5.424   3.583  16.187  0.00  0.00    +0.000 Cl
ATOM     29  C   UNL     1       4.933   6.111  17.000  0.00  0.00    +0.000 A 
ATOM     30  C   UNL     1       4.156   7.095  17.620  0.00  0.00    +0.000 A 
ENDBRANCH  22  24
ENDBRANCH   7  20
BRANCH   8  31
ATOM     31  N   UNL     1       1.353  11.976  18.006  0.00  0.00    +0.000 N 
ATOM     32  H   UNL     1       2.316  12.328  17.953  0.00  0.00    +0.000 HD
ATOM     33  H   UNL     1       0.720  12.522  17.434  0.00  0.00    +0.000 HD
ENDBRANCH   8  31
BRANCH   1  35
ATOM     34  N   UNL     1      -1.486  15.643  22.973  0.00  0.00    +0.000 NA
ATOM     35  C   UNL     1      -1.127  14.639  22.508  0.00  0.00    +0.000 C 
ENDBRANCH   1  35
TORSDOF 5
ENDMDL
MODEL 4
REMARK VINA RESULT:      -6.7      4.370      9.539
REMARK  Name = 
REMARK  5 active torsions:
REMARK  status: ('A' for Active; 'I' for Inactive)
REMARK    1  A    between atoms: C_2  and  C_3
REMARK    2  A    between atoms: C_9  and  C_10
REMARK    3  A    between atoms: N_12  and  C_13
REMARK    4  A    between atoms: C_20  and  N_21
REMARK    5  A    between atoms: C_23  and  C_24
REMARK                            x       y       z     vdW  Elec       q    Type
REMARK                         _______ _______ _______ _____ _____    ______ ____
ROOT
ATOM      1  C   UNL     1       0.109  13.952  21.950  0.00  0.00    +0.000 A 
ATOM      2  C   UNL     1      -0.715  12.983  22.524  0.00  0.00    +0.000 A 
ATOM      3  N   UNL     1      -1.638  13.271  23.528  0.00  0.00    +0.000 N 
ATOM      4  N   UNL     1      -0.748  11.718  22.119  0.00  0.00    +0.000 NA
ATOM      5  C   UNL     1       0.023  11.420  21.063  0.00  0.00    +0.000 A 
ATOM      6  S   UNL     1       0.032   9.807  20.538  0.00  0.00    +0.000 S 
ATOM      7  C   UNL     1       1.072  10.159  19.236  0.00  0.00    +0.000 A 
ATOM      8  C   UNL     1       1.362  11.520  19.197  0.00  0.00    +0.000 A 
ATOM      9  C   UNL     1       0.843  12.281  20.330  0.00  0.00    +0.000 A 
ATOM     10  C   UNL     1       0.946  13.634  20.829  0.00  0.00    +0.000 A 
ATOM     11  H   UNL     1      -1.259  13.783  24.317  0.00  0.00    +0.000 HD
ATOM     12  H   UNL     1      -2.082  12.401  23.811  0.00  0.00    +0.000 HD
ENDROOT
BRANCH  10  13
ATOM     13  C   UNL     1       1.864  14.665  20.233  0.00  0.00    +0.000 A 
ATOM     14  C   UNL     1       3.263  14.541  20.433  0.00  0.00    +0.000 A 
ATOM     15  C   UNL     1       4.201  15.352  19.780  0.00  0.00    +0.000 A 
ATOM     16  C   UNL     1       3.772  16.410  18.997  0.00  0.00    +0.000 A 
ATOM     17  C   UNL     1       2.408  16.610  18.818  0.00  0.00    +0.000 A 
ATOM     18  C   UNL     1       1.471  15.712  19.367  0.00  0.00    +0.000 A 
ATOM     19 BR   UNL     1      -0.317  15.952  18.746  0.00  0.00    +0.000 Br
ENDBRANCH  10  13
BRANCH   7  20
ATOM     20  C   UNL     1       1.551   9.095  18.341  0.00  0.00    +0.000 C 
ATOM     21  O   UNL     1       1.333   9.138  17.131  0.00  0.00    +0.000 OA
ATOM     22  N   UNL     1       2.235   8.060  18.967  0.00  0.00    +0.000 N 
ATOM     23  H   UNL     1       2.253   8.087  19.979  0.00  0.00    +0.000 HD
BRANCH  22  24
ATOM     24  C   UNL     1       2.840   6.933  18.357  0.00  0.00    +0.000 A 
ATOM     25  C   UNL     1       2.325   5.638  18.441  0.00  0.00    +0.000 A 
ATOM     26  C   UNL     1       2.984   4.569  17.825  0.00  0.00    +0.000 A 
ATOM     27  C   UNL     1       4.164   4.788  17.120  0.00  0.00    +0.000 A 
ATOM     28 CL   UNL     1       4.979   3.467  16.380  0.00  0.00    +0.000 Cl
ATOM     29  C   UNL     1       4.681   6.076  17.014  0.00  0.00    +0.000 A 
ATOM     30  C   UNL     1       4.014   7.146  17.620  0.00  0.00    +0.000 A 
ENDBRANCH  22  24
ENDBRANCH   7  20
BRANCH   8  31
ATOM     31  N   UNL     1       2.079  12.038  18.171  0.00  0.00    +0.000 N 
ATOM     32  H   UNL     1       1.888  13.001  17.871  0.00  0.00    +0.000 HD
ATOM     33  H   UNL     1       2.448  11.473  17.416  0.00  0.00    +0.000 HD
ENDBRANCH   8  31
BRANCH   1  35
ATOM     34  N   UNL     1       0.058  16.313  23.036  0.00  0.00    +0.000 NA
ATOM     35  C   UNL     1       0.066  15.262  22.537  0.00  0.00    +0.000 C 
ENDBRANCH   1  35
TORSDOF 5
ENDMDL
MODEL 5
REMARK VINA RESULT:      -6.7      4.431      9.685
REMARK  Name = 
REMARK  5 active torsions:
REMARK  status: ('A' for Active; 'I' for Inactive)
REMARK    1  A    between atoms: C_2  and  C_3
REMARK    2  A    between atoms: C_9  and  C_10
REMARK    3  A    between atoms: N_12  and  C_13
REMARK    4  A    between atoms: C_20  and  N_21
REMARK    5  A    between atoms: C_23  and  C_24
REMARK                            x       y       z     vdW  Elec       q    Type
REMARK                         _______ _______ _______ _____ _____    ______ ____
ROOT
ATOM      1  C   UNL     1       0.365  14.407  21.884  0.00  0.00    +0.000 A 
ATOM      2  C   UNL     1      -0.426  13.525  22.621  0.00  0.00    +0.000 A 
ATOM      3  N   UNL     1      -1.255  13.940  23.663  0.00  0.00    +0.000 N 
ATOM      4  N   UNL     1      -0.519  12.228  22.353  0.00  0.00    +0.000 NA
ATOM      5  C   UNL     1       0.153  11.802  21.274  0.00  0.00    +0.000 A 
ATOM      6  S   UNL     1       0.085  10.144  20.919  0.00  0.00    +0.000 S 
ATOM      7  C   UNL     1       1.018  10.333  19.507  0.00  0.00    +0.000 A 
ATOM      8  C   UNL     1       1.331  11.674  19.304  0.00  0.00    +0.000 A 
ATOM      9  C   UNL     1       0.925  12.561  20.391  0.00  0.00    +0.000 A 
ATOM     10  C   UNL     1       1.098  13.954  20.738  0.00  0.00    +0.000 A 
ATOM     11  H   UNL     1      -0.800  14.518  24.361  0.00  0.00    +0.000 HD
ATOM     12  H   UNL     1      -1.691  13.116  24.069  0.00  0.00    +0.000 HD
ENDROOT
BRANCH  10  13
ATOM     13  C   UNL     1       1.983  14.892  19.965  0.00  0.00    +0.000 A 
ATOM     14  C   UNL     1       3.391  14.735  20.044  0.00  0.00    +0.000 A 
ATOM     15  C   UNL     1       4.283  15.448  19.233  0.00  0.00    +0.000 A 
ATOM     16  C   UNL     1       3.812  16.446  18.399  0.00  0.00    +0.000 A 
ATOM     17  C   UNL     1       2.443  16.680  18.330  0.00  0.00    +0.000 A 
ATOM     18  C   UNL     1       1.538  15.870  19.045  0.00  0.00    +0.000 A 
ATOM     19 BR   UNL     1      -0.294  16.119  18.575  0.00  0.00    +0.000 Br
ENDBRANCH  10  13
BRANCH   7  20
ATOM     20  C   UNL     1       1.397   9.170  18.690  0.00  0.00    +0.000 C 
ATOM     21  O   UNL     1       1.096   9.106  17.498  0.00  0.00    +0.000 OA
ATOM     22  N   UNL     1       2.088   8.173  19.367  0.00  0.00    +0.000 N 
ATOM     23  H   UNL     1       2.178   8.295  20.368  0.00  0.00    +0.000 HD
BRANCH  22  24
ATOM     24  C   UNL     1       2.612   6.971  18.831  0.00  0.00    +0.000 A 
ATOM     25  C   UNL     1       3.582   6.930  17.827  0.00  0.00    +0.000 A 
ATOM     26  C   UNL     1       4.045   5.705  17.334  0.00  0.00    +0.000 A 
ATOM     27  C   UNL     1       3.540   4.512  17.842  0.00  0.00    +0.000 A 
ATOM     28 CL   UNL     1       4.099   3.010  17.220  0.00  0.00    +0.000 Cl
ATOM     29  C   UNL     1       2.585   4.537  18.855  0.00  0.00    +0.000 A 
ATOM     30  C   UNL     1       2.133   5.762  19.355  0.00  0.00    +0.000 A 
ENDBRANCH  22  24
ENDBRANCH   7  20
BRANCH   8  31
ATOM     31  N   UNL     1       1.969  12.064  18.174  0.00  0.00    +0.000 N 
ATOM     32  H   UNL     1       2.335  11.346  17.539  0.00  0.00    +0.000 HD
ATOM     33  H   UNL     1       2.491  12.929  18.107  0.00  0.00    +0.000 HD
ENDBRANCH   8  31
BRANCH   1  35
ATOM     34  N   UNL     1       0.415  16.885  22.667  0.00  0.00    +0.000 NA
ATOM     35  C   UNL     1       0.399  15.770  22.335  0.00  0.00    +0.000 C 
ENDBRANCH   1  35
TORSDOF 5
ENDMDL
MODEL 6
REMARK VINA RESULT:      -6.6      4.120      9.774
REMARK  Name = 
REMARK  5 active torsions:
REMARK  status: ('A' for Active; 'I' for Inactive)
REMARK    1  A    between atoms: C_2  and  C_3
REMARK    2  A    between atoms: C_9  and  C_10
REMARK    3  A    between atoms: N_12  and  C_13
REMARK    4  A    between atoms: C_20  and  N_21
REMARK    5  A    between atoms: C_23  and  C_24
REMARK                            x       y       z     vdW  Elec       q    Type
REMARK                         _______ _______ _______ _____ _____    ______ ____
ROOT
ATOM      1  C   UNL     1      -0.297  14.312  21.836  0.00  0.00    +0.000 A 
ATOM      2  C   UNL     1      -0.780  13.317  22.686  0.00  0.00    +0.000 A 
ATOM      3  N   UNL     1      -1.552  13.593  23.814  0.00  0.00    +0.000 N 
ATOM      4  N   UNL     1      -0.613  12.019  22.461  0.00  0.00    +0.000 NA
ATOM      5  C   UNL     1       0.006  11.696  21.316  0.00  0.00    +0.000 A 
ATOM      6  S   UNL     1       0.267  10.048  21.011  0.00  0.00    +0.000 S 
ATOM      7  C   UNL     1       0.962  10.365  19.489  0.00  0.00    +0.000 A 
ATOM      8  C   UNL     1       0.944  11.730  19.217  0.00  0.00    +0.000 A 
ATOM      9  C   UNL     1       0.481  12.560  20.327  0.00  0.00    +0.000 A 
ATOM     10  C   UNL     1       0.379  13.973  20.617  0.00  0.00    +0.000 A 
ATOM     11  H   UNL     1      -1.159  14.290  24.436  0.00  0.00    +0.000 HD
ATOM     12  H   UNL     1      -1.744  12.715  24.290  0.00  0.00    +0.000 HD
ENDROOT
BRANCH  10  13
ATOM     13  C   UNL     1       0.936  15.042  19.718  0.00  0.00    +0.000 A 
ATOM     14  C   UNL     1       0.041  15.839  18.958  0.00  0.00    +0.000 A 
ATOM     15  C   UNL     1       0.454  16.961  18.228  0.00  0.00    +0.000 A 
ATOM     16  C   UNL     1       1.801  17.258  18.120  0.00  0.00    +0.000 A 
ATOM     17  C   UNL     1       2.724  16.469  18.799  0.00  0.00    +0.000 A 
ATOM     18  C   UNL     1       2.295  15.424  19.641  0.00  0.00    +0.000 A 
ATOM     19 BR   UNL     1       3.664  14.675  20.738  0.00  0.00    +0.000 Br
ENDBRANCH  10  13
BRANCH   7  20
ATOM     20  C   UNL     1       1.492   9.274  18.657  0.00  0.00    +0.000 C 
ATOM     21  O   UNL     1       1.462   9.340  17.428  0.00  0.00    +0.000 OA
ATOM     22  N   UNL     1       1.997   8.187  19.360  0.00  0.00    +0.000 N 
ATOM     23  H   UNL     1       1.865   8.206  20.363  0.00  0.00    +0.000 HD
BRANCH  22  24
ATOM     24  C   UNL     1       2.605   7.023  18.828  0.00  0.00    +0.000 A 
ATOM     25  C   UNL     1       3.552   7.044  17.803  0.00  0.00    +0.000 A 
ATOM     26  C   UNL     1       4.101   5.854  17.316  0.00  0.00    +0.000 A 
ATOM     27  C   UNL     1       3.706   4.632  17.852  0.00  0.00    +0.000 A 
ATOM     28 CL   UNL     1       4.372   3.171  17.237  0.00  0.00    +0.000 Cl
ATOM     29  C   UNL     1       2.775   4.595  18.886  0.00  0.00    +0.000 A 
ATOM     30  C   UNL     1       2.237   5.787  19.380  0.00  0.00    +0.000 A 
ENDBRANCH  22  24
ENDBRANCH   7  20
BRANCH   8  31
ATOM     31  N   UNL     1       1.341  12.193  18.008  0.00  0.00    +0.000 N 
ATOM     32  H   UNL     1       1.233  11.588  17.186  0.00  0.00    +0.000 HD
ATOM     33  H   UNL     1       2.100  12.854  17.893  0.00  0.00    +0.000 HD
ENDBRANCH   8  31
BRANCH   1  35
ATOM     34  N   UNL     1      -0.677  16.762  22.615  0.00  0.00    +0.000 NA
ATOM     35  C   UNL     1      -0.514  15.671  22.248  0.00  0.00    +0.000 C 
ENDBRANCH   1  35
TORSDOF 5
ENDMDL
MODEL 7
REMARK VINA RESULT:      -6.5      4.434      9.653
REMARK  Name = 
REMARK  5 active torsions:
REMARK  status: ('A' for Active; 'I' for Inactive)
REMARK    1  A    between atoms: C_2  and  C_3
REMARK    2  A    between atoms: C_9  and  C_10
REMARK    3  A    between atoms: N_12  and  C_13
REMARK    4  A    between atoms: C_20  and  N_21
REMARK    5  A    between atoms: C_23  and  C_24
REMARK                            x       y       z     vdW  Elec       q    Type
REMARK                         _______ _______ _______ _____ _____    ______ ____
ROOT
ATOM      1  C   UNL     1      -0.431  13.692  22.318  0.00  0.00    +0.000 A 
ATOM      2  C   UNL     1      -1.288  12.644  22.658  0.00  0.00    +0.000 A 
ATOM      3  N   UNL     1      -2.353  12.794  23.546  0.00  0.00    +0.000 N 
ATOM      4  N   UNL     1      -1.214  11.434  22.116  0.00  0.00    +0.000 NA
ATOM      5  C   UNL     1      -0.293  11.277  21.155  0.00  0.00    +0.000 A 
ATOM      6  S   UNL     1      -0.146   9.735  20.463  0.00  0.00    +0.000 S 
ATOM      7  C   UNL     1       1.050  10.258  19.370  0.00  0.00    +0.000 A 
ATOM      8  C   UNL     1       1.289  11.621  19.523  0.00  0.00    +0.000 A 
ATOM      9  C   UNL     1       0.587  12.235  20.647  0.00  0.00    +0.000 A 
ATOM     10  C   UNL     1       0.566  13.524  21.301  0.00  0.00    +0.000 A 
ATOM     11  H   UNL     1      -2.108  13.220  24.432  0.00  0.00    +0.000 HD
ATOM     12  H   UNL     1      -2.798  11.887  23.664  0.00  0.00    +0.000 HD
ENDROOT
BRANCH  10  13
ATOM     13  C   UNL     1       1.517  14.638  20.960  0.00  0.00    +0.000 A 
ATOM     14  C   UNL     1       2.805  14.652  21.556  0.00  0.00    +0.000 A 
ATOM     15  C   UNL     1       3.811  15.549  21.172  0.00  0.00    +0.000 A 
ATOM     16  C   UNL     1       3.530  16.557  20.267  0.00  0.00    +0.000 A 
ATOM     17  C   UNL     1       2.262  16.621  19.698  0.00  0.00    +0.000 A 
ATOM     18  C   UNL     1       1.294  15.637  19.984  0.00  0.00    +0.000 A 
ATOM     19 BR   UNL     1      -0.254  15.698  18.871  0.00  0.00    +0.000 Br
ENDBRANCH  10  13
BRANCH   7  20
ATOM     20  C   UNL     1       1.691   9.315  18.441  0.00  0.00    +0.000 C 
ATOM     21  O   UNL     1       1.797   9.578  17.243  0.00  0.00    +0.000 OA
ATOM     22  N   UNL     1       2.135   8.130  19.015  0.00  0.00    +0.000 N 
ATOM     23  H   UNL     1       1.891   7.988  19.986  0.00  0.00    +0.000 HD
BRANCH  22  24
ATOM     24  C   UNL     1       2.821   7.067  18.377  0.00  0.00    +0.000 A 
ATOM     25  C   UNL     1       4.013   7.231  17.668  0.00  0.00    +0.000 A 
ATOM     26  C   UNL     1       4.629   6.138  17.050  0.00  0.00    +0.000 A 
ATOM     27  C   UNL     1       4.057   4.872  17.137  0.00  0.00    +0.000 A 
ATOM     28 CL   UNL     1       4.810   3.536  16.361  0.00  0.00    +0.000 Cl
ATOM     29  C   UNL     1       2.878   4.691  17.854  0.00  0.00    +0.000 A 
ATOM     30  C   UNL     1       2.270   5.782  18.482  0.00  0.00    +0.000 A 
ENDBRANCH  22  24
ENDBRANCH   7  20
BRANCH   8  31
ATOM     31  N   UNL     1       2.121  12.270  18.673  0.00  0.00    +0.000 N 
ATOM     32  H   UNL     1       2.484  11.767  17.855  0.00  0.00    +0.000 HD
ATOM     33  H   UNL     1       2.747  13.008  18.971  0.00  0.00    +0.000 HD
ENDBRANCH   8  31
BRANCH   1  35
ATOM     34  N   UNL     1      -0.742  15.904  23.646  0.00  0.00    +0.000 NA
ATOM     35  C   UNL     1      -0.607  14.924  23.035  0.00  0.00    +0.000 C 
ENDBRANCH   1  35
TORSDOF 5
ENDMDL
MODEL 8
REMARK VINA RESULT:      -6.5      4.329     10.091
REMARK  Name = 
REMARK  5 active torsions:
REMARK  status: ('A' for Active; 'I' for Inactive)
REMARK    1  A    between atoms: C_2  and  C_3
REMARK    2  A    between atoms: C_9  and  C_10
REMARK    3  A    between atoms: N_12  and  C_13
REMARK    4  A    between atoms: C_20  and  N_21
REMARK    5  A    between atoms: C_23  and  C_24
REMARK                            x       y       z     vdW  Elec       q    Type
REMARK                         _______ _______ _______ _____ _____    ______ ____
ROOT
ATOM      1  C   UNL     1      -0.432  15.003  22.027  0.00  0.00    +0.000 A 
ATOM      2  C   UNL     1      -0.766  14.084  23.024  0.00  0.00    +0.000 A 
ATOM      3  N   UNL     1      -1.358  14.456  24.230  0.00  0.00    +0.000 N 
ATOM      4  N   UNL     1      -0.618  12.771  22.887  0.00  0.00    +0.000 NA
ATOM      5  C   UNL     1      -0.179  12.352  21.692  0.00  0.00    +0.000 A 
ATOM      6  S   UNL     1       0.054  10.683  21.491  0.00  0.00    +0.000 S 
ATOM      7  C   UNL     1       0.502  10.867  19.858  0.00  0.00    +0.000 A 
ATOM      8  C   UNL     1       0.423  12.204  19.478  0.00  0.00    +0.000 A 
ATOM      9  C   UNL     1       0.126  13.127  20.571  0.00  0.00    +0.000 A 
ATOM     10  C   UNL     1       0.052  14.560  20.752  0.00  0.00    +0.000 A 
ATOM     11  H   UNL     1      -0.882  15.204  24.722  0.00  0.00    +0.000 HD
ATOM     12  H   UNL     1      -1.462  13.623  24.803  0.00  0.00    +0.000 HD
ENDROOT
BRANCH  10  13
ATOM     13  C   UNL     1       0.449  15.547  19.690  0.00  0.00    +0.000 A 
ATOM     14  C   UNL     1      -0.558  16.129  18.878  0.00  0.00    +0.000 A 
ATOM     15  C   UNL     1      -0.303  17.177  17.983  0.00  0.00    +0.000 A 
ATOM     16  C   UNL     1       0.997  17.599  17.766  0.00  0.00    +0.000 A 
ATOM     17  C   UNL     1       2.027  17.018  18.495  0.00  0.00    +0.000 A 
ATOM     18  C   UNL     1       1.753  16.059  19.492  0.00  0.00    +0.000 A 
ATOM     19 BR   UNL     1       3.238  15.622  20.606  0.00  0.00    +0.000 Br
ENDBRANCH  10  13
BRANCH   7  20
ATOM     20  C   UNL     1       0.912   9.709  19.051  0.00  0.00    +0.000 C 
ATOM     21  O   UNL     1       0.557   9.596  17.877  0.00  0.00    +0.000 OA
ATOM     22  N   UNL     1       1.694   8.773  19.715  0.00  0.00    +0.000 N 
ATOM     23  H   UNL     1       1.825   8.927  20.707  0.00  0.00    +0.000 HD
BRANCH  22  24
ATOM     24  C   UNL     1       2.264   7.591  19.181  0.00  0.00    +0.000 A 
ATOM     25  C   UNL     1       2.081   6.324  19.739  0.00  0.00    +0.000 A 
ATOM     26  C   UNL     1       2.685   5.200  19.167  0.00  0.00    +0.000 A 
ATOM     27  C   UNL     1       3.479   5.335  18.032  0.00  0.00    +0.000 A 
ATOM     28 CL   UNL     1       4.235   3.953  17.344  0.00  0.00    +0.000 Cl
ATOM     29  C   UNL     1       3.658   6.589  17.455  0.00  0.00    +0.000 A 
ATOM     30  C   UNL     1       3.042   7.710  18.021  0.00  0.00    +0.000 A 
ENDBRANCH  22  24
ENDBRANCH   7  20
BRANCH   8  31
ATOM     31  N   UNL     1       0.624  12.562  18.187  0.00  0.00    +0.000 N 
ATOM     32  H   UNL     1      -0.187  12.825  17.615  0.00  0.00    +0.000 HD
ATOM     33  H   UNL     1       1.379  12.192  17.623  0.00  0.00    +0.000 HD
ENDBRANCH   8  31
BRANCH   1  35
ATOM     34  N   UNL     1      -0.707  17.516  22.632  0.00  0.00    +0.000 NA
ATOM     35  C   UNL     1      -0.602  16.392  22.351  0.00  0.00    +0.000 C 
ENDBRANCH   1  35
TORSDOF 5
ENDMDL
MODEL 9
REMARK VINA RESULT:      -6.4      4.142      9.778
REMARK  Name = 
REMARK  5 active torsions:
REMARK  status: ('A' for Active; 'I' for Inactive)
REMARK    1  A    between atoms: C_2  and  C_3
REMARK    2  A    between atoms: C_9  and  C_10
REMARK    3  A    between atoms: N_12  and  C_13
REMARK    4  A    between atoms: C_20  and  N_21
REMARK    5  A    between atoms: C_23  and  C_24
REMARK                            x       y       z     vdW  Elec       q    Type
REMARK                         _______ _______ _______ _____ _____    ______ ____
ROOT
ATOM      1  C   UNL     1      -0.335  14.828  19.858  0.00  0.00    +0.000 A 
ATOM      2  C   UNL     1      -1.463  14.062  20.156  0.00  0.00    +0.000 A 
ATOM      3  N   UNL     1      -2.677  14.622  20.550  0.00  0.00    +0.000 N 
ATOM      4  N   UNL     1      -1.505  12.741  20.022  0.00  0.00    +0.000 NA
ATOM      5  C   UNL     1      -0.406  12.167  19.515  0.00  0.00    +0.000 A 
ATOM      6  S   UNL     1      -0.411  10.477  19.360  0.00  0.00    +0.000 S 
ATOM      7  C   UNL     1       1.134  10.464  18.643  0.00  0.00    +0.000 A 
ATOM      8  C   UNL     1       1.614  11.762  18.492  0.00  0.00    +0.000 A 
ATOM      9  C   UNL     1       0.772  12.792  19.097  0.00  0.00    +0.000 A 
ATOM     10  C   UNL     1       0.849  14.217  19.329  0.00  0.00    +0.000 A 
ATOM     11  H   UNL     1      -2.610  15.283  21.316  0.00  0.00    +0.000 HD
ATOM     12  H   UNL     1      -3.326  13.865  20.751  0.00  0.00    +0.000 HD
ENDROOT
BRANCH  10  13
ATOM     13  C   UNL     1       2.079  15.033  19.044  0.00  0.00    +0.000 A 
ATOM     14  C   UNL     1       2.254  15.589  17.750  0.00  0.00    +0.000 A 
ATOM     15  C   UNL     1       3.276  16.496  17.443  0.00  0.00    +0.000 A 
ATOM     16  C   UNL     1       4.248  16.786  18.384  0.00  0.00    +0.000 A 
ATOM     17  C   UNL     1       4.155  16.219  19.650  0.00  0.00    +0.000 A 
ATOM     18  C   UNL     1       3.051  15.413  19.998  0.00  0.00    +0.000 A 
ATOM     19 BR   UNL     1       2.923  15.001  21.856  0.00  0.00    +0.000 Br
ENDBRANCH  10  13
BRANCH   7  20
ATOM     20  C   UNL     1       1.790   9.199  18.282  0.00  0.00    +0.000 C 
ATOM     21  O   UNL     1       2.286   9.036  17.167  0.00  0.00    +0.000 OA
ATOM     22  N   UNL     1       1.784   8.226  19.274  0.00  0.00    +0.000 N 
ATOM     23  H   UNL     1       1.250   8.443  20.106  0.00  0.00    +0.000 HD
BRANCH  22  24
ATOM     24  C   UNL     1       2.373   6.938  19.224  0.00  0.00    +0.000 A 
ATOM     25  C   UNL     1       3.206   6.509  18.189  0.00  0.00    +0.000 A 
ATOM     26  C   UNL     1       3.743   5.218  18.196  0.00  0.00    +0.000 A 
ATOM     27  C   UNL     1       3.450   4.346  19.239  0.00  0.00    +0.000 A 
ATOM     28 CL   UNL     1       4.099   2.753  19.234  0.00  0.00    +0.000 Cl
ATOM     29  C   UNL     1       2.635   4.764  20.287  0.00  0.00    +0.000 A 
ATOM     30  C   UNL     1       2.109   6.060  20.284  0.00  0.00    +0.000 A 
ENDBRANCH  22  24
ENDBRANCH   7  20
BRANCH   8  31
ATOM     31  N   UNL     1       2.776  11.991  17.836  0.00  0.00    +0.000 N 
ATOM     32  H   UNL     1       3.480  11.244  17.802  0.00  0.00    +0.000 HD
ATOM     33  H   UNL     1       3.196  12.909  17.761  0.00  0.00    +0.000 HD
ENDBRANCH   8  31
BRANCH   1  35
ATOM     34  N   UNL     1      -0.476  17.384  20.308  0.00  0.00    +0.000 NA
ATOM     35  C   UNL     1      -0.433  16.239  20.108  0.00  0.00    +0.000 C 
ENDBRANCH   1  35
TORSDOF 5
ENDMDL
