MODEL 1
REMARK VINA RESULT:      -8.0      0.000      0.000
REMARK  Name = 
REMARK  5 active torsions:
REMARK  status: ('A' for Active; 'I' for Inactive)
REMARK    1  A    between atoms: C_1  and  C_2
REMARK    2  A    between atoms: C_4  and  C_5
REMARK    3  A    between atoms: C_5  and  N_6
REMARK    4  A    between atoms: N_9  and  C_10
REMARK    5  A    between atoms: C_16  and  O_17
REMARK                            x       y       z     vdW  Elec       q    Type
REMARK                         _______ _______ _______ _____ _____    ______ ____
ROOT
ATOM      1  N   UNL     1       6.265   4.950  16.397  0.00  0.00    +0.000 NA
ATOM      2  C   UNL     1       4.961   4.306  16.177  0.00  0.00    +0.000 C 
ATOM      3  C   UNL     1       3.879   4.472  17.272  0.00  0.00    +0.000 C 
ATOM      4  N   UNL     1       4.139   3.617  18.446  0.00  0.00    +0.000 NA
ATOM      5  C   UNL     1       5.039   4.264  19.416  0.00  0.00    +0.000 C 
ATOM      6  C   UNL     1       6.155   5.192  18.893  0.00  0.00    +0.000 C 
ATOM      7  C   UNL     1       6.904   4.625  17.675  0.00  0.00    +0.000 C 
ENDROOT
BRANCH   4   8
ATOM      8  C   UNL     1       2.903   3.138  19.089  0.00  0.00    +0.000 C 
ATOM      9  C   UNL     1       3.026   2.956  20.610  0.00  0.00    +0.000 C 
ATOM     10  C   UNL     1       1.582   2.866  21.087  0.00  0.00    +0.000 C 
ATOM     11  C   UNL     1       0.779   3.749  20.139  0.00  0.00    +0.000 C 
ATOM     12  C   UNL     1       1.715   4.111  18.990  0.00  0.00    +0.000 C 
ENDBRANCH   4   8
BRANCH   6  13
ATOM     13  O   UNL     1       7.089   5.441  19.962  0.00  0.00    +0.000 OA
ATOM     14  H   UNL     1       6.673   5.136  20.785  0.00  0.00    +0.000 HD
ENDBRANCH   6  13
BRANCH   1  15
ATOM     15  C   UNL     1       7.173   4.742  15.251  0.00  0.00    +0.000 C 
BRANCH  15  19
ATOM     16  C   UNL     1       4.317   3.045  11.366  0.00  0.00    +0.000 C 
ATOM     17  C   UNL     1       5.367   3.588  12.254  0.00  0.00    +0.000 A 
ATOM     18  C   UNL     1       5.269   3.905  13.628  0.00  0.00    +0.000 A 
ATOM     19  C   UNL     1       6.531   4.318  13.977  0.00  0.00    +0.000 A 
ATOM     20  O   UNL     1       7.333   4.268  12.875  0.00  0.00    +0.000 OA
ATOM     21  N   UNL     1       6.600   3.818  11.790  0.00  0.00    +0.000 NA
ENDBRANCH  15  19
ENDBRANCH   1  15
TORSDOF 4
ENDMDL
MODEL 2
REMARK VINA RESULT:      -8.0      0.925      1.125
REMARK  Name = 
REMARK  5 active torsions:
REMARK  status: ('A' for Active; 'I' for Inactive)
REMARK    1  A    between atoms: C_1  and  C_2
REMARK    2  A    between atoms: C_4  and  C_5
REMARK    3  A    between atoms: C_5  and  N_6
REMARK    4  A    between atoms: N_9  and  C_10
REMARK    5  A    between atoms: C_16  and  O_17
REMARK                            x       y       z     vdW  Elec       q    Type
REMARK                         _______ _______ _______ _____ _____    ______ ____
ROOT
ATOM      1  N   UNL     1       6.618   5.583  16.541  0.00  0.00    +0.000 NA
ATOM      2  C   UNL     1       5.236   5.378  16.084  0.00  0.00    +0.000 C 
ATOM      3  C   UNL     1       4.095   5.608  17.106  0.00  0.00    +0.000 C 
ATOM      4  N   UNL     1       3.976   4.496  18.067  0.00  0.00    +0.000 NA
ATOM      5  C   UNL     1       4.873   4.661  19.223  0.00  0.00    +0.000 C 
ATOM      6  C   UNL     1       6.244   5.335  19.011  0.00  0.00    +0.000 C 
ATOM      7  C   UNL     1       6.981   4.844  17.754  0.00  0.00    +0.000 C 
ENDROOT
BRANCH   4   8
ATOM      8  C   UNL     1       2.585   4.253  18.491  0.00  0.00    +0.000 C 
ATOM      9  C   UNL     1       2.080   2.836  18.178  0.00  0.00    +0.000 C 
ATOM     10  C   UNL     1       0.833   2.692  19.039  0.00  0.00    +0.000 C 
ATOM     11  C   UNL     1       1.097   3.521  20.290  0.00  0.00    +0.000 C 
ATOM     12  C   UNL     1       2.359   4.332  20.011  0.00  0.00    +0.000 C 
ENDBRANCH   4   8
BRANCH   6  13
ATOM     13  O   UNL     1       7.062   5.098  20.174  0.00  0.00    +0.000 OA
ATOM     14  H   UNL     1       6.972   5.873  20.752  0.00  0.00    +0.000 HD
ENDBRANCH   6  13
BRANCH   1  15
ATOM     15  C   UNL     1       7.588   5.371  15.447  0.00  0.00    +0.000 C 
BRANCH  15  19
ATOM     16  C   UNL     1       5.412   2.578  11.760  0.00  0.00    +0.000 C 
ATOM     17  C   UNL     1       6.165   3.556  12.574  0.00  0.00    +0.000 A 
ATOM     18  C   UNL     1       6.143   3.724  13.977  0.00  0.00    +0.000 A 
ATOM     19  C   UNL     1       7.056   4.722  14.218  0.00  0.00    +0.000 A 
ATOM     20  O   UNL     1       7.580   5.138  13.031  0.00  0.00    +0.000 OA
ATOM     21  N   UNL     1       7.015   4.413  11.996  0.00  0.00    +0.000 NA
ENDBRANCH  15  19
ENDBRANCH   1  15
TORSDOF 4
ENDMDL
MODEL 3
REMARK VINA RESULT:      -7.9      1.826      2.188
REMARK  Name = 
REMARK  5 active torsions:
REMARK  status: ('A' for Active; 'I' for Inactive)
REMARK    1  A    between atoms: C_1  and  C_2
REMARK    2  A    between atoms: C_4  and  C_5
REMARK    3  A    between atoms: C_5  and  N_6
REMARK    4  A    between atoms: N_9  and  C_10
REMARK    5  A    between atoms: C_16  and  O_17
REMARK                            x       y       z     vdW  Elec       q    Type
REMARK                         _______ _______ _______ _____ _____    ______ ____
ROOT
ATOM      1  N   UNL     1       5.165   5.447  16.572  0.00  0.00    +0.000 NA
ATOM      2  C   UNL     1       5.042   4.237  17.399  0.00  0.00    +0.000 C 
ATOM      3  C   UNL     1       3.719   4.023  18.174  0.00  0.00    +0.000 C 
ATOM      4  N   UNL     1       3.625   4.886  19.367  0.00  0.00    +0.000 NA
ATOM      5  C   UNL     1       3.077   6.216  19.050  0.00  0.00    +0.000 C 
ATOM      6  C   UNL     1       3.401   6.848  17.681  0.00  0.00    +0.000 C 
ATOM      7  C   UNL     1       4.876   6.702  17.272  0.00  0.00    +0.000 C 
ENDROOT
BRANCH   4   8
ATOM      8  C   UNL     1       2.896   4.250  20.478  0.00  0.00    +0.000 C 
ATOM      9  C   UNL     1       1.390   4.087  20.218  0.00  0.00    +0.000 C 
ATOM     10  C   UNL     1       0.943   3.079  21.268  0.00  0.00    +0.000 C 
ATOM     11  C   UNL     1       2.134   2.154  21.484  0.00  0.00    +0.000 C 
ATOM     12  C   UNL     1       3.317   2.798  20.767  0.00  0.00    +0.000 C 
ENDBRANCH   4   8
BRANCH   6  13
ATOM     13  O   UNL     1       3.046   8.244  17.719  0.00  0.00    +0.000 OA
ATOM     14  H   UNL     1       3.796   8.722  18.110  0.00  0.00    +0.000 HD
ENDBRANCH   6  13
BRANCH   1  15
ATOM     15  C   UNL     1       6.460   5.489  15.862  0.00  0.00    +0.000 C 
BRANCH  15  19
ATOM     16  C   UNL     1       6.076   2.653  11.626  0.00  0.00    +0.000 C 
ATOM     17  C   UNL     1       6.391   3.654  12.668  0.00  0.00    +0.000 A 
ATOM     18  C   UNL     1       5.806   3.796  13.947  0.00  0.00    +0.000 A 
ATOM     19  C   UNL     1       6.493   4.835  14.525  0.00  0.00    +0.000 A 
ATOM     20  O   UNL     1       7.421   5.299  13.641  0.00  0.00    +0.000 OA
ATOM     21  N   UNL     1       7.352   4.564  12.470  0.00  0.00    +0.000 NA
ENDBRANCH  15  19
ENDBRANCH   1  15
TORSDOF 4
ENDMDL
MODEL 4
REMARK VINA RESULT:      -7.8      2.800      3.394
REMARK  Name = 
REMARK  5 active torsions:
REMARK  status: ('A' for Active; 'I' for Inactive)
REMARK    1  A    between atoms: C_1  and  C_2
REMARK    2  A    between atoms: C_4  and  C_5
REMARK    3  A    between atoms: C_5  and  N_6
REMARK    4  A    between atoms: N_9  and  C_10
REMARK    5  A    between atoms: C_16  and  O_17
REMARK                            x       y       z     vdW  Elec       q    Type
REMARK                         _______ _______ _______ _____ _____    ______ ____
ROOT
ATOM      1  N   UNL     1       6.202   4.968  18.059  0.00  0.00    +0.000 NA
ATOM      2  C   UNL     1       5.699   6.272  17.600  0.00  0.00    +0.000 C 
ATOM      3  C   UNL     1       4.600   6.961  18.447  0.00  0.00    +0.000 C 
ATOM      4  N   UNL     1       3.275   6.344  18.249  0.00  0.00    +0.000 NA
ATOM      5  C   UNL     1       3.060   5.191  19.140  0.00  0.00    +0.000 C 
ATOM      6  C   UNL     1       4.264   4.299  19.507  0.00  0.00    +0.000 C 
ATOM      7  C   UNL     1       5.166   3.962  18.309  0.00  0.00    +0.000 C 
ENDROOT
BRANCH   4   8
ATOM      8  C   UNL     1       2.172   7.316  18.345  0.00  0.00    +0.000 C 
ATOM      9  C   UNL     1       1.933   7.845  19.768  0.00  0.00    +0.000 C 
ATOM     10  C   UNL     1       1.072   9.083  19.560  0.00  0.00    +0.000 C 
ATOM     11  C   UNL     1       1.507   9.668  18.222  0.00  0.00    +0.000 C 
ATOM     12  C   UNL     1       2.405   8.623  17.566  0.00  0.00    +0.000 C 
ENDBRANCH   4   8
BRANCH   6  13
ATOM     13  O   UNL     1       3.774   3.080  20.101  0.00  0.00    +0.000 OA
ATOM     14  H   UNL     1       4.066   3.073  21.027  0.00  0.00    +0.000 HD
ENDBRANCH   6  13
BRANCH   1  15
ATOM     15  C   UNL     1       7.273   4.460  17.177  0.00  0.00    +0.000 C 
BRANCH  15  19
ATOM     16  C   UNL     1       5.799   3.619  12.355  0.00  0.00    +0.000 C 
ATOM     17  C   UNL     1       6.380   4.121  13.619  0.00  0.00    +0.000 A 
ATOM     18  C   UNL     1       6.135   3.663  14.934  0.00  0.00    +0.000 A 
ATOM     19  C   UNL     1       6.961   4.426  15.722  0.00  0.00    +0.000 A 
ATOM     20  O   UNL     1       7.646   5.300  14.931  0.00  0.00    +0.000 OA
ATOM     21  N   UNL     1       7.275   5.115  13.610  0.00  0.00    +0.000 NA
ENDBRANCH  15  19
ENDBRANCH   1  15
TORSDOF 4
ENDMDL
MODEL 5
REMARK VINA RESULT:      -7.7      2.186      6.967
REMARK  Name = 
REMARK  5 active torsions:
REMARK  status: ('A' for Active; 'I' for Inactive)
REMARK    1  A    between atoms: C_1  and  C_2
REMARK    2  A    between atoms: C_4  and  C_5
REMARK    3  A    between atoms: C_5  and  N_6
REMARK    4  A    between atoms: N_9  and  C_10
REMARK    5  A    between atoms: C_16  and  O_17
REMARK                            x       y       z     vdW  Elec       q    Type
REMARK                         _______ _______ _______ _____ _____    ______ ____
ROOT
ATOM      1  N   UNL     1       4.555   5.681  18.060  0.00  0.00    +0.000 NA
ATOM      2  C   UNL     1       4.196   4.566  17.170  0.00  0.00    +0.000 C 
ATOM      3  C   UNL     1       5.335   3.878  16.377  0.00  0.00    +0.000 C 
ATOM      4  N   UNL     1       5.786   4.690  15.231  0.00  0.00    +0.000 NA
ATOM      5  C   UNL     1       6.817   5.670  15.615  0.00  0.00    +0.000 C 
ATOM      6  C   UNL     1       6.751   6.309  17.017  0.00  0.00    +0.000 C 
ATOM      7  C   UNL     1       5.335   6.747  17.426  0.00  0.00    +0.000 C 
ENDROOT
BRANCH   4   8
ATOM      8  C   UNL     1       6.217   3.871  14.085  0.00  0.00    +0.000 C 
ATOM      9  C   UNL     1       5.079   3.513  13.116  0.00  0.00    +0.000 C 
ATOM     10  C   UNL     1       5.800   3.048  11.858  0.00  0.00    +0.000 C 
ATOM     11  C   UNL     1       7.090   3.857  11.799  0.00  0.00    +0.000 C 
ATOM     12  C   UNL     1       7.215   4.567  13.144  0.00  0.00    +0.000 C 
ENDBRANCH   4   8
BRANCH   6  13
ATOM     13  O   UNL     1       7.637   7.446  17.050  0.00  0.00    +0.000 OA
ATOM     14  H   UNL     1       7.171   8.186  16.628  0.00  0.00    +0.000 HD
ENDBRANCH   6  13
BRANCH   1  15
ATOM     15  C   UNL     1       3.375   6.203  18.778  0.00  0.00    +0.000 C 
BRANCH  15  19
ATOM     16  C   UNL     1       1.682   2.518  21.891  0.00  0.00    +0.000 C 
ATOM     17  C   UNL     1       1.854   3.662  20.970  0.00  0.00    +0.000 A 
ATOM     18  C   UNL     1       3.058   4.254  20.529  0.00  0.00    +0.000 A 
ATOM     19  C   UNL     1       2.659   5.233  19.652  0.00  0.00    +0.000 A 
ATOM     20  O   UNL     1       1.298   5.238  19.584  0.00  0.00    +0.000 OA
ATOM     21  N   UNL     1       0.790   4.257  20.418  0.00  0.00    +0.000 NA
ENDBRANCH  15  19
ENDBRANCH   1  15
TORSDOF 4
ENDMDL
MODEL 6
REMARK VINA RESULT:      -7.7      3.086      3.789
REMARK  Name = 
REMARK  5 active torsions:
REMARK  status: ('A' for Active; 'I' for Inactive)
REMARK    1  A    between atoms: C_1  and  C_2
REMARK    2  A    between atoms: C_4  and  C_5
REMARK    3  A    between atoms: C_5  and  N_6
REMARK    4  A    between atoms: N_9  and  C_10
REMARK    5  A    between atoms: C_16  and  O_17
REMARK                            x       y       z     vdW  Elec       q    Type
REMARK                         _______ _______ _______ _____ _____    ______ ____
ROOT
ATOM      1  N   UNL     1       5.390   4.499  17.961  0.00  0.00    +0.000 NA
ATOM      2  C   UNL     1       5.220   5.905  18.359  0.00  0.00    +0.000 C 
ATOM      3  C   UNL     1       3.896   6.304  19.055  0.00  0.00    +0.000 C 
ATOM      4  N   UNL     1       2.773   6.404  18.102  0.00  0.00    +0.000 NA
ATOM      5  C   UNL     1       2.117   5.104  17.879  0.00  0.00    +0.000 C 
ATOM      6  C   UNL     1       2.973   3.822  17.908  0.00  0.00    +0.000 C 
ATOM      7  C   UNL     1       4.302   3.954  17.145  0.00  0.00    +0.000 C 
ENDROOT
BRANCH   4   8
ATOM      8  C   UNL     1       1.800   7.446  18.473  0.00  0.00    +0.000 C 
ATOM      9  C   UNL     1       1.863   7.855  19.953  0.00  0.00    +0.000 C 
ATOM     10  C   UNL     1       1.100   9.171  20.004  0.00  0.00    +0.000 C 
ATOM     11  C   UNL     1       1.348   9.844  18.659  0.00  0.00    +0.000 C 
ATOM     12  C   UNL     1       2.017   8.798  17.771  0.00  0.00    +0.000 C 
ENDBRANCH   4   8
BRANCH   6  13
ATOM     13  O   UNL     1       2.203   2.737  17.353  0.00  0.00    +0.000 OA
ATOM     14  H   UNL     1       1.314   3.081  17.167  0.00  0.00    +0.000 HD
ENDBRANCH   6  13
BRANCH   1  15
ATOM     15  C   UNL     1       6.716   4.264  17.353  0.00  0.00    +0.000 C 
BRANCH  15  19
ATOM     16  C   UNL     1       6.654   4.058  12.245  0.00  0.00    +0.000 C 
ATOM     17  C   UNL     1       6.820   4.407  13.673  0.00  0.00    +0.000 A 
ATOM     18  C   UNL     1       6.306   3.729  14.802  0.00  0.00    +0.000 A 
ATOM     19  C   UNL     1       6.796   4.431  15.876  0.00  0.00    +0.000 A 
ATOM     20  O   UNL     1       7.544   5.476  15.419  0.00  0.00    +0.000 OA
ATOM     21  N   UNL     1       7.552   5.466  14.034  0.00  0.00    +0.000 NA
ENDBRANCH  15  19
ENDBRANCH   1  15
TORSDOF 4
ENDMDL
MODEL 7
REMARK VINA RESULT:      -7.6      1.503      1.924
REMARK  Name = 
REMARK  5 active torsions:
REMARK  status: ('A' for Active; 'I' for Inactive)
REMARK    1  A    between atoms: C_1  and  C_2
REMARK    2  A    between atoms: C_4  and  C_5
REMARK    3  A    between atoms: C_5  and  N_6
REMARK    4  A    between atoms: N_9  and  C_10
REMARK    5  A    between atoms: C_16  and  O_17
REMARK                            x       y       z     vdW  Elec       q    Type
REMARK                         _______ _______ _______ _____ _____    ______ ____
ROOT
ATOM      1  N   UNL     1       6.083   4.760  15.192  0.00  0.00    +0.000 NA
ATOM      2  C   UNL     1       5.205   3.833  15.922  0.00  0.00    +0.000 C 
ATOM      3  C   UNL     1       4.366   4.402  17.092  0.00  0.00    +0.000 C 
ATOM      4  N   UNL     1       5.179   4.634  18.301  0.00  0.00    +0.000 NA
ATOM      5  C   UNL     1       5.828   5.957  18.289  0.00  0.00    +0.000 C 
ATOM      6  C   UNL     1       6.288   6.549  16.942  0.00  0.00    +0.000 C 
ATOM      7  C   UNL     1       7.001   5.531  16.036  0.00  0.00    +0.000 C 
ENDROOT
BRANCH   4   8
ATOM      8  C   UNL     1       4.427   4.409  19.548  0.00  0.00    +0.000 C 
ATOM      9  C   UNL     1       3.153   5.261  19.665  0.00  0.00    +0.000 C 
ATOM     10  C   UNL     1       2.362   4.587  20.778  0.00  0.00    +0.000 C 
ATOM     11  C   UNL     1       2.695   3.103  20.680  0.00  0.00    +0.000 C 
ATOM     12  C   UNL     1       3.861   2.987  19.703  0.00  0.00    +0.000 C 
ENDBRANCH   4   8
BRANCH   6  13
ATOM     13  O   UNL     1       7.165   7.663  17.201  0.00  0.00    +0.000 OA
ATOM     14  H   UNL     1       8.074   7.354  17.054  0.00  0.00    +0.000 HD
ENDBRANCH   6  13
BRANCH   1  15
ATOM     15  C   UNL     1       6.783   4.083  14.081  0.00  0.00    +0.000 C 
BRANCH  15  19
ATOM     16  C   UNL     1       3.293   3.098  10.478  0.00  0.00    +0.000 C 
ATOM     17  C   UNL     1       4.461   3.130  11.383  0.00  0.00    +0.000 A 
ATOM     18  C   UNL     1       4.776   4.094  12.368  0.00  0.00    +0.000 A 
ATOM     19  C   UNL     1       5.926   3.625  12.953  0.00  0.00    +0.000 A 
ATOM     20  O   UNL     1       6.290   2.461  12.344  0.00  0.00    +0.000 OA
ATOM     21  N   UNL     1       5.375   2.153  11.351  0.00  0.00    +0.000 NA
ENDBRANCH  15  19
ENDBRANCH   1  15
TORSDOF 4
ENDMDL
MODEL 8
REMARK VINA RESULT:      -7.6      2.735      6.605
REMARK  Name = 
REMARK  5 active torsions:
REMARK  status: ('A' for Active; 'I' for Inactive)
REMARK    1  A    between atoms: C_1  and  C_2
REMARK    2  A    between atoms: C_4  and  C_5
REMARK    3  A    between atoms: C_5  and  N_6
REMARK    4  A    between atoms: N_9  and  C_10
REMARK    5  A    between atoms: C_16  and  O_17
REMARK                            x       y       z     vdW  Elec       q    Type
REMARK                         _______ _______ _______ _____ _____    ______ ____
ROOT
ATOM      1  N   UNL     1       3.726   4.554  19.121  0.00  0.00    +0.000 NA
ATOM      2  C   UNL     1       3.522   4.095  17.738  0.00  0.00    +0.000 C 
ATOM      3  C   UNL     1       4.724   3.446  17.009  0.00  0.00    +0.000 C 
ATOM      4  N   UNL     1       5.714   4.445  16.565  0.00  0.00    +0.000 NA
ATOM      5  C   UNL     1       6.691   4.766  17.620  0.00  0.00    +0.000 C 
ATOM      6  C   UNL     1       6.227   4.759  19.091  0.00  0.00    +0.000 C 
ATOM      7  C   UNL     1       4.871   5.449  19.310  0.00  0.00    +0.000 C 
ENDROOT
BRANCH   4   8
ATOM      8  C   UNL     1       6.380   4.070  15.305  0.00  0.00    +0.000 C 
ATOM      9  C   UNL     1       5.408   3.823  14.141  0.00  0.00    +0.000 C 
ATOM     10  C   UNL     1       6.299   3.862  12.906  0.00  0.00    +0.000 C 
ATOM     11  C   UNL     1       7.409   4.854  13.229  0.00  0.00    +0.000 C 
ATOM     12  C   UNL     1       7.293   5.161  14.719  0.00  0.00    +0.000 C 
ENDBRANCH   4   8
BRANCH   6  13
ATOM     13  O   UNL     1       7.233   5.405  19.897  0.00  0.00    +0.000 OA
ATOM     14  H   UNL     1       6.770   5.924  20.575  0.00  0.00    +0.000 HD
ENDBRANCH   6  13
BRANCH   1  15
ATOM     15  C   UNL     1       2.483   5.108  19.696  0.00  0.00    +0.000 C 
BRANCH  15  19
ATOM     16  C   UNL     1       1.907   9.858  17.897  0.00  0.00    +0.000 C 
ATOM     17  C   UNL     1       1.930   8.608  18.686  0.00  0.00    +0.000 A 
ATOM     18  C   UNL     1       2.305   7.314  18.259  0.00  0.00    +0.000 A 
ATOM     19  C   UNL     1       2.198   6.536  19.386  0.00  0.00    +0.000 A 
ATOM     20  O   UNL     1       1.768   7.312  20.421  0.00  0.00    +0.000 OA
ATOM     21  N   UNL     1       1.591   8.613  19.980  0.00  0.00    +0.000 NA
ENDBRANCH  15  19
ENDBRANCH   1  15
TORSDOF 4
ENDMDL
MODEL 9
REMARK VINA RESULT:      -7.3      2.653      6.671
REMARK  Name = 
REMARK  5 active torsions:
REMARK  status: ('A' for Active; 'I' for Inactive)
REMARK    1  A    between atoms: C_1  and  C_2
REMARK    2  A    between atoms: C_4  and  C_5
REMARK    3  A    between atoms: C_5  and  N_6
REMARK    4  A    between atoms: N_9  and  C_10
REMARK    5  A    between atoms: C_16  and  O_17
REMARK                            x       y       z     vdW  Elec       q    Type
REMARK                         _______ _______ _______ _____ _____    ______ ____
ROOT
ATOM      1  N   UNL     1       4.346   4.657  18.650  0.00  0.00    +0.000 NA
ATOM      2  C   UNL     1       3.762   4.552  17.304  0.00  0.00    +0.000 C 
ATOM      3  C   UNL     1       4.671   4.039  16.160  0.00  0.00    +0.000 C 
ATOM      4  N   UNL     1       5.623   5.068  15.701  0.00  0.00    +0.000 NA
ATOM      5  C   UNL     1       6.858   5.081  16.505  0.00  0.00    +0.000 C 
ATOM      6  C   UNL     1       6.771   4.745  18.008  0.00  0.00    +0.000 C 
ATOM      7  C   UNL     1       5.592   5.426  18.722  0.00  0.00    +0.000 C 
ENDROOT
BRANCH   4   8
ATOM      8  C   UNL     1       5.915   4.974  14.260  0.00  0.00    +0.000 C 
ATOM      9  C   UNL     1       7.416   4.987  13.930  0.00  0.00    +0.000 C 
ATOM     10  C   UNL     1       7.481   4.481  12.495  0.00  0.00    +0.000 C 
ATOM     11  C   UNL     1       6.325   3.498  12.352  0.00  0.00    +0.000 C 
ATOM     12  C   UNL     1       5.467   3.656  13.604  0.00  0.00    +0.000 C 
ENDBRANCH   4   8
BRANCH   6  13
ATOM     13  O   UNL     1       8.007   5.131  18.641  0.00  0.00    +0.000 OA
ATOM     14  H   UNL     1       8.302   4.379  19.179  0.00  0.00    +0.000 HD
ENDBRANCH   6  13
BRANCH   1  15
ATOM     15  C   UNL     1       3.349   5.116  19.639  0.00  0.00    +0.000 C 
BRANCH  15  19
ATOM     16  C   UNL     1       1.522   9.568  17.915  0.00  0.00    +0.000 C 
ATOM     17  C   UNL     1       1.889   8.361  18.688  0.00  0.00    +0.000 A 
ATOM     18  C   UNL     1       2.569   7.208  18.235  0.00  0.00    +0.000 A 
ATOM     19  C   UNL     1       2.699   6.424  19.354  0.00  0.00    +0.000 A 
ATOM     20  O   UNL     1       2.117   7.060  20.410  0.00  0.00    +0.000 OA
ATOM     21  N   UNL     1       1.599   8.273  19.991  0.00  0.00    +0.000 NA
ENDBRANCH  15  19
ENDBRANCH   1  15
TORSDOF 4
ENDMDL
