MODEL 1
REMARK VINA RESULT:      -7.8      0.000      0.000
REMARK  Name = 
REMARK  11 active torsions:
REMARK  status: ('A' for Active; 'I' for Inactive)
REMARK    1  A    between atoms: C_1  and  C_2
REMARK    2  A    between atoms: C_2  and  O_3
REMARK    3  A    between atoms: O_3  and  C_4
REMARK    4  A    between atoms: C_4  and  C_6
REMARK    5  A    between atoms: C_10  and  C_12
REMARK    6  A    between atoms: C_12  and  N_13
REMARK    7  A    between atoms: N_13  and  C_14
REMARK    8  A    between atoms: N_13  and  S_23
REMARK    9  A    between atoms: C_20  and  O_21
REMARK   10  A    between atoms: O_21  and  C_22
REMARK   11  A    between atoms: S_23  and  C_26
REMARK                            x       y       z     vdW  Elec       q    Type
REMARK                         _______ _______ _______ _____ _____    ______ ____
ROOT
ATOM      1  N   UNL     1       3.518   5.299  17.537  0.00  0.00    +0.000 N 
ENDROOT
BRANCH   1   2
ATOM      2  C   UNL     1       4.836   4.995  17.036  0.00  0.00    +0.000 A 
ATOM      3  C   UNL     1       4.964   4.714  15.662  0.00  0.00    +0.000 A 
ATOM      4  C   UNL     1       6.207   4.430  15.101  0.00  0.00    +0.000 A 
ATOM      5 CL   UNL     1       6.320   4.037  13.429  0.00  0.00    +0.000 Cl
ATOM      6  C   UNL     1       7.352   4.457  15.882  0.00  0.00    +0.000 A 
ATOM      7  C   UNL     1       7.242   4.760  17.239  0.00  0.00    +0.000 A 
ATOM      8  C   UNL     1       5.995   5.016  17.834  0.00  0.00    +0.000 A 
BRANCH   8   9
ATOM      9  O   UNL     1       6.113   5.294  19.168  0.00  0.00    +0.000 OA
ATOM     10  C   UNL     1       7.396   5.636  19.674  0.00  0.00    +0.000 C 
ENDBRANCH   8   9
ENDBRANCH   1   2
BRANCH   1  11
ATOM     11  S   UNL     1       2.394   4.020  17.654  0.00  0.00    +0.000 S 
ATOM     12  O   UNL     1       1.080   4.540  17.333  0.00  0.00    +0.000 OA
ATOM     13  O   UNL     1       2.917   2.860  16.966  0.00  0.00    +0.000 OA
BRANCH  11  14
ATOM     14  C   UNL     1       2.321   3.564  19.397  0.00  0.00    +0.000 A 
ATOM     15  C   UNL     1       1.089   3.573  20.072  0.00  0.00    +0.000 A 
ATOM     16  C   UNL     1       0.994   3.002  21.345  0.00  0.00    +0.000 A 
ATOM     17  C   UNL     1       2.105   2.398  21.937  0.00  0.00    +0.000 A 
ATOM     18  C   UNL     1       3.327   2.379  21.262  0.00  0.00    +0.000 A 
ATOM     19  C   UNL     1       3.436   2.964  19.996  0.00  0.00    +0.000 A 
ENDBRANCH  11  14
ENDBRANCH   1  11
BRANCH   1  20
ATOM     20  C   UNL     1       3.382   6.433  18.495  0.00  0.00    +0.000 C 
BRANCH  20  25
ATOM     21  C   UNL     1       0.817  10.627  20.325  0.00  0.00    +0.000 C 
ATOM     22  C   UNL     1       1.623  11.003  19.074  0.00  0.00    +0.000 C 
ATOM     23  C   UNL     1       1.675   9.867  18.048  0.00  0.00    +0.000 C 
ATOM     24  N   UNL     1       2.138   8.614  18.649  0.00  0.00    +0.000 N 
ATOM     25  C   UNL     1       2.881   7.732  17.842  0.00  0.00    +0.000 C 
ATOM     26  O   UNL     1       3.158   8.021  16.677  0.00  0.00    +0.000 OA
ATOM     27  C   UNL     1       1.387   8.187  19.829  0.00  0.00    +0.000 C 
ATOM     28  C   UNL     1       1.321   9.289  20.888  0.00  0.00    +0.000 C 
BRANCH  21  29
ATOM     29  C   UNL     1      -0.675  10.573  20.027  0.00  0.00    +0.000 C 
ATOM     30  O   UNL     1      -1.184   9.883  19.159  0.00  0.00    +0.000 OA
BRANCH  29  31
ATOM     31  O   UNL     1      -1.350  11.457  20.817  0.00  0.00    +0.000 OA
BRANCH  31  33
ATOM     32  C   UNL     1      -1.143  12.727  22.892  0.00  0.00    +0.000 C 
ATOM     33  C   UNL     1      -1.067  11.371  22.221  0.00  0.00    +0.000 C 
ENDBRANCH  31  33
ENDBRANCH  29  31
ENDBRANCH  21  29
ENDBRANCH  20  25
ENDBRANCH   1  20
TORSDOF 9
ENDMDL
MODEL 2
REMARK VINA RESULT:      -7.8      0.936      1.465
REMARK  Name = 
REMARK  11 active torsions:
REMARK  status: ('A' for Active; 'I' for Inactive)
REMARK    1  A    between atoms: C_1  and  C_2
REMARK    2  A    between atoms: C_2  and  O_3
REMARK    3  A    between atoms: O_3  and  C_4
REMARK    4  A    between atoms: C_4  and  C_6
REMARK    5  A    between atoms: C_10  and  C_12
REMARK    6  A    between atoms: C_12  and  N_13
REMARK    7  A    between atoms: N_13  and  C_14
REMARK    8  A    between atoms: N_13  and  S_23
REMARK    9  A    between atoms: C_20  and  O_21
REMARK   10  A    between atoms: O_21  and  C_22
REMARK   11  A    between atoms: S_23  and  C_26
REMARK                            x       y       z     vdW  Elec       q    Type
REMARK                         _______ _______ _______ _____ _____    ______ ____
ROOT
ATOM      1  N   UNL     1       3.538   5.243  17.498  0.00  0.00    +0.000 N 
ENDROOT
BRANCH   1   2
ATOM      2  C   UNL     1       4.857   4.937  16.999  0.00  0.00    +0.000 A 
ATOM      3  C   UNL     1       4.984   4.645  15.627  0.00  0.00    +0.000 A 
ATOM      4  C   UNL     1       6.228   4.358  15.068  0.00  0.00    +0.000 A 
ATOM      5 CL   UNL     1       6.341   3.952  13.400  0.00  0.00    +0.000 Cl
ATOM      6  C   UNL     1       7.374   4.393  15.849  0.00  0.00    +0.000 A 
ATOM      7  C   UNL     1       7.263   4.707  17.204  0.00  0.00    +0.000 A 
ATOM      8  C   UNL     1       6.016   4.966  17.797  0.00  0.00    +0.000 A 
BRANCH   8   9
ATOM      9  O   UNL     1       6.134   5.255  19.128  0.00  0.00    +0.000 OA
ATOM     10  C   UNL     1       7.416   5.601  19.631  0.00  0.00    +0.000 C 
ENDBRANCH   8   9
ENDBRANCH   1   2
BRANCH   1  11
ATOM     11  S   UNL     1       2.425   3.958  17.652  0.00  0.00    +0.000 S 
ATOM     12  O   UNL     1       1.104   4.462  17.332  0.00  0.00    +0.000 OA
ATOM     13  O   UNL     1       2.951   2.788  16.982  0.00  0.00    +0.000 OA
BRANCH  11  14
ATOM     14  C   UNL     1       2.371   3.537  19.404  0.00  0.00    +0.000 A 
ATOM     15  C   UNL     1       1.156   3.605  20.103  0.00  0.00    +0.000 A 
ATOM     16  C   UNL     1       1.065   3.061  21.389  0.00  0.00    +0.000 A 
ATOM     17  C   UNL     1       2.166   2.427  21.970  0.00  0.00    +0.000 A 
ATOM     18  C   UNL     1       3.371   2.350  21.270  0.00  0.00    +0.000 A 
ATOM     19  C   UNL     1       3.476   2.907  19.991  0.00  0.00    +0.000 A 
ENDBRANCH  11  14
ENDBRANCH   1  11
BRANCH   1  20
ATOM     20  C   UNL     1       3.397   6.399  18.428  0.00  0.00    +0.000 C 
BRANCH  20  25
ATOM     21  C   UNL     1       0.787  10.683  19.962  0.00  0.00    +0.000 C 
ATOM     22  C   UNL     1       1.738  11.027  18.807  0.00  0.00    +0.000 C 
ATOM     23  C   UNL     1       1.865   9.885  17.794  0.00  0.00    +0.000 C 
ATOM     24  N   UNL     1       2.217   8.621  18.443  0.00  0.00    +0.000 N 
ATOM     25  C   UNL     1       3.014   7.711  17.723  0.00  0.00    +0.000 C 
ATOM     26  O   UNL     1       3.427   7.986  16.595  0.00  0.00    +0.000 OA
ATOM     27  C   UNL     1       1.327   8.224  19.533  0.00  0.00    +0.000 C 
ATOM     28  C   UNL     1       1.181   9.332  20.578  0.00  0.00    +0.000 C 
BRANCH  21  29
ATOM     29  C   UNL     1      -0.664  10.677  19.501  0.00  0.00    +0.000 C 
ATOM     30  O   UNL     1      -1.526   9.931  19.936  0.00  0.00    +0.000 OA
BRANCH  29  31
ATOM     31  O   UNL     1      -0.845  11.574  18.489  0.00  0.00    +0.000 OA
BRANCH  31  33
ATOM     32  C   UNL     1      -2.281  10.754  16.692  0.00  0.00    +0.000 C 
ATOM     33  C   UNL     1      -2.166  11.618  17.931  0.00  0.00    +0.000 C 
ENDBRANCH  31  33
ENDBRANCH  29  31
ENDBRANCH  21  29
ENDBRANCH  20  25
ENDBRANCH   1  20
TORSDOF 9
ENDMDL
MODEL 3
REMARK VINA RESULT:      -7.8      1.798      2.575
REMARK  Name = 
REMARK  11 active torsions:
REMARK  status: ('A' for Active; 'I' for Inactive)
REMARK    1  A    between atoms: C_1  and  C_2
REMARK    2  A    between atoms: C_2  and  O_3
REMARK    3  A    between atoms: O_3  and  C_4
REMARK    4  A    between atoms: C_4  and  C_6
REMARK    5  A    between atoms: C_10  and  C_12
REMARK    6  A    between atoms: C_12  and  N_13
REMARK    7  A    between atoms: N_13  and  C_14
REMARK    8  A    between atoms: N_13  and  S_23
REMARK    9  A    between atoms: C_20  and  O_21
REMARK   10  A    between atoms: O_21  and  C_22
REMARK   11  A    between atoms: S_23  and  C_26
REMARK                            x       y       z     vdW  Elec       q    Type
REMARK                         _______ _______ _______ _____ _____    ______ ____
ROOT
ATOM      1  N   UNL     1       3.450   5.712  17.906  0.00  0.00    +0.000 N 
ENDROOT
BRANCH   1   2
ATOM      2  C   UNL     1       4.886   5.668  17.779  0.00  0.00    +0.000 A 
ATOM      3  C   UNL     1       5.646   5.620  18.964  0.00  0.00    +0.000 A 
ATOM      4  C   UNL     1       7.037   5.557  18.921  0.00  0.00    +0.000 A 
ATOM      5 CL   UNL     1       7.937   5.556  20.388  0.00  0.00    +0.000 Cl
ATOM      6  C   UNL     1       7.700   5.501  17.705  0.00  0.00    +0.000 A 
ATOM      7  C   UNL     1       6.957   5.520  16.524  0.00  0.00    +0.000 A 
ATOM      8  C   UNL     1       5.556   5.618  16.542  0.00  0.00    +0.000 A 
BRANCH   8   9
ATOM      9  O   UNL     1       5.028   5.617  15.280  0.00  0.00    +0.000 OA
ATOM     10  C   UNL     1       5.397   4.567  14.397  0.00  0.00    +0.000 C 
ENDBRANCH   8   9
ENDBRANCH   1   2
BRANCH   1  11
ATOM     11  S   UNL     1       2.593   4.240  17.797  0.00  0.00    +0.000 S 
ATOM     12  O   UNL     1       1.250   4.531  17.333  0.00  0.00    +0.000 OA
ATOM     13  O   UNL     1       3.412   3.260  17.118  0.00  0.00    +0.000 OA
BRANCH  11  14
ATOM     14  C   UNL     1       2.401   3.635  19.484  0.00  0.00    +0.000 A 
ATOM     15  C   UNL     1       1.132   3.627  20.084  0.00  0.00    +0.000 A 
ATOM     16  C   UNL     1       0.943   2.949  21.294  0.00  0.00    +0.000 A 
ATOM     17  C   UNL     1       1.999   2.258  21.892  0.00  0.00    +0.000 A 
ATOM     18  C   UNL     1       3.258   2.257  21.289  0.00  0.00    +0.000 A 
ATOM     19  C   UNL     1       3.461   2.947  20.089  0.00  0.00    +0.000 A 
ENDBRANCH  11  14
ENDBRANCH   1  11
BRANCH   1  20
ATOM     20  C   UNL     1       2.858   6.800  18.736  0.00  0.00    +0.000 C 
BRANCH  20  25
ATOM     21  C   UNL     1       0.805  11.448  20.044  0.00  0.00    +0.000 C 
ATOM     22  C   UNL     1       1.712  11.596  18.814  0.00  0.00    +0.000 C 
ATOM     23  C   UNL     1       1.657  10.372  17.895  0.00  0.00    +0.000 C 
ATOM     24  N   UNL     1       1.917   9.131  18.628  0.00  0.00    +0.000 N 
ATOM     25  C   UNL     1       2.569   8.087  17.945  0.00  0.00    +0.000 C 
ATOM     26  O   UNL     1       2.936   8.227  16.777  0.00  0.00    +0.000 OA
ATOM     27  C   UNL     1       1.061   8.918  19.795  0.00  0.00    +0.000 C 
ATOM     28  C   UNL     1       1.096  10.114  20.749  0.00  0.00    +0.000 C 
BRANCH  21  29
ATOM     29  C   UNL     1      -0.665  11.562  19.665  0.00  0.00    +0.000 C 
ATOM     30  O   UNL     1      -1.595  11.328  20.419  0.00  0.00    +0.000 OA
BRANCH  29  31
ATOM     31  O   UNL     1      -0.792  11.896  18.348  0.00  0.00    +0.000 OA
BRANCH  31  33
ATOM     32  C   UNL     1      -1.959  10.152  17.101  0.00  0.00    +0.000 C 
ATOM     33  C   UNL     1      -2.033  11.526  17.734  0.00  0.00    +0.000 C 
ENDBRANCH  31  33
ENDBRANCH  29  31
ENDBRANCH  21  29
ENDBRANCH  20  25
ENDBRANCH   1  20
TORSDOF 9
ENDMDL
MODEL 4
REMARK VINA RESULT:      -7.8      1.743      2.421
REMARK  Name = 
REMARK  11 active torsions:
REMARK  status: ('A' for Active; 'I' for Inactive)
REMARK    1  A    between atoms: C_1  and  C_2
REMARK    2  A    between atoms: C_2  and  O_3
REMARK    3  A    between atoms: O_3  and  C_4
REMARK    4  A    between atoms: C_4  and  C_6
REMARK    5  A    between atoms: C_10  and  C_12
REMARK    6  A    between atoms: C_12  and  N_13
REMARK    7  A    between atoms: N_13  and  C_14
REMARK    8  A    between atoms: N_13  and  S_23
REMARK    9  A    between atoms: C_20  and  O_21
REMARK   10  A    between atoms: O_21  and  C_22
REMARK   11  A    between atoms: S_23  and  C_26
REMARK                            x       y       z     vdW  Elec       q    Type
REMARK                         _______ _______ _______ _____ _____    ______ ____
ROOT
ATOM      1  N   UNL     1       3.676   5.601  18.095  0.00  0.00    +0.000 N 
ENDROOT
BRANCH   1   2
ATOM      2  C   UNL     1       5.103   5.815  18.069  0.00  0.00    +0.000 A 
ATOM      3  C   UNL     1       5.830   5.505  19.235  0.00  0.00    +0.000 A 
ATOM      4  C   UNL     1       7.213   5.668  19.280  0.00  0.00    +0.000 A 
ATOM      5 CL   UNL     1       8.065   5.332  20.737  0.00  0.00    +0.000 Cl
ATOM      6  C   UNL     1       7.906   6.103  18.161  0.00  0.00    +0.000 A 
ATOM      7  C   UNL     1       7.199   6.388  16.992  0.00  0.00    +0.000 A 
ATOM      8  C   UNL     1       5.801   6.264  16.933  0.00  0.00    +0.000 A 
BRANCH   8   9
ATOM      9  O   UNL     1       5.312   6.588  15.698  0.00  0.00    +0.000 OA
ATOM     10  C   UNL     1       5.345   5.598  14.679  0.00  0.00    +0.000 C 
ENDBRANCH   8   9
ENDBRANCH   1   2
BRANCH   1  11
ATOM     11  S   UNL     1       3.095   4.044  17.704  0.00  0.00    +0.000 S 
ATOM     12  O   UNL     1       1.896   4.195  16.904  0.00  0.00    +0.000 OA
ATOM     13  O   UNL     1       4.195   3.227  17.238  0.00  0.00    +0.000 OA
BRANCH  11  14
ATOM     14  C   UNL     1       2.553   3.299  19.253  0.00  0.00    +0.000 A 
ATOM     15  C   UNL     1       3.502   2.807  20.164  0.00  0.00    +0.000 A 
ATOM     16  C   UNL     1       3.101   2.446  21.454  0.00  0.00    +0.000 A 
ATOM     17  C   UNL     1       1.771   2.596  21.852  0.00  0.00    +0.000 A 
ATOM     18  C   UNL     1       0.829   3.094  20.950  0.00  0.00    +0.000 A 
ATOM     19  C   UNL     1       1.218   3.442  19.652  0.00  0.00    +0.000 A 
ENDBRANCH  11  14
ENDBRANCH   1  11
BRANCH   1  20
ATOM     20  C   UNL     1       2.865   6.430  19.031  0.00  0.00    +0.000 C 
BRANCH  20  25
ATOM     21  C   UNL     1       0.856  10.842  21.037  0.00  0.00    +0.000 C 
ATOM     22  C   UNL     1       1.485  11.122  19.665  0.00  0.00    +0.000 C 
ATOM     23  C   UNL     1       1.316   9.951  18.694  0.00  0.00    +0.000 C 
ATOM     24  N   UNL     1       1.789   8.692  19.273  0.00  0.00    +0.000 N 
ATOM     25  C   UNL     1       2.349   7.736  18.403  0.00  0.00    +0.000 C 
ATOM     26  O   UNL     1       2.464   7.967  17.199  0.00  0.00    +0.000 OA
ATOM     27  C   UNL     1       1.200   8.354  20.568  0.00  0.00    +0.000 C 
ATOM     28  C   UNL     1       1.359   9.494  21.577  0.00  0.00    +0.000 C 
BRANCH  21  29
ATOM     29  C   UNL     1      -0.665  10.875  20.965  0.00  0.00    +0.000 C 
ATOM     30  O   UNL     1      -1.307  10.971  19.933  0.00  0.00    +0.000 OA
BRANCH  29  31
ATOM     31  O   UNL     1      -1.201  10.852  22.220  0.00  0.00    +0.000 OA
BRANCH  31  33
ATOM     32  C   UNL     1      -2.916  12.051  23.477  0.00  0.00    +0.000 C 
ATOM     33  C   UNL     1      -1.590  12.127  22.749  0.00  0.00    +0.000 C 
ENDBRANCH  31  33
ENDBRANCH  29  31
ENDBRANCH  21  29
ENDBRANCH  20  25
ENDBRANCH   1  20
TORSDOF 9
ENDMDL
MODEL 5
REMARK VINA RESULT:      -7.7      1.576      2.252
REMARK  Name = 
REMARK  11 active torsions:
REMARK  status: ('A' for Active; 'I' for Inactive)
REMARK    1  A    between atoms: C_1  and  C_2
REMARK    2  A    between atoms: C_2  and  O_3
REMARK    3  A    between atoms: O_3  and  C_4
REMARK    4  A    between atoms: C_4  and  C_6
REMARK    5  A    between atoms: C_10  and  C_12
REMARK    6  A    between atoms: C_12  and  N_13
REMARK    7  A    between atoms: N_13  and  C_14
REMARK    8  A    between atoms: N_13  and  S_23
REMARK    9  A    between atoms: C_20  and  O_21
REMARK   10  A    between atoms: O_21  and  C_22
REMARK   11  A    between atoms: S_23  and  C_26
REMARK                            x       y       z     vdW  Elec       q    Type
REMARK                         _______ _______ _______ _____ _____    ______ ____
ROOT
ATOM      1  N   UNL     1       3.421   5.425  17.750  0.00  0.00    +0.000 N 
ENDROOT
BRANCH   1   2
ATOM      2  C   UNL     1       4.853   5.299  17.629  0.00  0.00    +0.000 A 
ATOM      3  C   UNL     1       5.617   5.384  18.809  0.00  0.00    +0.000 A 
ATOM      4  C   UNL     1       7.004   5.253  18.775  0.00  0.00    +0.000 A 
ATOM      5 CL   UNL     1       7.913   5.417  20.227  0.00  0.00    +0.000 Cl
ATOM      6  C   UNL     1       7.656   4.997  17.578  0.00  0.00    +0.000 A 
ATOM      7  C   UNL     1       6.907   4.884  16.407  0.00  0.00    +0.000 A 
ATOM      8  C   UNL     1       5.511   5.046  16.411  0.00  0.00    +0.000 A 
BRANCH   8   9
ATOM      9  O   UNL     1       4.976   4.892  15.162  0.00  0.00    +0.000 OA
ATOM     10  C   UNL     1       5.745   4.217  14.178  0.00  0.00    +0.000 C 
ENDBRANCH   8   9
ENDBRANCH   1   2
BRANCH   1  11
ATOM     11  S   UNL     1       2.477   4.014  17.571  0.00  0.00    +0.000 S 
ATOM     12  O   UNL     1       1.136   4.411  17.191  0.00  0.00    +0.000 OA
ATOM     13  O   UNL     1       3.211   3.045  16.786  0.00  0.00    +0.000 OA
BRANCH  11  14
ATOM     14  C   UNL     1       2.320   3.294  19.216  0.00  0.00    +0.000 A 
ATOM     15  C   UNL     1       3.445   2.737  19.846  0.00  0.00    +0.000 A 
ATOM     16  C   UNL     1       3.379   2.393  21.201  0.00  0.00    +0.000 A 
ATOM     17  C   UNL     1       2.214   2.624  21.936  0.00  0.00    +0.000 A 
ATOM     18  C   UNL     1       1.100   3.187  21.312  0.00  0.00    +0.000 A 
ATOM     19  C   UNL     1       1.151   3.518  19.954  0.00  0.00    +0.000 A 
ENDBRANCH  11  14
ENDBRANCH   1  11
BRANCH   1  20
ATOM     20  C   UNL     1       2.889   6.510  18.622  0.00  0.00    +0.000 C 
BRANCH  20  25
ATOM     21  C   UNL     1       0.799  11.113  20.027  0.00  0.00    +0.000 C 
ATOM     22  C   UNL     1       1.798  11.312  18.879  0.00  0.00    +0.000 C 
ATOM     23  C   UNL     1       1.798  10.141  17.893  0.00  0.00    +0.000 C 
ATOM     24  N   UNL     1       1.987   8.858  18.573  0.00  0.00    +0.000 N 
ATOM     25  C   UNL     1       2.676   7.842  17.884  0.00  0.00    +0.000 C 
ATOM     26  O   UNL     1       3.132   8.040  16.756  0.00  0.00    +0.000 OA
ATOM     27  C   UNL     1       1.042   8.597  19.659  0.00  0.00    +0.000 C 
ATOM     28  C   UNL     1       1.019   9.738  20.678  0.00  0.00    +0.000 C 
BRANCH  21  29
ATOM     29  C   UNL     1      -0.636  11.272  19.546  0.00  0.00    +0.000 C 
ATOM     30  O   UNL     1      -0.961  11.463  18.386  0.00  0.00    +0.000 OA
BRANCH  29  31
ATOM     31  O   UNL     1      -1.498  11.239  20.603  0.00  0.00    +0.000 OA
BRANCH  31  33
ATOM     32  C   UNL     1      -1.387  11.832  22.969  0.00  0.00    +0.000 C 
ATOM     33  C   UNL     1      -1.374  12.322  21.535  0.00  0.00    +0.000 C 
ENDBRANCH  31  33
ENDBRANCH  29  31
ENDBRANCH  21  29
ENDBRANCH  20  25
ENDBRANCH   1  20
TORSDOF 9
ENDMDL
MODEL 6
REMARK VINA RESULT:      -7.3      1.832      2.335
REMARK  Name = 
REMARK  11 active torsions:
REMARK  status: ('A' for Active; 'I' for Inactive)
REMARK    1  A    between atoms: C_1  and  C_2
REMARK    2  A    between atoms: C_2  and  O_3
REMARK    3  A    between atoms: O_3  and  C_4
REMARK    4  A    between atoms: C_4  and  C_6
REMARK    5  A    between atoms: C_10  and  C_12
REMARK    6  A    between atoms: C_12  and  N_13
REMARK    7  A    between atoms: N_13  and  C_14
REMARK    8  A    between atoms: N_13  and  S_23
REMARK    9  A    between atoms: C_20  and  O_21
REMARK   10  A    between atoms: O_21  and  C_22
REMARK   11  A    between atoms: S_23  and  C_26
REMARK                            x       y       z     vdW  Elec       q    Type
REMARK                         _______ _______ _______ _____ _____    ______ ____
ROOT
ATOM      1  N   UNL     1       3.433   5.616  17.847  0.00  0.00    +0.000 N 
ENDROOT
BRANCH   1   2
ATOM      2  C   UNL     1       4.863   5.515  17.681  0.00  0.00    +0.000 A 
ATOM      3  C   UNL     1       5.661   5.580  18.839  0.00  0.00    +0.000 A 
ATOM      4  C   UNL     1       7.048   5.471  18.760  0.00  0.00    +0.000 A 
ATOM      5 CL   UNL     1       7.998   5.609  20.189  0.00  0.00    +0.000 Cl
ATOM      6  C   UNL     1       7.667   5.258  17.538  0.00  0.00    +0.000 A 
ATOM      7  C   UNL     1       6.885   5.165  16.387  0.00  0.00    +0.000 A 
ATOM      8  C   UNL     1       5.488   5.306  16.437  0.00  0.00    +0.000 A 
BRANCH   8   9
ATOM      9  O   UNL     1       4.917   5.178  15.201  0.00  0.00    +0.000 OA
ATOM     10  C   UNL     1       5.591   4.396  14.225  0.00  0.00    +0.000 C 
ENDBRANCH   8   9
ENDBRANCH   1   2
BRANCH   1  11
ATOM     11  S   UNL     1       2.518   4.177  17.778  0.00  0.00    +0.000 S 
ATOM     12  O   UNL     1       1.184   4.511  17.320  0.00  0.00    +0.000 OA
ATOM     13  O   UNL     1       3.291   3.151  17.114  0.00  0.00    +0.000 OA
BRANCH  11  14
ATOM     14  C   UNL     1       2.319   3.618  19.480  0.00  0.00    +0.000 A 
ATOM     15  C   UNL     1       1.042   3.594  20.064  0.00  0.00    +0.000 A 
ATOM     16  C   UNL     1       0.855   2.947  21.291  0.00  0.00    +0.000 A 
ATOM     17  C   UNL     1       1.920   2.303  21.924  0.00  0.00    +0.000 A 
ATOM     18  C   UNL     1       3.187   2.319  21.338  0.00  0.00    +0.000 A 
ATOM     19  C   UNL     1       3.388   2.978  20.120  0.00  0.00    +0.000 A 
ENDBRANCH  11  14
ENDBRANCH   1  11
BRANCH   1  20
ATOM     20  C   UNL     1       2.908   6.735  18.680  0.00  0.00    +0.000 C 
BRANCH  20  25
ATOM     21  C   UNL     1       0.948  11.433  19.953  0.00  0.00    +0.000 C 
ATOM     22  C   UNL     1       1.914  11.564  18.766  0.00  0.00    +0.000 C 
ATOM     23  C   UNL     1       1.861  10.353  17.831  0.00  0.00    +0.000 C 
ATOM     24  N   UNL     1       2.047   9.097  18.559  0.00  0.00    +0.000 N 
ATOM     25  C   UNL     1       2.696   8.039  17.893  0.00  0.00    +0.000 C 
ATOM     26  O   UNL     1       3.119   8.180  16.744  0.00  0.00    +0.000 OA
ATOM     27  C   UNL     1       1.133   8.899  19.684  0.00  0.00    +0.000 C 
ATOM     28  C   UNL     1       1.164  10.082  20.653  0.00  0.00    +0.000 C 
BRANCH  21  29
ATOM     29  C   UNL     1      -0.499  11.600  19.510  0.00  0.00    +0.000 C 
ATOM     30  O   UNL     1      -1.390  10.799  19.739  0.00  0.00    +0.000 OA
BRANCH  29  31
ATOM     31  O   UNL     1      -0.640  12.733  18.763  0.00  0.00    +0.000 OA
BRANCH  31  33
ATOM     32  C   UNL     1       0.038  14.876  19.717  0.00  0.00    +0.000 C 
ATOM     33  C   UNL     1      -1.089  13.892  19.477  0.00  0.00    +0.000 C 
ENDBRANCH  31  33
ENDBRANCH  29  31
ENDBRANCH  21  29
ENDBRANCH  20  25
ENDBRANCH   1  20
TORSDOF 9
ENDMDL
MODEL 7
REMARK VINA RESULT:      -7.2      1.142      1.537
REMARK  Name = 
REMARK  11 active torsions:
REMARK  status: ('A' for Active; 'I' for Inactive)
REMARK    1  A    between atoms: C_1  and  C_2
REMARK    2  A    between atoms: C_2  and  O_3
REMARK    3  A    between atoms: O_3  and  C_4
REMARK    4  A    between atoms: C_4  and  C_6
REMARK    5  A    between atoms: C_10  and  C_12
REMARK    6  A    between atoms: C_12  and  N_13
REMARK    7  A    between atoms: N_13  and  C_14
REMARK    8  A    between atoms: N_13  and  S_23
REMARK    9  A    between atoms: C_20  and  O_21
REMARK   10  A    between atoms: O_21  and  C_22
REMARK   11  A    between atoms: S_23  and  C_26
REMARK                            x       y       z     vdW  Elec       q    Type
REMARK                         _______ _______ _______ _____ _____    ______ ____
ROOT
ATOM      1  N   UNL     1       3.175   5.644  18.047  0.00  0.00    +0.000 N 
ENDROOT
BRANCH   1   2
ATOM      2  C   UNL     1       4.397   5.198  17.424  0.00  0.00    +0.000 A 
ATOM      3  C   UNL     1       4.348   4.858  16.058  0.00  0.00    +0.000 A 
ATOM      4  C   UNL     1       5.492   4.436  15.384  0.00  0.00    +0.000 A 
ATOM      5 CL   UNL     1       5.386   3.976  13.728  0.00  0.00    +0.000 Cl
ATOM      6  C   UNL     1       6.713   4.381  16.038  0.00  0.00    +0.000 A 
ATOM      7  C   UNL     1       6.780   4.741  17.384  0.00  0.00    +0.000 A 
ATOM      8  C   UNL     1       5.633   5.136  18.094  0.00  0.00    +0.000 A 
BRANCH   8   9
ATOM      9  O   UNL     1       5.921   5.448  19.394  0.00  0.00    +0.000 OA
ATOM     10  C   UNL     1       7.284   5.592  19.767  0.00  0.00    +0.000 C 
ENDBRANCH   8   9
ENDBRANCH   1   2
BRANCH   1  11
ATOM     11  S   UNL     1       2.009   4.465  18.453  0.00  0.00    +0.000 S 
ATOM     12  O   UNL     1       1.301   4.917  19.634  0.00  0.00    +0.000 OA
ATOM     13  O   UNL     1       1.286   4.078  17.262  0.00  0.00    +0.000 OA
BRANCH  11  14
ATOM     14  C   UNL     1       2.925   3.000  18.969  0.00  0.00    +0.000 A 
ATOM     15  C   UNL     1       3.171   1.969  18.048  0.00  0.00    +0.000 A 
ATOM     16  C   UNL     1       4.071   0.949  18.375  0.00  0.00    +0.000 A 
ATOM     17  C   UNL     1       4.746   0.965  19.598  0.00  0.00    +0.000 A 
ATOM     18  C   UNL     1       4.510   1.996  20.509  0.00  0.00    +0.000 A 
ATOM     19  C   UNL     1       3.598   3.010  20.197  0.00  0.00    +0.000 A 
ENDBRANCH  11  14
ENDBRANCH   1  11
BRANCH   1  20
ATOM     20  C   UNL     1       3.228   6.883  18.875  0.00  0.00    +0.000 C 
BRANCH  20  25
ATOM     21  C   UNL     1       0.736  11.091  20.774  0.00  0.00    +0.000 C 
ATOM     22  C   UNL     1       1.299  11.393  19.378  0.00  0.00    +0.000 C 
ATOM     23  C   UNL     1       1.255  10.174  18.452  0.00  0.00    +0.000 C 
ATOM     24  N   UNL     1       1.889   9.005  19.064  0.00  0.00    +0.000 N 
ATOM     25  C   UNL     1       2.544   8.091  18.215  0.00  0.00    +0.000 C 
ATOM     26  O   UNL     1       2.606   8.289  17.000  0.00  0.00    +0.000 OA
ATOM     27  C   UNL     1       1.371   8.648  20.384  0.00  0.00    +0.000 C 
ATOM     28  C   UNL     1       1.410   9.835  21.348  0.00  0.00    +0.000 C 
BRANCH  21  29
ATOM     29  C   UNL     1      -0.778  10.937  20.738  0.00  0.00    +0.000 C 
ATOM     30  O   UNL     1      -1.469  11.112  19.748  0.00  0.00    +0.000 OA
BRANCH  29  31
ATOM     31  O   UNL     1      -1.256  10.644  21.981  0.00  0.00    +0.000 OA
BRANCH  31  33
ATOM     32  C   UNL     1      -2.742  12.099  23.260  0.00  0.00    +0.000 C 
ATOM     33  C   UNL     1      -1.314  11.746  22.897  0.00  0.00    +0.000 C 
ENDBRANCH  31  33
ENDBRANCH  29  31
ENDBRANCH  21  29
ENDBRANCH  20  25
ENDBRANCH   1  20
TORSDOF 9
ENDMDL
MODEL 8
REMARK VINA RESULT:      -7.0      1.821      2.525
REMARK  Name = 
REMARK  11 active torsions:
REMARK  status: ('A' for Active; 'I' for Inactive)
REMARK    1  A    between atoms: C_1  and  C_2
REMARK    2  A    between atoms: C_2  and  O_3
REMARK    3  A    between atoms: O_3  and  C_4
REMARK    4  A    between atoms: C_4  and  C_6
REMARK    5  A    between atoms: C_10  and  C_12
REMARK    6  A    between atoms: C_12  and  N_13
REMARK    7  A    between atoms: N_13  and  C_14
REMARK    8  A    between atoms: N_13  and  S_23
REMARK    9  A    between atoms: C_20  and  O_21
REMARK   10  A    between atoms: O_21  and  C_22
REMARK   11  A    between atoms: S_23  and  C_26
REMARK                            x       y       z     vdW  Elec       q    Type
REMARK                         _______ _______ _______ _____ _____    ______ ____
ROOT
ATOM      1  N   UNL     1       3.465   5.648  17.283  0.00  0.00    +0.000 N 
ENDROOT
BRANCH   1   2
ATOM      2  C   UNL     1       4.869   5.318  17.335  0.00  0.00    +0.000 A 
ATOM      3  C   UNL     1       5.552   5.558  18.543  0.00  0.00    +0.000 A 
ATOM      4  C   UNL     1       6.904   5.248  18.676  0.00  0.00    +0.000 A 
ATOM      5 CL   UNL     1       7.721   5.605  20.148  0.00  0.00    +0.000 Cl
ATOM      6  C   UNL     1       7.595   4.660  17.628  0.00  0.00    +0.000 A 
ATOM      7  C   UNL     1       6.923   4.393  16.435  0.00  0.00    +0.000 A 
ATOM      8  C   UNL     1       5.569   4.727  16.266  0.00  0.00    +0.000 A 
BRANCH   8   9
ATOM      9  O   UNL     1       5.107   4.377  15.028  0.00  0.00    +0.000 OA
ATOM     10  C   UNL     1       6.043   3.905  14.069  0.00  0.00    +0.000 C 
ENDBRANCH   8   9
ENDBRANCH   1   2
BRANCH   1  11
ATOM     11  S   UNL     1       2.339   4.386  17.518  0.00  0.00    +0.000 S 
ATOM     12  O   UNL     1       1.007   4.957  17.486  0.00  0.00    +0.000 OA
ATOM     13  O   UNL     1       2.686   3.273  16.662  0.00  0.00    +0.000 OA
BRANCH  11  14
ATOM     14  C   UNL     1       2.575   3.800  19.206  0.00  0.00    +0.000 A 
ATOM     15  C   UNL     1       1.521   3.885  20.130  0.00  0.00    +0.000 A 
ATOM     16  C   UNL     1       1.624   3.226  21.359  0.00  0.00    +0.000 A 
ATOM     17  C   UNL     1       2.753   2.461  21.662  0.00  0.00    +0.000 A 
ATOM     18  C   UNL     1       3.796   2.368  20.739  0.00  0.00    +0.000 A 
ATOM     19  C   UNL     1       3.709   3.039  19.515  0.00  0.00    +0.000 A 
ENDBRANCH  11  14
ENDBRANCH   1  11
BRANCH   1  20
ATOM     20  C   UNL     1       3.059   7.025  17.684  0.00  0.00    +0.000 C 
BRANCH  20  25
ATOM     21  C   UNL     1      -0.343   9.999  20.350  0.00  0.00    +0.000 C 
ATOM     22  C   UNL     1      -0.027   8.718  21.136  0.00  0.00    +0.000 C 
ATOM     23  C   UNL     1       1.423   8.262  20.954  0.00  0.00    +0.000 C 
ATOM     24  N   UNL     1       1.781   8.144  19.540  0.00  0.00    +0.000 N 
ATOM     25  C   UNL     1       2.713   7.153  19.176  0.00  0.00    +0.000 C 
ATOM     26  O   UNL     1       3.186   6.389  20.020  0.00  0.00    +0.000 OA
ATOM     27  C   UNL     1       1.533   9.346  18.743  0.00  0.00    +0.000 C 
ATOM     28  C   UNL     1       0.089   9.831  18.884  0.00  0.00    +0.000 C 
BRANCH  21  29
ATOM     29  C   UNL     1       0.319  11.215  20.984  0.00  0.00    +0.000 C 
ATOM     30  O   UNL     1       1.060  11.985  20.396  0.00  0.00    +0.000 OA
BRANCH  29  31
ATOM     31  O   UNL     1       0.021  11.278  22.314  0.00  0.00    +0.000 OA
BRANCH  31  33
ATOM     32  C   UNL     1      -2.281  11.956  22.762  0.00  0.00    +0.000 C 
ATOM     33  C   UNL     1      -0.825  12.368  22.706  0.00  0.00    +0.000 C 
ENDBRANCH  31  33
ENDBRANCH  29  31
ENDBRANCH  21  29
ENDBRANCH  20  25
ENDBRANCH   1  20
TORSDOF 9
ENDMDL
MODEL 9
REMARK VINA RESULT:      -6.9      3.432      8.723
REMARK  Name = 
REMARK  11 active torsions:
REMARK  status: ('A' for Active; 'I' for Inactive)
REMARK    1  A    between atoms: C_1  and  C_2
REMARK    2  A    between atoms: C_2  and  O_3
REMARK    3  A    between atoms: O_3  and  C_4
REMARK    4  A    between atoms: C_4  and  C_6
REMARK    5  A    between atoms: C_10  and  C_12
REMARK    6  A    between atoms: C_12  and  N_13
REMARK    7  A    between atoms: N_13  and  C_14
REMARK    8  A    between atoms: N_13  and  S_23
REMARK    9  A    between atoms: C_20  and  O_21
REMARK   10  A    between atoms: O_21  and  C_22
REMARK   11  A    between atoms: S_23  and  C_26
REMARK                            x       y       z     vdW  Elec       q    Type
REMARK                         _______ _______ _______ _____ _____    ______ ____
ROOT
ATOM      1  N   UNL     1       0.929  10.232  19.863  0.00  0.00    +0.000 N 
ENDROOT
BRANCH   1   2
ATOM      2  C   UNL     1      -0.114  10.815  19.055  0.00  0.00    +0.000 A 
ATOM      3  C   UNL     1      -1.268  10.042  18.821  0.00  0.00    +0.000 A 
ATOM      4  C   UNL     1      -2.325  10.544  18.066  0.00  0.00    +0.000 A 
ATOM      5 CL   UNL     1      -3.697   9.552  17.753  0.00  0.00    +0.000 Cl
ATOM      6  C   UNL     1      -2.278  11.834  17.561  0.00  0.00    +0.000 A 
ATOM      7  C   UNL     1      -1.152  12.620  17.809  0.00  0.00    +0.000 A 
ATOM      8  C   UNL     1      -0.058  12.123  18.539  0.00  0.00    +0.000 A 
BRANCH   8   9
ATOM      9  O   UNL     1       0.935  13.055  18.668  0.00  0.00    +0.000 OA
ATOM     10  C   UNL     1       2.142  12.856  17.946  0.00  0.00    +0.000 C 
ENDBRANCH   8   9
ENDBRANCH   1   2
BRANCH   1  11
ATOM     11  S   UNL     1       1.226  10.916  21.399  0.00  0.00    +0.000 S 
ATOM     12  O   UNL     1       1.487   9.837  22.332  0.00  0.00    +0.000 OA
ATOM     13  O   UNL     1       2.158  12.014  21.261  0.00  0.00    +0.000 OA
BRANCH  11  14
ATOM     14  C   UNL     1      -0.328  11.655  21.936  0.00  0.00    +0.000 A 
ATOM     15  C   UNL     1      -1.233  10.903  22.701  0.00  0.00    +0.000 A 
ATOM     16  C   UNL     1      -2.320  11.539  23.310  0.00  0.00    +0.000 A 
ATOM     17  C   UNL     1      -2.495  12.919  23.187  0.00  0.00    +0.000 A 
ATOM     18  C   UNL     1      -1.588  13.669  22.435  0.00  0.00    +0.000 A 
ATOM     19  C   UNL     1      -0.509  13.038  21.808  0.00  0.00    +0.000 A 
ENDBRANCH  11  14
ENDBRANCH   1  11
BRANCH   1  20
ATOM     20  C   UNL     1       1.223   8.783  19.679  0.00  0.00    +0.000 C 
BRANCH  20  25
ATOM     21  C   UNL     1       4.143   4.624  18.374  0.00  0.00    +0.000 C 
ATOM     22  C   UNL     1       3.833   5.467  17.128  0.00  0.00    +0.000 C 
ATOM     23  C   UNL     1       3.785   6.966  17.434  0.00  0.00    +0.000 C 
ATOM     24  N   UNL     1       2.878   7.265  18.544  0.00  0.00    +0.000 N 
ATOM     25  C   UNL     1       2.192   8.495  18.520  0.00  0.00    +0.000 C 
ATOM     26  O   UNL     1       2.329   9.278  17.579  0.00  0.00    +0.000 OA
ATOM     27  C   UNL     1       3.144   6.515  19.770  0.00  0.00    +0.000 C 
ATOM     28  C   UNL     1       3.187   5.007  19.514  0.00  0.00    +0.000 C 
BRANCH  21  29
ATOM     29  C   UNL     1       5.597   4.776  18.798  0.00  0.00    +0.000 C 
ATOM     30  O   UNL     1       6.006   4.623  19.937  0.00  0.00    +0.000 OA
BRANCH  29  31
ATOM     31  O   UNL     1       6.361   5.176  17.741  0.00  0.00    +0.000 OA
BRANCH  31  33
ATOM     32  C   UNL     1       7.491   7.329  17.525  0.00  0.00    +0.000 C 
ATOM     33  C   UNL     1       7.540   5.919  18.077  0.00  0.00    +0.000 C 
ENDBRANCH  31  33
ENDBRANCH  29  31
ENDBRANCH  21  29
ENDBRANCH  20  25
ENDBRANCH   1  20
TORSDOF 9
ENDMDL
