MODEL 1
REMARK VINA RESULT:      -7.6      0.000      0.000
REMARK  Name = 
REMARK  7 active torsions:
REMARK  status: ('A' for Active; 'I' for Inactive)
REMARK    1  A    between atoms: C_1  and  C_2
REMARK    2  A    between atoms: C_2  and  C_3
REMARK    3  A    between atoms: C_3  and  S_4
REMARK    4  A    between atoms: S_4  and  N_7
REMARK    5  A    between atoms: C_10  and  N_11
REMARK    6  A    between atoms: N_11  and  C_12
REMARK    7  A    between atoms: N_11  and  C_13
REMARK                            x       y       z     vdW  Elec       q    Type
REMARK                         _______ _______ _______ _____ _____    ______ ____
ROOT
ATOM      1  N   UNL     1       2.731   6.298  19.178  0.00  0.00    +0.000 N 
ATOM      2  C   UNL     1       1.812   7.317  19.666  0.00  0.00    +0.000 C 
ENDROOT
BRANCH   1   3
ATOM      3  C   UNL     1       2.538   5.017  19.729  0.00  0.00    +0.000 A 
ATOM      4  N   UNL     1       2.505   4.875  21.084  0.00  0.00    +0.000 NA
ATOM      5  C   UNL     1       2.284   3.667  21.635  0.00  0.00    +0.000 A 
ATOM      6  N   UNL     1       2.128   2.495  21.008  0.00  0.00    +0.000 NA
ATOM      7  C   UNL     1       2.219   2.646  19.681  0.00  0.00    +0.000 A 
ATOM      8  N   UNL     1       2.155   1.608  18.793  0.00  0.00    +0.000 N 
ATOM      9  C   UNL     1       2.303   2.083  17.517  0.00  0.00    +0.000 A 
ATOM     10  C   UNL     1       2.457   3.451  17.597  0.00  0.00    +0.000 A 
ATOM     11  C   UNL     1       2.406   3.827  18.973  0.00  0.00    +0.000 A 
ATOM     12  H   UNL     1       2.045   0.643  19.069  0.00  0.00    +0.000 HD
ENDBRANCH   1   3
BRANCH   1  16
ATOM     13  N   UNL     1       5.610   5.033  17.603  0.00  0.00    +0.000 NA
ATOM     14  C   UNL     1       4.706   5.705  16.637  0.00  0.00    +0.000 C 
ATOM     15  C   UNL     1       4.299   6.998  17.307  0.00  0.00    +0.000 C 
ATOM     16  C   UNL     1       4.120   6.621  18.772  0.00  0.00    +0.000 C 
ATOM     17  C   UNL     1       5.152   5.480  18.979  0.00  0.00    +0.000 C 
BRANCH  13  18
ATOM     18  S   UNL     1       7.286   5.261  17.341  0.00  0.00    +0.000 S 
ATOM     19  O   UNL     1       7.450   5.635  15.952  0.00  0.00    +0.000 OA
ATOM     20  O   UNL     1       7.970   4.111  17.891  0.00  0.00    +0.000 OA
BRANCH  18  21
ATOM     21  C   UNL     1       7.649   6.696  18.357  0.00  0.00    +0.000 C 
BRANCH  21  23
ATOM     22  C   UNL     1       8.437   9.085  18.281  0.00  0.00    +0.000 C 
ATOM     23  C   UNL     1       7.773   7.958  17.506  0.00  0.00    +0.000 C 
ENDBRANCH  21  23
ENDBRANCH  18  21
ENDBRANCH  13  18
ENDBRANCH   1  16
TORSDOF 5
ENDMDL
MODEL 2
REMARK VINA RESULT:      -7.1      0.842      1.986
REMARK  Name = 
REMARK  7 active torsions:
REMARK  status: ('A' for Active; 'I' for Inactive)
REMARK    1  A    between atoms: C_1  and  C_2
REMARK    2  A    between atoms: C_2  and  C_3
REMARK    3  A    between atoms: C_3  and  S_4
REMARK    4  A    between atoms: S_4  and  N_7
REMARK    5  A    between atoms: C_10  and  N_11
REMARK    6  A    between atoms: N_11  and  C_12
REMARK    7  A    between atoms: N_11  and  C_13
REMARK                            x       y       z     vdW  Elec       q    Type
REMARK                         _______ _______ _______ _____ _____    ______ ____
ROOT
ATOM      1  N   UNL     1       2.633   6.014  18.126  0.00  0.00    +0.000 N 
ATOM      2  C   UNL     1       1.647   6.911  18.712  0.00  0.00    +0.000 C 
ENDROOT
BRANCH   1   3
ATOM      3  C   UNL     1       2.429   4.650  18.408  0.00  0.00    +0.000 A 
ATOM      4  N   UNL     1       2.277   3.773  17.375  0.00  0.00    +0.000 NA
ATOM      5  C   UNL     1       2.119   2.459  17.617  0.00  0.00    +0.000 A 
ATOM      6  N   UNL     1       2.037   1.847  18.804  0.00  0.00    +0.000 NA
ATOM      7  C   UNL     1       2.133   2.730  19.806  0.00  0.00    +0.000 A 
ATOM      8  N   UNL     1       2.025   2.395  21.127  0.00  0.00    +0.000 N 
ATOM      9  C   UNL     1       2.144   3.518  21.900  0.00  0.00    +0.000 A 
ATOM     10  C   UNL     1       2.337   4.589  21.052  0.00  0.00    +0.000 A 
ATOM     11  C   UNL     1       2.333   4.102  19.710  0.00  0.00    +0.000 A 
ATOM     12  H   UNL     1       1.853   1.454  21.452  0.00  0.00    +0.000 HD
ENDBRANCH   1   3
BRANCH   1  16
ATOM     13  N   UNL     1       5.803   4.898  17.090  0.00  0.00    +0.000 NA
ATOM     14  C   UNL     1       5.015   5.441  15.956  0.00  0.00    +0.000 C 
ATOM     15  C   UNL     1       4.419   6.732  16.470  0.00  0.00    +0.000 C 
ATOM     16  C   UNL     1       4.042   6.423  17.913  0.00  0.00    +0.000 C 
ATOM     17  C   UNL     1       5.106   5.381  18.348  0.00  0.00    +0.000 C 
BRANCH  13  18
ATOM     18  S   UNL     1       7.479   5.243  17.069  0.00  0.00    +0.000 S 
ATOM     19  O   UNL     1       7.797   5.714  15.737  0.00  0.00    +0.000 OA
ATOM     20  O   UNL     1       8.163   4.105  17.642  0.00  0.00    +0.000 OA
BRANCH  18  21
ATOM     21  C   UNL     1       7.606   6.631  18.202  0.00  0.00    +0.000 C 
BRANCH  21  23
ATOM     22  C   UNL     1       8.367   9.030  18.230  0.00  0.00    +0.000 C 
ATOM     23  C   UNL     1       7.622   7.959  17.448  0.00  0.00    +0.000 C 
ENDBRANCH  21  23
ENDBRANCH  18  21
ENDBRANCH  13  18
ENDBRANCH   1  16
TORSDOF 5
ENDMDL
MODEL 3
REMARK VINA RESULT:      -7.0      2.243      3.337
REMARK  Name = 
REMARK  7 active torsions:
REMARK  status: ('A' for Active; 'I' for Inactive)
REMARK    1  A    between atoms: C_1  and  C_2
REMARK    2  A    between atoms: C_2  and  C_3
REMARK    3  A    between atoms: C_3  and  S_4
REMARK    4  A    between atoms: S_4  and  N_7
REMARK    5  A    between atoms: C_10  and  N_11
REMARK    6  A    between atoms: N_11  and  C_12
REMARK    7  A    between atoms: N_11  and  C_13
REMARK                            x       y       z     vdW  Elec       q    Type
REMARK                         _______ _______ _______ _____ _____    ______ ____
ROOT
ATOM      1  N   UNL     1       3.354   6.173  17.819  0.00  0.00    +0.000 N 
ATOM      2  C   UNL     1       3.282   7.626  17.748  0.00  0.00    +0.000 C 
ENDROOT
BRANCH   1   3
ATOM      3  C   UNL     1       2.554   5.592  18.820  0.00  0.00    +0.000 A 
ATOM      4  N   UNL     1       2.284   6.303  19.951  0.00  0.00    +0.000 NA
ATOM      5  C   UNL     1       1.491   5.785  20.907  0.00  0.00    +0.000 A 
ATOM      6  N   UNL     1       0.927   4.571  20.937  0.00  0.00    +0.000 NA
ATOM      7  C   UNL     1       1.250   3.867  19.844  0.00  0.00    +0.000 A 
ATOM      8  N   UNL     1       0.860   2.573  19.633  0.00  0.00    +0.000 N 
ATOM      9  C   UNL     1       1.366   2.128  18.442  0.00  0.00    +0.000 A 
ATOM     10  C   UNL     1       2.086   3.162  17.882  0.00  0.00    +0.000 A 
ATOM     11  C   UNL     1       2.021   4.281  18.766  0.00  0.00    +0.000 A 
ATOM     12  H   UNL     1       0.308   2.042  20.291  0.00  0.00    +0.000 HD
ENDBRANCH   1   3
BRANCH   1  16
ATOM     13  N   UNL     1       5.924   5.872  15.437  0.00  0.00    +0.000 NA
ATOM     14  C   UNL     1       6.284   6.827  16.515  0.00  0.00    +0.000 C 
ATOM     15  C   UNL     1       5.893   6.136  17.802  0.00  0.00    +0.000 C 
ATOM     16  C   UNL     1       4.587   5.428  17.467  0.00  0.00    +0.000 C 
ATOM     17  C   UNL     1       4.742   5.079  15.963  0.00  0.00    +0.000 C 
BRANCH  13  18
ATOM     18  S   UNL     1       7.197   4.886  14.857  0.00  0.00    +0.000 S 
ATOM     19  O   UNL     1       7.885   4.359  16.016  0.00  0.00    +0.000 OA
ATOM     20  O   UNL     1       7.905   5.643  13.847  0.00  0.00    +0.000 OA
BRANCH  18  21
ATOM     21  C   UNL     1       6.316   3.538  14.063  0.00  0.00    +0.000 C 
BRANCH  21  23
ATOM     22  C   UNL     1       5.000   3.345  11.927  0.00  0.00    +0.000 C 
ATOM     23  C   UNL     1       6.351   3.674  12.543  0.00  0.00    +0.000 C 
ENDBRANCH  21  23
ENDBRANCH  18  21
ENDBRANCH  13  18
ENDBRANCH   1  16
TORSDOF 5
ENDMDL
MODEL 4
REMARK VINA RESULT:      -6.9      1.228      2.293
REMARK  Name = 
REMARK  7 active torsions:
REMARK  status: ('A' for Active; 'I' for Inactive)
REMARK    1  A    between atoms: C_1  and  C_2
REMARK    2  A    between atoms: C_2  and  C_3
REMARK    3  A    between atoms: C_3  and  S_4
REMARK    4  A    between atoms: S_4  and  N_7
REMARK    5  A    between atoms: C_10  and  N_11
REMARK    6  A    between atoms: N_11  and  C_12
REMARK    7  A    between atoms: N_11  and  C_13
REMARK                            x       y       z     vdW  Elec       q    Type
REMARK                         _______ _______ _______ _____ _____    ______ ____
ROOT
ATOM      1  N   UNL     1       2.469   5.596  17.999  0.00  0.00    +0.000 N 
ATOM      2  C   UNL     1       2.133   6.817  18.717  0.00  0.00    +0.000 C 
ENDROOT
BRANCH   1   3
ATOM      3  C   UNL     1       1.847   4.432  18.490  0.00  0.00    +0.000 A 
ATOM      4  N   UNL     1       1.084   3.681  17.647  0.00  0.00    +0.000 NA
ATOM      5  C   UNL     1       0.509   2.545  18.082  0.00  0.00    +0.000 A 
ATOM      6  N   UNL     1       0.539   2.030  19.317  0.00  0.00    +0.000 NA
ATOM      7  C   UNL     1       1.247   2.810  20.143  0.00  0.00    +0.000 A 
ATOM      8  N   UNL     1       1.399   2.560  21.479  0.00  0.00    +0.000 N 
ATOM      9  C   UNL     1       2.155   3.548  22.051  0.00  0.00    +0.000 A 
ATOM     10  C   UNL     1       2.495   4.441  21.056  0.00  0.00    +0.000 A 
ATOM     11  C   UNL     1       1.923   3.983  19.831  0.00  0.00    +0.000 A 
ATOM     12  H   UNL     1       0.979   1.771  21.951  0.00  0.00    +0.000 HD
ENDBRANCH   1   3
BRANCH   1  16
ATOM     13  N   UNL     1       5.942   5.668  18.554  0.00  0.00    +0.000 NA
ATOM     14  C   UNL     1       5.373   4.321  18.809  0.00  0.00    +0.000 C 
ATOM     15  C   UNL     1       4.453   4.051  17.639  0.00  0.00    +0.000 C 
ATOM     16  C   UNL     1       3.794   5.397  17.362  0.00  0.00    +0.000 C 
ATOM     17  C   UNL     1       4.885   6.423  17.770  0.00  0.00    +0.000 C 
BRANCH  13  18
ATOM     18  S   UNL     1       7.485   5.700  17.815  0.00  0.00    +0.000 S 
ATOM     19  O   UNL     1       7.275   5.977  16.409  0.00  0.00    +0.000 OA
ATOM     20  O   UNL     1       8.195   4.515  18.245  0.00  0.00    +0.000 OA
BRANCH  18  21
ATOM     21  C   UNL     1       8.248   7.142  18.565  0.00  0.00    +0.000 C 
BRANCH  21  23
ATOM     22  C   UNL     1       8.652   9.617  18.357  0.00  0.00    +0.000 C 
ATOM     23  C   UNL     1       8.001   8.395  17.728  0.00  0.00    +0.000 C 
ENDBRANCH  21  23
ENDBRANCH  18  21
ENDBRANCH  13  18
ENDBRANCH   1  16
TORSDOF 5
ENDMDL
MODEL 5
REMARK VINA RESULT:      -6.9      2.375      4.964
REMARK  Name = 
REMARK  7 active torsions:
REMARK  status: ('A' for Active; 'I' for Inactive)
REMARK    1  A    between atoms: C_1  and  C_2
REMARK    2  A    between atoms: C_2  and  C_3
REMARK    3  A    between atoms: C_3  and  S_4
REMARK    4  A    between atoms: S_4  and  N_7
REMARK    5  A    between atoms: C_10  and  N_11
REMARK    6  A    between atoms: N_11  and  C_12
REMARK    7  A    between atoms: N_11  and  C_13
REMARK                            x       y       z     vdW  Elec       q    Type
REMARK                         _______ _______ _______ _____ _____    ______ ____
ROOT
ATOM      1  N   UNL     1       2.920   6.492  19.034  0.00  0.00    +0.000 N 
ATOM      2  C   UNL     1       2.260   5.422  19.768  0.00  0.00    +0.000 C 
ENDROOT
BRANCH   1   3
ATOM      3  C   UNL     1       2.206   7.704  18.989  0.00  0.00    +0.000 A 
ATOM      4  N   UNL     1       2.114   8.379  17.809  0.00  0.00    +0.000 NA
ATOM      5  C   UNL     1       1.406   9.520  17.731  0.00  0.00    +0.000 A 
ATOM      6  N   UNL     1       0.772  10.162  18.720  0.00  0.00    +0.000 NA
ATOM      7  C   UNL     1       0.920   9.514  19.883  0.00  0.00    +0.000 A 
ATOM      8  N   UNL     1       0.427   9.970  21.074  0.00  0.00    +0.000 N 
ATOM      9  C   UNL     1       0.762   9.100  22.076  0.00  0.00    +0.000 A 
ATOM     10  C   UNL     1       1.477   8.066  21.508  0.00  0.00    +0.000 A 
ATOM     11  C   UNL     1       1.587   8.316  20.107  0.00  0.00    +0.000 A 
ATOM     12  H   UNL     1      -0.079  10.839  21.173  0.00  0.00    +0.000 HD
ENDBRANCH   1   3
BRANCH   1  16
ATOM     13  N   UNL     1       5.942   4.998  18.030  0.00  0.00    +0.000 NA
ATOM     14  C   UNL     1       4.804   4.048  17.946  0.00  0.00    +0.000 C 
ATOM     15  C   UNL     1       3.689   4.823  17.281  0.00  0.00    +0.000 C 
ATOM     16  C   UNL     1       3.801   6.223  17.871  0.00  0.00    +0.000 C 
ATOM     17  C   UNL     1       5.321   6.378  18.143  0.00  0.00    +0.000 C 
BRANCH  13  18
ATOM     18  S   UNL     1       7.107   4.881  16.782  0.00  0.00    +0.000 S 
ATOM     19  O   UNL     1       8.217   4.115  17.311  0.00  0.00    +0.000 OA
ATOM     20  O   UNL     1       7.304   6.210  16.247  0.00  0.00    +0.000 OA
BRANCH  18  21
ATOM     21  C   UNL     1       6.266   3.876  15.554  0.00  0.00    +0.000 C 
BRANCH  21  23
ATOM     22  C   UNL     1       5.651   3.691  13.121  0.00  0.00    +0.000 C 
ATOM     23  C   UNL     1       6.533   4.392  14.142  0.00  0.00    +0.000 C 
ENDBRANCH  21  23
ENDBRANCH  18  21
ENDBRANCH  13  18
ENDBRANCH   1  16
TORSDOF 5
ENDMDL
MODEL 6
REMARK VINA RESULT:      -6.9      1.451      2.247
REMARK  Name = 
REMARK  7 active torsions:
REMARK  status: ('A' for Active; 'I' for Inactive)
REMARK    1  A    between atoms: C_1  and  C_2
REMARK    2  A    between atoms: C_2  and  C_3
REMARK    3  A    between atoms: C_3  and  S_4
REMARK    4  A    between atoms: S_4  and  N_7
REMARK    5  A    between atoms: C_10  and  N_11
REMARK    6  A    between atoms: N_11  and  C_12
REMARK    7  A    between atoms: N_11  and  C_13
REMARK                            x       y       z     vdW  Elec       q    Type
REMARK                         _______ _______ _______ _____ _____    ______ ____
ROOT
ATOM      1  N   UNL     1       2.766   6.180  19.476  0.00  0.00    +0.000 N 
ATOM      2  C   UNL     1       1.946   7.245  20.038  0.00  0.00    +0.000 C 
ENDROOT
BRANCH   1   3
ATOM      3  C   UNL     1       2.471   4.892  19.960  0.00  0.00    +0.000 A 
ATOM      4  N   UNL     1       2.436   4.679  21.306  0.00  0.00    +0.000 NA
ATOM      5  C   UNL     1       2.120   3.466  21.794  0.00  0.00    +0.000 A 
ATOM      6  N   UNL     1       1.863   2.346  21.108  0.00  0.00    +0.000 NA
ATOM      7  C   UNL     1       1.958   2.561  19.790  0.00  0.00    +0.000 A 
ATOM      8  N   UNL     1       1.802   1.581  18.848  0.00  0.00    +0.000 N 
ATOM      9  C   UNL     1       1.979   2.110  17.598  0.00  0.00    +0.000 A 
ATOM     10  C   UNL     1       2.247   3.455  17.749  0.00  0.00    +0.000 A 
ATOM     11  C   UNL     1       2.236   3.759  19.144  0.00  0.00    +0.000 A 
ATOM     12  H   UNL     1       1.614   0.615  19.074  0.00  0.00    +0.000 HD
ENDBRANCH   1   3
BRANCH   1  16
ATOM     13  N   UNL     1       5.327   5.052  17.346  0.00  0.00    +0.000 NA
ATOM     14  C   UNL     1       4.508   6.112  16.706  0.00  0.00    +0.000 C 
ATOM     15  C   UNL     1       4.350   7.182  17.763  0.00  0.00    +0.000 C 
ATOM     16  C   UNL     1       4.171   6.405  19.061  0.00  0.00    +0.000 C 
ATOM     17  C   UNL     1       5.007   5.118  18.828  0.00  0.00    +0.000 C 
BRANCH  13  18
ATOM     18  S   UNL     1       7.005   5.102  17.014  0.00  0.00    +0.000 S 
ATOM     19  O   UNL     1       7.673   4.426  18.107  0.00  0.00    +0.000 OA
ATOM     20  O   UNL     1       7.337   6.466  16.664  0.00  0.00    +0.000 OA
BRANCH  18  21
ATOM     21  C   UNL     1       7.144   4.074  15.548  0.00  0.00    +0.000 C 
BRANCH  21  23
ATOM     22  C   UNL     1       6.321   3.788  13.187  0.00  0.00    +0.000 C 
ATOM     23  C   UNL     1       6.543   4.769  14.328  0.00  0.00    +0.000 C 
ENDBRANCH  21  23
ENDBRANCH  18  21
ENDBRANCH  13  18
ENDBRANCH   1  16
TORSDOF 5
ENDMDL
MODEL 7
REMARK VINA RESULT:      -6.9      2.297      3.705
REMARK  Name = 
REMARK  7 active torsions:
REMARK  status: ('A' for Active; 'I' for Inactive)
REMARK    1  A    between atoms: C_1  and  C_2
REMARK    2  A    between atoms: C_2  and  C_3
REMARK    3  A    between atoms: C_3  and  S_4
REMARK    4  A    between atoms: S_4  and  N_7
REMARK    5  A    between atoms: C_10  and  N_11
REMARK    6  A    between atoms: N_11  and  C_12
REMARK    7  A    between atoms: N_11  and  C_13
REMARK                            x       y       z     vdW  Elec       q    Type
REMARK                         _______ _______ _______ _____ _____    ______ ____
ROOT
ATOM      1  N   UNL     1       2.969   5.598  18.059  0.00  0.00    +0.000 N 
ATOM      2  C   UNL     1       2.640   6.892  18.640  0.00  0.00    +0.000 C 
ENDROOT
BRANCH   1   3
ATOM      3  C   UNL     1       2.145   4.537  18.480  0.00  0.00    +0.000 A 
ATOM      4  N   UNL     1       1.284   3.970  17.587  0.00  0.00    +0.000 NA
ATOM      5  C   UNL     1       0.513   2.930  17.954  0.00  0.00    +0.000 A 
ATOM      6  N   UNL     1       0.424   2.359  19.161  0.00  0.00    +0.000 NA
ATOM      7  C   UNL     1       1.234   2.965  20.038  0.00  0.00    +0.000 A 
ATOM      8  N   UNL     1       1.308   2.629  21.361  0.00  0.00    +0.000 N 
ATOM      9  C   UNL     1       2.207   3.443  21.995  0.00  0.00    +0.000 A 
ATOM     10  C   UNL     1       2.720   4.311  21.053  0.00  0.00    +0.000 A 
ATOM     11  C   UNL     1       2.108   4.018  19.797  0.00  0.00    +0.000 A 
ATOM     12  H   UNL     1       0.748   1.903  21.785  0.00  0.00    +0.000 HD
ENDBRANCH   1   3
BRANCH   1  16
ATOM     13  N   UNL     1       5.265   5.389  15.404  0.00  0.00    +0.000 NA
ATOM     14  C   UNL     1       5.328   6.709  16.082  0.00  0.00    +0.000 C 
ATOM     15  C   UNL     1       5.328   6.394  17.561  0.00  0.00    +0.000 C 
ATOM     16  C   UNL     1       4.358   5.227  17.697  0.00  0.00    +0.000 C 
ATOM     17  C   UNL     1       4.511   4.473  16.349  0.00  0.00    +0.000 C 
BRANCH  13  18
ATOM     18  S   UNL     1       6.763   4.744  14.886  0.00  0.00    +0.000 S 
ATOM     19  O   UNL     1       7.466   4.302  16.072  0.00  0.00    +0.000 OA
ATOM     20  O   UNL     1       7.357   5.701  13.979  0.00  0.00    +0.000 OA
BRANCH  18  21
ATOM     21  C   UNL     1       6.262   3.292  13.955  0.00  0.00    +0.000 C 
BRANCH  21  23
ATOM     22  C   UNL     1       4.878   3.337  11.853  0.00  0.00    +0.000 C 
ATOM     23  C   UNL     1       6.255   3.574  12.454  0.00  0.00    +0.000 C 
ENDBRANCH  21  23
ENDBRANCH  18  21
ENDBRANCH  13  18
ENDBRANCH   1  16
TORSDOF 5
ENDMDL
MODEL 8
REMARK VINA RESULT:      -6.8      1.776      3.163
REMARK  Name = 
REMARK  7 active torsions:
REMARK  status: ('A' for Active; 'I' for Inactive)
REMARK    1  A    between atoms: C_1  and  C_2
REMARK    2  A    between atoms: C_2  and  C_3
REMARK    3  A    between atoms: C_3  and  S_4
REMARK    4  A    between atoms: S_4  and  N_7
REMARK    5  A    between atoms: C_10  and  N_11
REMARK    6  A    between atoms: N_11  and  C_12
REMARK    7  A    between atoms: N_11  and  C_13
REMARK                            x       y       z     vdW  Elec       q    Type
REMARK                         _______ _______ _______ _____ _____    ______ ____
ROOT
ATOM      1  N   UNL     1       2.898   6.165  18.693  0.00  0.00    +0.000 N 
ATOM      2  C   UNL     1       2.185   7.126  19.523  0.00  0.00    +0.000 C 
ENDROOT
BRANCH   1   3
ATOM      3  C   UNL     1       2.404   4.849  18.760  0.00  0.00    +0.000 A 
ATOM      4  N   UNL     1       1.997   4.233  17.614  0.00  0.00    +0.000 NA
ATOM      5  C   UNL     1       1.556   2.962  17.645  0.00  0.00    +0.000 A 
ATOM      6  N   UNL     1       1.404   2.172  18.714  0.00  0.00    +0.000 NA
ATOM      7  C   UNL     1       1.756   2.812  19.836  0.00  0.00    +0.000 A 
ATOM      8  N   UNL     1       1.649   2.268  21.086  0.00  0.00    +0.000 N 
ATOM      9  C   UNL     1       2.066   3.175  22.022  0.00  0.00    +0.000 A 
ATOM     10  C   UNL     1       2.451   4.318  21.352  0.00  0.00    +0.000 A 
ATOM     11  C   UNL     1       2.259   4.102  19.954  0.00  0.00    +0.000 A 
ATOM     12  H   UNL     1       1.285   1.342  21.263  0.00  0.00    +0.000 HD
ENDBRANCH   1   3
BRANCH   1  16
ATOM     13  N   UNL     1       5.430   5.384  16.381  0.00  0.00    +0.000 NA
ATOM     14  C   UNL     1       4.809   6.701  16.091  0.00  0.00    +0.000 C 
ATOM     15  C   UNL     1       4.721   7.400  17.428  0.00  0.00    +0.000 C 
ATOM     16  C   UNL     1       4.347   6.294  18.407  0.00  0.00    +0.000 C 
ATOM     17  C   UNL     1       5.016   5.034  17.797  0.00  0.00    +0.000 C 
BRANCH  13  18
ATOM     18  S   UNL     1       7.119   5.283  16.124  0.00  0.00    +0.000 S 
ATOM     19  O   UNL     1       7.607   4.196  16.947  0.00  0.00    +0.000 OA
ATOM     20  O   UNL     1       7.658   6.618  16.253  0.00  0.00    +0.000 OA
BRANCH  18  21
ATOM     21  C   UNL     1       7.223   4.776  14.404  0.00  0.00    +0.000 C 
BRANCH  21  23
ATOM     22  C   UNL     1       6.128   3.440  12.574  0.00  0.00    +0.000 C 
ATOM     23  C   UNL     1       5.980   3.996  13.982  0.00  0.00    +0.000 C 
ENDBRANCH  21  23
ENDBRANCH  18  21
ENDBRANCH  13  18
ENDBRANCH   1  16
TORSDOF 5
ENDMDL
MODEL 9
REMARK VINA RESULT:      -6.7      3.210      5.876
REMARK  Name = 
REMARK  7 active torsions:
REMARK  status: ('A' for Active; 'I' for Inactive)
REMARK    1  A    between atoms: C_1  and  C_2
REMARK    2  A    between atoms: C_2  and  C_3
REMARK    3  A    between atoms: C_3  and  S_4
REMARK    4  A    between atoms: S_4  and  N_7
REMARK    5  A    between atoms: C_10  and  N_11
REMARK    6  A    between atoms: N_11  and  C_12
REMARK    7  A    between atoms: N_11  and  C_13
REMARK                            x       y       z     vdW  Elec       q    Type
REMARK                         _______ _______ _______ _____ _____    ______ ____
ROOT
ATOM      1  N   UNL     1       3.914   6.759  17.961  0.00  0.00    +0.000 N 
ATOM      2  C   UNL     1       3.154   7.916  17.509  0.00  0.00    +0.000 C 
ENDROOT
BRANCH   1   3
ATOM      3  C   UNL     1       5.215   6.666  17.431  0.00  0.00    +0.000 A 
ATOM      4  N   UNL     1       6.133   7.620  17.752  0.00  0.00    +0.000 NA
ATOM      5  C   UNL     1       7.394   7.534  17.289  0.00  0.00    +0.000 A 
ATOM      6  N   UNL     1       7.904   6.611  16.465  0.00  0.00    +0.000 NA
ATOM      7  C   UNL     1       6.973   5.714  16.116  0.00  0.00    +0.000 A 
ATOM      8  N   UNL     1       7.197   4.690  15.237  0.00  0.00    +0.000 N 
ATOM      9  C   UNL     1       6.048   3.964  15.072  0.00  0.00    +0.000 A 
ATOM     10  C   UNL     1       5.076   4.535  15.866  0.00  0.00    +0.000 A 
ATOM     11  C   UNL     1       5.651   5.655  16.540  0.00  0.00    +0.000 A 
ATOM     12  H   UNL     1       8.080   4.536  14.773  0.00  0.00    +0.000 HD
ENDBRANCH   1   3
BRANCH   1  16
ATOM     13  N   UNL     1       2.581   4.832  20.584  0.00  0.00    +0.000 NA
ATOM     14  C   UNL     1       1.548   5.694  19.955  0.00  0.00    +0.000 C 
ATOM     15  C   UNL     1       1.750   5.531  18.466  0.00  0.00    +0.000 C 
ATOM     16  C   UNL     1       3.262   5.470  18.295  0.00  0.00    +0.000 C 
ATOM     17  C   UNL     1       3.746   4.806  19.612  0.00  0.00    +0.000 C 
BRANCH  13  18
ATOM     18  S   UNL     1       2.063   3.273  21.062  0.00  0.00    +0.000 S 
ATOM     19  O   UNL     1       0.649   3.187  20.764  0.00  0.00    +0.000 OA
ATOM     20  O   UNL     1       2.560   3.043  22.401  0.00  0.00    +0.000 OA
BRANCH  18  21
ATOM     21  C   UNL     1       2.945   2.201  19.922  0.00  0.00    +0.000 C 
BRANCH  21  23
ATOM     22  C   UNL     1       2.728   2.059  17.418  0.00  0.00    +0.000 C 
ATOM     23  C   UNL     1       2.053   1.786  18.754  0.00  0.00    +0.000 C 
ENDBRANCH  21  23
ENDBRANCH  18  21
ENDBRANCH  13  18
ENDBRANCH   1  16
TORSDOF 5
ENDMDL
