MODEL 1
REMARK VINA RESULT:      -6.6      0.000      0.000
REMARK  Name = 
REMARK  6 active torsions:
REMARK  status: ('A' for Active; 'I' for Inactive)
REMARK    1  A    between atoms: C_1  and  C_2
REMARK    2  A    between atoms: C_2  and  C_4
REMARK    3  A    between atoms: C_7  and  S_8
REMARK    4  A    between atoms: S_8  and  N_11
REMARK    5  A    between atoms: N_14  and  C_15
REMARK    6  A    between atoms: C_15  and  C_16
REMARK                            x       y       z     vdW  Elec       q    Type
REMARK                         _______ _______ _______ _____ _____    ______ ____
ROOT
ATOM      1  S   UNL     1       2.600   4.062  18.370  0.00  0.00    +0.000 S 
ATOM      2  O   UNL     1       2.425   3.125  19.463  0.00  0.00    +0.000 OA
ATOM      3  O   UNL     1       1.753   3.999  17.204  0.00  0.00    +0.000 OA
ENDROOT
BRANCH   1   7
ATOM      4  C   UNL     1       1.576   8.206  20.138  0.00  0.00    +0.000 A 
ATOM      5  C   UNL     1       2.037   8.112  18.822  0.00  0.00    +0.000 A 
ATOM      6  C   UNL     1       2.385   6.860  18.281  0.00  0.00    +0.000 A 
ATOM      7  C   UNL     1       2.366   5.704  19.071  0.00  0.00    +0.000 A 
ATOM      8  C   UNL     1       1.939   5.806  20.399  0.00  0.00    +0.000 A 
ATOM      9  C   UNL     1       1.535   7.042  20.920  0.00  0.00    +0.000 A 
BRANCH   4  11
ATOM     10  C   UNL     1       0.271  10.438  19.889  0.00  0.00    +0.000 C 
ATOM     11  C   UNL     1       1.062   9.477  20.740  0.00  0.00    +0.000 C 
ATOM     12  O   UNL     1       1.282   9.722  21.925  0.00  0.00    +0.000 OA
ENDBRANCH   4  11
ENDBRANCH   1   7
BRANCH   1  13
ATOM     13  N   UNL     1       4.192   3.857  17.851  0.00  0.00    +0.000 NA
ATOM     14  C   UNL     1       4.599   4.306  16.513  0.00  0.00    +0.000 C 
ATOM     15  C   UNL     1       5.114   5.746  16.534  0.00  0.00    +0.000 C 
ATOM     16  N   UNL     1       5.793   6.253  17.751  0.00  0.00    +0.000 NA
ATOM     17  C   UNL     1       5.617   5.470  18.997  0.00  0.00    +0.000 C 
ATOM     18  C   UNL     1       5.304   3.988  18.809  0.00  0.00    +0.000 C 
BRANCH  16  19
ATOM     19  C   UNL     1       7.214   6.393  17.502  0.00  0.00    +0.000 C 
BRANCH  19  20
ATOM     20  C   UNL     1       7.769   7.792  17.717  0.00  0.00    +0.000 C 
ATOM     21  N   UNL     1       8.229   8.953  17.895  0.00  0.00    +0.000 NA
ENDBRANCH  19  20
ENDBRANCH  16  19
ENDBRANCH   1  13
TORSDOF 5
ENDMDL
MODEL 2
REMARK VINA RESULT:      -6.5      1.647      1.735
REMARK  Name = 
REMARK  6 active torsions:
REMARK  status: ('A' for Active; 'I' for Inactive)
REMARK    1  A    between atoms: C_1  and  C_2
REMARK    2  A    between atoms: C_2  and  C_4
REMARK    3  A    between atoms: C_7  and  S_8
REMARK    4  A    between atoms: S_8  and  N_11
REMARK    5  A    between atoms: N_14  and  C_15
REMARK    6  A    between atoms: C_15  and  C_16
REMARK                            x       y       z     vdW  Elec       q    Type
REMARK                         _______ _______ _______ _____ _____    ______ ____
ROOT
ATOM      1  S   UNL     1       2.054   3.530  19.128  0.00  0.00    +0.000 S 
ATOM      2  O   UNL     1       1.796   3.025  20.463  0.00  0.00    +0.000 OA
ATOM      3  O   UNL     1       1.156   3.229  18.040  0.00  0.00    +0.000 OA
ENDROOT
BRANCH   1   7
ATOM      4  C   UNL     1       1.714   8.123  19.490  0.00  0.00    +0.000 A 
ATOM      5  C   UNL     1       2.061   7.552  18.262  0.00  0.00    +0.000 A 
ATOM      6  C   UNL     1       2.201   6.155  18.145  0.00  0.00    +0.000 A 
ATOM      7  C   UNL     1       2.090   5.325  19.267  0.00  0.00    +0.000 A 
ATOM      8  C   UNL     1       1.780   5.903  20.502  0.00  0.00    +0.000 A 
ATOM      9  C   UNL     1       1.580   7.286  20.607  0.00  0.00    +0.000 A 
BRANCH   4  11
ATOM     10  C   UNL     1       1.485  10.502  18.470  0.00  0.00    +0.000 C 
ATOM     11  C   UNL     1       1.418   9.581  19.662  0.00  0.00    +0.000 C 
ATOM     12  O   UNL     1       1.112  10.013  20.772  0.00  0.00    +0.000 OA
ENDBRANCH   4  11
ENDBRANCH   1   7
BRANCH   1  13
ATOM     13  N   UNL     1       3.576   2.934  18.707  0.00  0.00    +0.000 NA
ATOM     14  C   UNL     1       3.950   2.788  17.295  0.00  0.00    +0.000 C 
ATOM     15  C   UNL     1       4.632   4.049  16.760  0.00  0.00    +0.000 C 
ATOM     16  N   UNL     1       5.440   4.881  17.684  0.00  0.00    +0.000 NA
ATOM     17  C   UNL     1       5.250   4.656  19.136  0.00  0.00    +0.000 C 
ATOM     18  C   UNL     1       4.752   3.266  19.530  0.00  0.00    +0.000 C 
BRANCH  16  19
ATOM     19  C   UNL     1       6.850   4.726  17.383  0.00  0.00    +0.000 C 
BRANCH  19  20
ATOM     20  C   UNL     1       7.235   5.019  15.942  0.00  0.00    +0.000 C 
ATOM     21  N   UNL     1       7.555   5.262  14.747  0.00  0.00    +0.000 NA
ENDBRANCH  19  20
ENDBRANCH  16  19
ENDBRANCH   1  13
TORSDOF 5
ENDMDL
MODEL 3
REMARK VINA RESULT:      -6.4      1.214      1.443
REMARK  Name = 
REMARK  6 active torsions:
REMARK  status: ('A' for Active; 'I' for Inactive)
REMARK    1  A    between atoms: C_1  and  C_2
REMARK    2  A    between atoms: C_2  and  C_4
REMARK    3  A    between atoms: C_7  and  S_8
REMARK    4  A    between atoms: S_8  and  N_11
REMARK    5  A    between atoms: N_14  and  C_15
REMARK    6  A    between atoms: C_15  and  C_16
REMARK                            x       y       z     vdW  Elec       q    Type
REMARK                         _______ _______ _______ _____ _____    ______ ____
ROOT
ATOM      1  S   UNL     1       2.294   3.918  18.342  0.00  0.00    +0.000 S 
ATOM      2  O   UNL     1       1.864   2.942  19.324  0.00  0.00    +0.000 OA
ATOM      3  O   UNL     1       1.616   4.034  17.073  0.00  0.00    +0.000 OA
ENDROOT
BRANCH   1   7
ATOM      4  C   UNL     1       1.502   8.013  20.328  0.00  0.00    +0.000 A 
ATOM      5  C   UNL     1       2.005   7.965  19.025  0.00  0.00    +0.000 A 
ATOM      6  C   UNL     1       2.283   6.724  18.419  0.00  0.00    +0.000 A 
ATOM      7  C   UNL     1       2.152   5.528  19.135  0.00  0.00    +0.000 A 
ATOM      8  C   UNL     1       1.684   5.582  20.452  0.00  0.00    +0.000 A 
ATOM      9  C   UNL     1       1.349   6.811  21.035  0.00  0.00    +0.000 A 
BRANCH   4  11
ATOM     10  C   UNL     1       0.847   9.308  22.483  0.00  0.00    +0.000 C 
ATOM     11  C   UNL     1       1.058   9.281  20.990  0.00  0.00    +0.000 C 
ATOM     12  O   UNL     1       0.881  10.292  20.313  0.00  0.00    +0.000 OA
ENDBRANCH   4  11
ENDBRANCH   1   7
BRANCH   1  13
ATOM     13  N   UNL     1       3.910   3.553  18.020  0.00  0.00    +0.000 NA
ATOM     14  C   UNL     1       4.523   3.961  16.750  0.00  0.00    +0.000 C 
ATOM     15  C   UNL     1       5.174   5.342  16.857  0.00  0.00    +0.000 C 
ATOM     16  N   UNL     1       5.744   5.773  18.156  0.00  0.00    +0.000 NA
ATOM     17  C   UNL     1       5.336   5.009  19.358  0.00  0.00    +0.000 C 
ATOM     18  C   UNL     1       4.901   3.567  19.110  0.00  0.00    +0.000 C 
BRANCH  16  19
ATOM     19  C   UNL     1       7.192   5.768  18.087  0.00  0.00    +0.000 C 
BRANCH  19  20
ATOM     20  C   UNL     1       7.896   5.495  19.406  0.00  0.00    +0.000 C 
ATOM     21  N   UNL     1       8.481   5.269  20.500  0.00  0.00    +0.000 NA
ENDBRANCH  19  20
ENDBRANCH  16  19
ENDBRANCH   1  13
TORSDOF 5
ENDMDL
MODEL 4
REMARK VINA RESULT:      -6.4      1.270      1.474
REMARK  Name = 
REMARK  6 active torsions:
REMARK  status: ('A' for Active; 'I' for Inactive)
REMARK    1  A    between atoms: C_1  and  C_2
REMARK    2  A    between atoms: C_2  and  C_4
REMARK    3  A    between atoms: C_7  and  S_8
REMARK    4  A    between atoms: S_8  and  N_11
REMARK    5  A    between atoms: N_14  and  C_15
REMARK    6  A    between atoms: C_15  and  C_16
REMARK                            x       y       z     vdW  Elec       q    Type
REMARK                         _______ _______ _______ _____ _____    ______ ____
ROOT
ATOM      1  S   UNL     1       2.212   3.827  18.684  0.00  0.00    +0.000 S 
ATOM      2  O   UNL     1       1.974   2.990  19.845  0.00  0.00    +0.000 OA
ATOM      3  O   UNL     1       1.355   3.742  17.527  0.00  0.00    +0.000 OA
ENDROOT
BRANCH   1   7
ATOM      4  C   UNL     1       1.516   8.155  20.143  0.00  0.00    +0.000 A 
ATOM      5  C   UNL     1       1.946   7.930  18.832  0.00  0.00    +0.000 A 
ATOM      6  C   UNL     1       2.195   6.618  18.384  0.00  0.00    +0.000 A 
ATOM      7  C   UNL     1       2.108   5.529  19.261  0.00  0.00    +0.000 A 
ATOM      8  C   UNL     1       1.713   5.762  20.582  0.00  0.00    +0.000 A 
ATOM      9  C   UNL     1       1.407   7.059  21.012  0.00  0.00    +0.000 A 
BRANCH   4  11
ATOM     10  C   UNL     1       0.725   9.667  22.102  0.00  0.00    +0.000 C 
ATOM     11  C   UNL     1       1.105   9.502  20.653  0.00  0.00    +0.000 C 
ATOM     12  O   UNL     1       1.091  10.464  19.886  0.00  0.00    +0.000 OA
ENDBRANCH   4  11
ENDBRANCH   1   7
BRANCH   1  13
ATOM     13  N   UNL     1       3.781   3.463  18.180  0.00  0.00    +0.000 NA
ATOM     14  C   UNL     1       4.199   3.743  16.801  0.00  0.00    +0.000 C 
ATOM     15  C   UNL     1       4.808   5.140  16.669  0.00  0.00    +0.000 C 
ATOM     16  N   UNL     1       5.534   5.723  17.823  0.00  0.00    +0.000 NA
ATOM     17  C   UNL     1       5.323   5.088  19.145  0.00  0.00    +0.000 C 
ATOM     18  C   UNL     1       4.910   3.617  19.113  0.00  0.00    +0.000 C 
BRANCH  16  19
ATOM     19  C   UNL     1       6.958   5.742  17.552  0.00  0.00    +0.000 C 
BRANCH  19  20
ATOM     20  C   UNL     1       7.340   5.493  16.102  0.00  0.00    +0.000 C 
ATOM     21  N   UNL     1       7.656   5.286  14.899  0.00  0.00    +0.000 NA
ENDBRANCH  19  20
ENDBRANCH  16  19
ENDBRANCH   1  13
TORSDOF 5
ENDMDL
MODEL 5
REMARK VINA RESULT:      -6.3      2.018      2.905
REMARK  Name = 
REMARK  6 active torsions:
REMARK  status: ('A' for Active; 'I' for Inactive)
REMARK    1  A    between atoms: C_1  and  C_2
REMARK    2  A    between atoms: C_2  and  C_4
REMARK    3  A    between atoms: C_7  and  S_8
REMARK    4  A    between atoms: S_8  and  N_11
REMARK    5  A    between atoms: N_14  and  C_15
REMARK    6  A    between atoms: C_15  and  C_16
REMARK                            x       y       z     vdW  Elec       q    Type
REMARK                         _______ _______ _______ _____ _____    ______ ____
ROOT
ATOM      1  S   UNL     1       2.910   5.581  19.036  0.00  0.00    +0.000 S 
ATOM      2  O   UNL     1       2.826   5.051  20.383  0.00  0.00    +0.000 OA
ATOM      3  O   UNL     1       2.188   4.959  17.953  0.00  0.00    +0.000 OA
ENDROOT
BRANCH   1   7
ATOM      4  C   UNL     1       0.984   9.774  19.268  0.00  0.00    +0.000 A 
ATOM      5  C   UNL     1       1.523   9.328  18.058  0.00  0.00    +0.000 A 
ATOM      6  C   UNL     1       2.143   8.067  17.980  0.00  0.00    +0.000 A 
ATOM      7  C   UNL     1       2.315   7.278  19.124  0.00  0.00    +0.000 A 
ATOM      8  C   UNL     1       1.807   7.743  20.342  0.00  0.00    +0.000 A 
ATOM      9  C   UNL     1       1.137   8.971  20.408  0.00  0.00    +0.000 A 
BRANCH   4  11
ATOM     10  C   UNL     1      -0.918  11.330  18.423  0.00  0.00    +0.000 C 
ATOM     11  C   UNL     1       0.195  11.040  19.399  0.00  0.00    +0.000 C 
ATOM     12  O   UNL     1       0.454  11.828  20.307  0.00  0.00    +0.000 OA
ENDBRANCH   4  11
ENDBRANCH   1   7
BRANCH   1  13
ATOM     13  N   UNL     1       4.550   5.545  18.639  0.00  0.00    +0.000 NA
ATOM     14  C   UNL     1       5.261   4.263  18.546  0.00  0.00    +0.000 C 
ATOM     15  C   UNL     1       5.217   3.696  17.125  0.00  0.00    +0.000 C 
ATOM     16  N   UNL     1       5.170   4.631  15.976  0.00  0.00    +0.000 NA
ATOM     17  C   UNL     1       4.803   6.038  16.264  0.00  0.00    +0.000 C 
ATOM     18  C   UNL     1       5.099   6.521  17.682  0.00  0.00    +0.000 C 
BRANCH  16  19
ATOM     19  C   UNL     1       6.444   4.628  15.284  0.00  0.00    +0.000 C 
BRANCH  19  20
ATOM     20  C   UNL     1       6.402   4.084  13.865  0.00  0.00    +0.000 C 
ATOM     21  N   UNL     1       6.368   3.633  12.688  0.00  0.00    +0.000 NA
ENDBRANCH  19  20
ENDBRANCH  16  19
ENDBRANCH   1  13
TORSDOF 5
ENDMDL
MODEL 6
REMARK VINA RESULT:      -6.3      2.711      5.422
REMARK  Name = 
REMARK  6 active torsions:
REMARK  status: ('A' for Active; 'I' for Inactive)
REMARK    1  A    between atoms: C_1  and  C_2
REMARK    2  A    between atoms: C_2  and  C_4
REMARK    3  A    between atoms: C_7  and  S_8
REMARK    4  A    between atoms: S_8  and  N_11
REMARK    5  A    between atoms: N_14  and  C_15
REMARK    6  A    between atoms: C_15  and  C_16
REMARK                            x       y       z     vdW  Elec       q    Type
REMARK                         _______ _______ _______ _____ _____    ______ ____
ROOT
ATOM      1  S   UNL     1       2.916   2.788  19.106  0.00  0.00    +0.000 S 
ATOM      2  O   UNL     1       2.502   1.815  18.113  0.00  0.00    +0.000 OA
ATOM      3  O   UNL     1       3.290   2.370  20.436  0.00  0.00    +0.000 OA
ENDROOT
BRANCH   1   7
ATOM      4  C   UNL     1       6.377   5.307  17.369  0.00  0.00    +0.000 A 
ATOM      5  C   UNL     1       5.633   4.480  16.522  0.00  0.00    +0.000 A 
ATOM      6  C   UNL     1       4.597   3.681  17.043  0.00  0.00    +0.000 A 
ATOM      7  C   UNL     1       4.354   3.627  18.421  0.00  0.00    +0.000 A 
ATOM      8  C   UNL     1       5.124   4.428  19.271  0.00  0.00    +0.000 A 
ATOM      9  C   UNL     1       6.114   5.268  18.746  0.00  0.00    +0.000 A 
BRANCH   4  11
ATOM     10  C   UNL     1       7.894   7.374  17.788  0.00  0.00    +0.000 C 
ATOM     11  C   UNL     1       7.401   6.281  16.874  0.00  0.00    +0.000 C 
ATOM     12  O   UNL     1       7.838   6.175  15.729  0.00  0.00    +0.000 OA
ENDBRANCH   4  11
ENDBRANCH   1   7
BRANCH   1  13
ATOM     13  N   UNL     1       1.618   3.857  19.259  0.00  0.00    +0.000 NA
ATOM     14  C   UNL     1       1.273   4.420  20.570  0.00  0.00    +0.000 C 
ATOM     15  C   UNL     1       1.997   5.744  20.822  0.00  0.00    +0.000 C 
ATOM     16  N   UNL     1       2.319   6.622  19.672  0.00  0.00    +0.000 NA
ATOM     17  C   UNL     1       2.253   6.016  18.321  0.00  0.00    +0.000 C 
ATOM     18  C   UNL     1       1.321   4.815  18.180  0.00  0.00    +0.000 C 
BRANCH  16  19
ATOM     19  C   UNL     1       1.461   7.790  19.686  0.00  0.00    +0.000 C 
BRANCH  19  20
ATOM     20  C   UNL     1       1.736   8.803  18.586  0.00  0.00    +0.000 C 
ATOM     21  N   UNL     1       1.965   9.642  17.673  0.00  0.00    +0.000 NA
ENDBRANCH  19  20
ENDBRANCH  16  19
ENDBRANCH   1  13
TORSDOF 5
ENDMDL
MODEL 7
REMARK VINA RESULT:      -6.3      2.761      5.535
REMARK  Name = 
REMARK  6 active torsions:
REMARK  status: ('A' for Active; 'I' for Inactive)
REMARK    1  A    between atoms: C_1  and  C_2
REMARK    2  A    between atoms: C_2  and  C_4
REMARK    3  A    between atoms: C_7  and  S_8
REMARK    4  A    between atoms: S_8  and  N_11
REMARK    5  A    between atoms: N_14  and  C_15
REMARK    6  A    between atoms: C_15  and  C_16
REMARK                            x       y       z     vdW  Elec       q    Type
REMARK                         _______ _______ _______ _____ _____    ______ ____
ROOT
ATOM      1  S   UNL     1       2.993   2.791  18.835  0.00  0.00    +0.000 S 
ATOM      2  O   UNL     1       2.684   1.926  17.713  0.00  0.00    +0.000 OA
ATOM      3  O   UNL     1       3.271   2.237  20.139  0.00  0.00    +0.000 OA
ENDROOT
BRANCH   1   7
ATOM      4  C   UNL     1       6.516   5.541  17.665  0.00  0.00    +0.000 A 
ATOM      5  C   UNL     1       5.866   4.795  16.678  0.00  0.00    +0.000 A 
ATOM      6  C   UNL     1       4.812   3.927  17.025  0.00  0.00    +0.000 A 
ATOM      7  C   UNL     1       4.459   3.724  18.364  0.00  0.00    +0.000 A 
ATOM      8  C   UNL     1       5.136   4.444  19.354  0.00  0.00    +0.000 A 
ATOM      9  C   UNL     1       6.143   5.353  19.004  0.00  0.00    +0.000 A 
BRANCH   4  11
ATOM     10  C   UNL     1       8.153   7.384  18.486  0.00  0.00    +0.000 C 
ATOM     11  C   UNL     1       7.551   6.580  17.361  0.00  0.00    +0.000 C 
ATOM     12  O   UNL     1       7.907   6.762  16.198  0.00  0.00    +0.000 OA
ENDBRANCH   4  11
ENDBRANCH   1   7
BRANCH   1  13
ATOM     13  N   UNL     1       1.661   3.815  18.995  0.00  0.00    +0.000 NA
ATOM     14  C   UNL     1       1.181   4.205  20.327  0.00  0.00    +0.000 C 
ATOM     15  C   UNL     1       1.846   5.496  20.809  0.00  0.00    +0.000 C 
ATOM     16  N   UNL     1       2.252   6.516  19.812  0.00  0.00    +0.000 NA
ATOM     17  C   UNL     1       2.326   6.084  18.396  0.00  0.00    +0.000 C 
ATOM     18  C   UNL     1       1.441   4.897  18.020  0.00  0.00    +0.000 C 
BRANCH  16  19
ATOM     19  C   UNL     1       1.367   7.662  19.889  0.00  0.00    +0.000 C 
BRANCH  19  20
ATOM     20  C   UNL     1       1.394   8.406  21.214  0.00  0.00    +0.000 C 
ATOM     21  N   UNL     1       1.417   9.023  22.314  0.00  0.00    +0.000 NA
ENDBRANCH  19  20
ENDBRANCH  16  19
ENDBRANCH   1  13
TORSDOF 5
ENDMDL
MODEL 8
REMARK VINA RESULT:      -6.3      3.922      6.264
REMARK  Name = 
REMARK  6 active torsions:
REMARK  status: ('A' for Active; 'I' for Inactive)
REMARK    1  A    between atoms: C_1  and  C_2
REMARK    2  A    between atoms: C_2  and  C_4
REMARK    3  A    between atoms: C_7  and  S_8
REMARK    4  A    between atoms: S_8  and  N_11
REMARK    5  A    between atoms: N_14  and  C_15
REMARK    6  A    between atoms: C_15  and  C_16
REMARK                            x       y       z     vdW  Elec       q    Type
REMARK                         _______ _______ _______ _____ _____    ______ ____
ROOT
ATOM      1  S   UNL     1       6.822   5.236  17.125  0.00  0.00    +0.000 S 
ATOM      2  O   UNL     1       7.266   5.191  15.745  0.00  0.00    +0.000 OA
ATOM      3  O   UNL     1       7.251   4.231  18.069  0.00  0.00    +0.000 OA
ENDROOT
BRANCH   1   7
ATOM      4  C   UNL     1       8.561   9.285  18.509  0.00  0.00    +0.000 A 
ATOM      5  C   UNL     1       8.821   8.133  19.255  0.00  0.00    +0.000 A 
ATOM      6  C   UNL     1       8.269   6.897  18.865  0.00  0.00    +0.000 A 
ATOM      7  C   UNL     1       7.382   6.814  17.784  0.00  0.00    +0.000 A 
ATOM      8  C   UNL     1       7.095   7.977  17.061  0.00  0.00    +0.000 A 
ATOM      9  C   UNL     1       7.691   9.195  17.413  0.00  0.00    +0.000 A 
BRANCH   4  11
ATOM     10  C   UNL     1       9.655  10.943  20.184  0.00  0.00    +0.000 C 
ATOM     11  C   UNL     1       9.215  10.605  18.782  0.00  0.00    +0.000 C 
ATOM     12  O   UNL     1       9.396  11.397  17.859  0.00  0.00    +0.000 OA
ENDBRANCH   4  11
ENDBRANCH   1   7
BRANCH   1  13
ATOM     13  N   UNL     1       5.137   5.181  17.059  0.00  0.00    +0.000 NA
ATOM     14  C   UNL     1       4.450   3.945  16.665  0.00  0.00    +0.000 C 
ATOM     15  C   UNL     1       4.127   3.068  17.877  0.00  0.00    +0.000 C 
ATOM     16  N   UNL     1       3.850   3.715  19.182  0.00  0.00    +0.000 NA
ATOM     17  C   UNL     1       4.254   5.133  19.332  0.00  0.00    +0.000 C 
ATOM     18  C   UNL     1       4.335   5.938  18.036  0.00  0.00    +0.000 C 
BRANCH  16  19
ATOM     19  C   UNL     1       2.439   3.611  19.496  0.00  0.00    +0.000 C 
BRANCH  19  20
ATOM     20  C   UNL     1       2.128   3.191  20.924  0.00  0.00    +0.000 C 
ATOM     21  N   UNL     1       1.870   2.844  22.108  0.00  0.00    +0.000 NA
ENDBRANCH  19  20
ENDBRANCH  16  19
ENDBRANCH   1  13
TORSDOF 5
ENDMDL
MODEL 9
REMARK VINA RESULT:      -6.3      1.940      2.449
REMARK  Name = 
REMARK  6 active torsions:
REMARK  status: ('A' for Active; 'I' for Inactive)
REMARK    1  A    between atoms: C_1  and  C_2
REMARK    2  A    between atoms: C_2  and  C_4
REMARK    3  A    between atoms: C_7  and  S_8
REMARK    4  A    between atoms: S_8  and  N_11
REMARK    5  A    between atoms: N_14  and  C_15
REMARK    6  A    between atoms: C_15  and  C_16
REMARK                            x       y       z     vdW  Elec       q    Type
REMARK                         _______ _______ _______ _____ _____    ______ ____
ROOT
ATOM      1  S   UNL     1       2.437   5.217  19.645  0.00  0.00    +0.000 S 
ATOM      2  O   UNL     1       2.267   4.954  21.061  0.00  0.00    +0.000 OA
ATOM      3  O   UNL     1       1.605   4.556  18.668  0.00  0.00    +0.000 OA
ENDROOT
BRANCH   1   7
ATOM      4  C   UNL     1       1.312   9.659  19.061  0.00  0.00    +0.000 A 
ATOM      5  C   UNL     1       1.855   8.939  17.993  0.00  0.00    +0.000 A 
ATOM      6  C   UNL     1       2.233   7.594  18.165  0.00  0.00    +0.000 A 
ATOM      7  C   UNL     1       2.163   6.983  19.423  0.00  0.00    +0.000 A 
ATOM      8  C   UNL     1       1.654   7.717  20.499  0.00  0.00    +0.000 A 
ATOM      9  C   UNL     1       1.221   9.036  20.314  0.00  0.00    +0.000 A 
BRANCH   4  11
ATOM     10  C   UNL     1      -0.692  11.306  19.212  0.00  0.00    +0.000 C 
ATOM     11  C   UNL     1       0.765  11.047  18.922  0.00  0.00    +0.000 C 
ATOM     12  O   UNL     1       1.510  11.964  18.582  0.00  0.00    +0.000 OA
ENDBRANCH   4  11
ENDBRANCH   1   7
BRANCH   1  13
ATOM     13  N   UNL     1       4.039   4.815  19.300  0.00  0.00    +0.000 NA
ATOM     14  C   UNL     1       4.427   3.411  19.114  0.00  0.00    +0.000 C 
ATOM     15  C   UNL     1       4.326   2.988  17.647  0.00  0.00    +0.000 C 
ATOM     16  N   UNL     1       4.566   3.995  16.587  0.00  0.00    +0.000 NA
ATOM     17  C   UNL     1       4.532   5.421  16.990  0.00  0.00    +0.000 C 
ATOM     18  C   UNL     1       4.858   5.702  18.456  0.00  0.00    +0.000 C 
BRANCH  16  19
ATOM     19  C   UNL     1       5.838   3.739  15.940  0.00  0.00    +0.000 C 
BRANCH  19  20
ATOM     20  C   UNL     1       6.747   4.949  15.809  0.00  0.00    +0.000 C 
ATOM     21  N   UNL     1       7.502   5.954  15.700  0.00  0.00    +0.000 NA
ENDBRANCH  19  20
ENDBRANCH  16  19
ENDBRANCH   1  13
TORSDOF 5
ENDMDL
