MODEL 1
REMARK VINA RESULT:      -7.1      0.000      0.000
REMARK  Name = 
REMARK  10 active torsions:
REMARK  status: ('A' for Active; 'I' for Inactive)
REMARK    1  A    between atoms: C_1  and  C_2
REMARK    2  A    between atoms: C_2  and  N_3
REMARK    3  A    between atoms: N_3  and  C_4
REMARK    4  A    between atoms: N_3  and  S_6
REMARK    5  A    between atoms: C_4  and  C_5
REMARK    6  A    between atoms: S_6  and  C_9
REMARK    7  A    between atoms: C_13  and  C_14
REMARK    8  A    between atoms: N_16  and  C_17
REMARK    9  A    between atoms: N_16  and  C_18
REMARK   10  A    between atoms: C_18  and  C_19
REMARK                            x       y       z     vdW  Elec       q    Type
REMARK                         _______ _______ _______ _____ _____    ______ ____
ROOT
ATOM      1  C   UNL     1       3.791   5.356  18.936  0.00  0.00    +0.000 A 
ATOM      2  C   UNL     1       3.185   4.764  20.042  0.00  0.00    +0.000 A 
ATOM      3  C   UNL     1       2.137   5.429  20.675  0.00  0.00    +0.000 A 
ATOM      4  C   UNL     1       1.730   6.690  20.218  0.00  0.00    +0.000 A 
ATOM      5  C   UNL     1       2.375   7.307  19.132  0.00  0.00    +0.000 A 
ATOM      6  C   UNL     1       3.392   6.617  18.476  0.00  0.00    +0.000 A 
ENDROOT
BRANCH   5   7
ATOM      7  C   UNL     1       1.834   8.593  18.605  0.00  0.00    +0.000 C 
ATOM      8  O   UNL     1       2.066   8.829  17.416  0.00  0.00    +0.000 OA
ATOM      9  N   UNL     1       1.147   9.501  19.419  0.00  0.00    +0.000 N 
ATOM     10  C   UNL     1       0.498   9.204  20.692  0.00  0.00    +0.000 C 
BRANCH   9  11
ATOM     11  C   UNL     1       0.842  10.817  18.854  0.00  0.00    +0.000 C 
BRANCH  11  12
ATOM     12  C   UNL     1      -0.615  10.908  18.483  0.00  0.00    +0.000 A 
ATOM     13  C   UNL     1      -1.281  10.029  17.564  0.00  0.00    +0.000 A 
ATOM     14  C   UNL     1      -2.626  10.292  17.441  0.00  0.00    +0.000 A 
ATOM     15  S   UNL     1      -3.111  11.594  18.434  0.00  0.00    +0.000 S 
ATOM     16  C   UNL     1      -1.519  11.804  19.027  0.00  0.00    +0.000 A 
ENDBRANCH  11  12
ENDBRANCH   9  11
ENDBRANCH   5   7
BRANCH   1  17
ATOM     17  S   UNL     1       5.097   4.508  18.077  0.00  0.00    +0.000 S 
ATOM     18  O   UNL     1       4.477   3.624  17.116  0.00  0.00    +0.000 OA
ATOM     19  O   UNL     1       6.016   4.002  19.075  0.00  0.00    +0.000 OA
BRANCH  17  20
ATOM     20  N   UNL     1       5.895   5.771  17.227  0.00  0.00    +0.000 NA
BRANCH  20  22
ATOM     21  C   UNL     1       7.573   7.623  17.511  0.00  0.00    +0.000 C 
ATOM     22  C   UNL     1       7.218   6.171  17.795  0.00  0.00    +0.000 C 
ENDBRANCH  20  22
BRANCH  20  23
ATOM     23  C   UNL     1       5.867   5.589  15.743  0.00  0.00    +0.000 C 
ATOM     24  C   UNL     1       7.018   4.751  15.211  0.00  0.00    +0.000 C 
ENDBRANCH  20  23
ENDBRANCH  17  20
ENDBRANCH   1  17
TORSDOF 7
ENDMDL
MODEL 2
REMARK VINA RESULT:      -6.9      0.706      1.116
REMARK  Name = 
REMARK  10 active torsions:
REMARK  status: ('A' for Active; 'I' for Inactive)
REMARK    1  A    between atoms: C_1  and  C_2
REMARK    2  A    between atoms: C_2  and  N_3
REMARK    3  A    between atoms: N_3  and  C_4
REMARK    4  A    between atoms: N_3  and  S_6
REMARK    5  A    between atoms: C_4  and  C_5
REMARK    6  A    between atoms: S_6  and  C_9
REMARK    7  A    between atoms: C_13  and  C_14
REMARK    8  A    between atoms: N_16  and  C_17
REMARK    9  A    between atoms: N_16  and  C_18
REMARK   10  A    between atoms: C_18  and  C_19
REMARK                            x       y       z     vdW  Elec       q    Type
REMARK                         _______ _______ _______ _____ _____    ______ ____
ROOT
ATOM      1  C   UNL     1       3.558   5.091  19.224  0.00  0.00    +0.000 A 
ATOM      2  C   UNL     1       2.882   4.511  20.295  0.00  0.00    +0.000 A 
ATOM      3  C   UNL     1       1.845   5.218  20.900  0.00  0.00    +0.000 A 
ATOM      4  C   UNL     1       1.519   6.505  20.452  0.00  0.00    +0.000 A 
ATOM      5  C   UNL     1       2.236   7.106  19.403  0.00  0.00    +0.000 A 
ATOM      6  C   UNL     1       3.241   6.377  18.773  0.00  0.00    +0.000 A 
ENDROOT
BRANCH   5   7
ATOM      7  C   UNL     1       1.780   8.427  18.879  0.00  0.00    +0.000 C 
ATOM      8  O   UNL     1       1.984   8.631  17.680  0.00  0.00    +0.000 OA
ATOM      9  N   UNL     1       1.200   9.396  19.706  0.00  0.00    +0.000 N 
ATOM     10  C   UNL     1       0.578   9.165  21.006  0.00  0.00    +0.000 C 
BRANCH   9  11
ATOM     11  C   UNL     1       0.980  10.726  19.135  0.00  0.00    +0.000 C 
BRANCH  11  12
ATOM     12  C   UNL     1      -0.485  10.953  18.873  0.00  0.00    +0.000 A 
ATOM     13  C   UNL     1      -1.295  11.929  19.548  0.00  0.00    +0.000 A 
ATOM     14  C   UNL     1      -2.590  11.971  19.084  0.00  0.00    +0.000 A 
ATOM     15  S   UNL     1      -2.852  10.845  17.827  0.00  0.00    +0.000 S 
ATOM     16  C   UNL     1      -1.230  10.302  17.904  0.00  0.00    +0.000 A 
ENDBRANCH  11  12
ENDBRANCH   9  11
ENDBRANCH   5   7
BRANCH   1  17
ATOM     17  S   UNL     1       4.853   4.192  18.400  0.00  0.00    +0.000 S 
ATOM     18  O   UNL     1       4.254   3.509  17.274  0.00  0.00    +0.000 OA
ATOM     19  O   UNL     1       5.587   3.462  19.411  0.00  0.00    +0.000 OA
BRANCH  17  20
ATOM     20  N   UNL     1       5.879   5.435  17.804  0.00  0.00    +0.000 NA
BRANCH  20  22
ATOM     21  C   UNL     1       7.846   6.929  18.279  0.00  0.00    +0.000 C 
ATOM     22  C   UNL     1       7.165   5.596  18.548  0.00  0.00    +0.000 C 
ENDBRANCH  20  22
BRANCH  20  23
ATOM     23  C   UNL     1       6.000   5.434  16.314  0.00  0.00    +0.000 C 
ATOM     24  C   UNL     1       5.169   6.510  15.635  0.00  0.00    +0.000 C 
ENDBRANCH  20  23
ENDBRANCH  17  20
ENDBRANCH   1  17
TORSDOF 7
ENDMDL
MODEL 3
REMARK VINA RESULT:      -6.8      1.809      2.471
REMARK  Name = 
REMARK  10 active torsions:
REMARK  status: ('A' for Active; 'I' for Inactive)
REMARK    1  A    between atoms: C_1  and  C_2
REMARK    2  A    between atoms: C_2  and  N_3
REMARK    3  A    between atoms: N_3  and  C_4
REMARK    4  A    between atoms: N_3  and  S_6
REMARK    5  A    between atoms: C_4  and  C_5
REMARK    6  A    between atoms: S_6  and  C_9
REMARK    7  A    between atoms: C_13  and  C_14
REMARK    8  A    between atoms: N_16  and  C_17
REMARK    9  A    between atoms: N_16  and  C_18
REMARK   10  A    between atoms: C_18  and  C_19
REMARK                            x       y       z     vdW  Elec       q    Type
REMARK                         _______ _______ _______ _____ _____    ______ ____
ROOT
ATOM      1  C   UNL     1       4.213   5.344  17.277  0.00  0.00    +0.000 A 
ATOM      2  C   UNL     1       3.428   4.226  17.005  0.00  0.00    +0.000 A 
ATOM      3  C   UNL     1       2.181   4.112  17.616  0.00  0.00    +0.000 A 
ATOM      4  C   UNL     1       1.749   5.096  18.516  0.00  0.00    +0.000 A 
ATOM      5  C   UNL     1       2.565   6.199  18.825  0.00  0.00    +0.000 A 
ATOM      6  C   UNL     1       3.790   6.330  18.176  0.00  0.00    +0.000 A 
ENDROOT
BRANCH   5   7
ATOM      7  C   UNL     1       2.019   7.281  19.694  0.00  0.00    +0.000 C 
ATOM      8  O   UNL     1       1.880   6.997  20.887  0.00  0.00    +0.000 OA
ATOM      9  N   UNL     1       1.640   8.527  19.182  0.00  0.00    +0.000 N 
ATOM     10  C   UNL     1       2.076   9.114  17.918  0.00  0.00    +0.000 C 
BRANCH   9  11
ATOM     11  C   UNL     1       0.927   9.438  20.080  0.00  0.00    +0.000 C 
BRANCH  11  12
ATOM     12  C   UNL     1       0.134  10.446  19.291  0.00  0.00    +0.000 A 
ATOM     13  C   UNL     1      -1.100  10.164  18.612  0.00  0.00    +0.000 A 
ATOM     14  C   UNL     1      -1.651  11.272  18.010  0.00  0.00    +0.000 A 
ATOM     15  S   UNL     1      -0.699  12.669  18.256  0.00  0.00    +0.000 S 
ATOM     16  C   UNL     1       0.451  11.788  19.170  0.00  0.00    +0.000 A 
ENDBRANCH  11  12
ENDBRANCH   9  11
ENDBRANCH   5   7
BRANCH   1  17
ATOM     17  S   UNL     1       5.787   5.542  16.472  0.00  0.00    +0.000 S 
ATOM     18  O   UNL     1       5.575   6.379  15.312  0.00  0.00    +0.000 OA
ATOM     19  O   UNL     1       6.379   4.227  16.347  0.00  0.00    +0.000 OA
BRANCH  17  20
ATOM     20  N   UNL     1       6.710   6.423  17.623  0.00  0.00    +0.000 NA
BRANCH  20  22
ATOM     21  C   UNL     1       7.507   5.471  19.810  0.00  0.00    +0.000 C 
ATOM     22  C   UNL     1       7.767   5.627  18.320  0.00  0.00    +0.000 C 
ENDBRANCH  20  22
BRANCH  20  23
ATOM     23  C   UNL     1       7.147   7.763  17.125  0.00  0.00    +0.000 C 
ATOM     24  C   UNL     1       8.191   8.429  18.005  0.00  0.00    +0.000 C 
ENDBRANCH  20  23
ENDBRANCH  17  20
ENDBRANCH   1  17
TORSDOF 7
ENDMDL
MODEL 4
REMARK VINA RESULT:      -6.7      1.092      1.732
REMARK  Name = 
REMARK  10 active torsions:
REMARK  status: ('A' for Active; 'I' for Inactive)
REMARK    1  A    between atoms: C_1  and  C_2
REMARK    2  A    between atoms: C_2  and  N_3
REMARK    3  A    between atoms: N_3  and  C_4
REMARK    4  A    between atoms: N_3  and  S_6
REMARK    5  A    between atoms: C_4  and  C_5
REMARK    6  A    between atoms: S_6  and  C_9
REMARK    7  A    between atoms: C_13  and  C_14
REMARK    8  A    between atoms: N_16  and  C_17
REMARK    9  A    between atoms: N_16  and  C_18
REMARK   10  A    between atoms: C_18  and  C_19
REMARK                            x       y       z     vdW  Elec       q    Type
REMARK                         _______ _______ _______ _____ _____    ______ ____
ROOT
ATOM      1  C   UNL     1       3.814   5.247  19.661  0.00  0.00    +0.000 A 
ATOM      2  C   UNL     1       2.986   4.570  20.553  0.00  0.00    +0.000 A 
ATOM      3  C   UNL     1       1.766   5.142  20.908  0.00  0.00    +0.000 A 
ATOM      4  C   UNL     1       1.404   6.395  20.396  0.00  0.00    +0.000 A 
ATOM      5  C   UNL     1       2.264   7.098  19.534  0.00  0.00    +0.000 A 
ATOM      6  C   UNL     1       3.461   6.500  19.147  0.00  0.00    +0.000 A 
ENDROOT
BRANCH   5   7
ATOM      7  C   UNL     1       1.790   8.372  18.919  0.00  0.00    +0.000 C 
ATOM      8  O   UNL     1       1.996   8.496  17.709  0.00  0.00    +0.000 OA
ATOM      9  N   UNL     1       1.190   9.386  19.675  0.00  0.00    +0.000 N 
ATOM     10  C   UNL     1       0.566   9.235  20.986  0.00  0.00    +0.000 C 
BRANCH   9  11
ATOM     11  C   UNL     1       0.952  10.670  19.014  0.00  0.00    +0.000 C 
BRANCH  11  12
ATOM     12  C   UNL     1      -0.513  10.847  18.716  0.00  0.00    +0.000 A 
ATOM     13  C   UNL     1      -1.348  11.863  19.293  0.00  0.00    +0.000 A 
ATOM     14  C   UNL     1      -2.637  11.841  18.812  0.00  0.00    +0.000 A 
ATOM     15  S   UNL     1      -2.864  10.606  17.656  0.00  0.00    +0.000 S 
ATOM     16  C   UNL     1      -1.233  10.100  17.799  0.00  0.00    +0.000 A 
ENDBRANCH  11  12
ENDBRANCH   9  11
ENDBRANCH   5   7
BRANCH   1  17
ATOM     17  S   UNL     1       5.354   4.517  19.150  0.00  0.00    +0.000 S 
ATOM     18  O   UNL     1       5.280   3.104  19.446  0.00  0.00    +0.000 OA
ATOM     19  O   UNL     1       6.420   5.338  19.681  0.00  0.00    +0.000 OA
BRANCH  17  20
ATOM     20  N   UNL     1       5.339   4.721  17.443  0.00  0.00    +0.000 NA
BRANCH  20  22
ATOM     21  C   UNL     1       6.906   4.614  15.478  0.00  0.00    +0.000 C 
ATOM     22  C   UNL     1       6.631   5.194  16.858  0.00  0.00    +0.000 C 
ENDBRANCH  20  22
BRANCH  20  23
ATOM     23  C   UNL     1       4.689   3.585  16.720  0.00  0.00    +0.000 C 
ATOM     24  C   UNL     1       3.181   3.535  16.895  0.00  0.00    +0.000 C 
ENDBRANCH  20  23
ENDBRANCH  17  20
ENDBRANCH   1  17
TORSDOF 7
ENDMDL
MODEL 5
REMARK VINA RESULT:      -6.6      1.359      2.069
REMARK  Name = 
REMARK  10 active torsions:
REMARK  status: ('A' for Active; 'I' for Inactive)
REMARK    1  A    between atoms: C_1  and  C_2
REMARK    2  A    between atoms: C_2  and  N_3
REMARK    3  A    between atoms: N_3  and  C_4
REMARK    4  A    between atoms: N_3  and  S_6
REMARK    5  A    between atoms: C_4  and  C_5
REMARK    6  A    between atoms: S_6  and  C_9
REMARK    7  A    between atoms: C_13  and  C_14
REMARK    8  A    between atoms: N_16  and  C_17
REMARK    9  A    between atoms: N_16  and  C_18
REMARK   10  A    between atoms: C_18  and  C_19
REMARK                            x       y       z     vdW  Elec       q    Type
REMARK                         _______ _______ _______ _____ _____    ______ ____
ROOT
ATOM      1  C   UNL     1       4.003   5.681  19.067  0.00  0.00    +0.000 A 
ATOM      2  C   UNL     1       3.335   4.974  20.065  0.00  0.00    +0.000 A 
ATOM      3  C   UNL     1       2.142   5.485  20.571  0.00  0.00    +0.000 A 
ATOM      4  C   UNL     1       1.649   6.710  20.101  0.00  0.00    +0.000 A 
ATOM      5  C   UNL     1       2.351   7.445  19.129  0.00  0.00    +0.000 A 
ATOM      6  C   UNL     1       3.519   6.906  18.595  0.00  0.00    +0.000 A 
ENDROOT
BRANCH   5   7
ATOM      7  C   UNL     1       1.733   8.683  18.571  0.00  0.00    +0.000 C 
ATOM      8  O   UNL     1       1.899   8.872  17.364  0.00  0.00    +0.000 OA
ATOM      9  N   UNL     1       1.046   9.600  19.375  0.00  0.00    +0.000 N 
ATOM     10  C   UNL     1       0.469   9.336  20.690  0.00  0.00    +0.000 C 
BRANCH   9  11
ATOM     11  C   UNL     1       0.660  10.874  18.768  0.00  0.00    +0.000 C 
BRANCH  11  12
ATOM     12  C   UNL     1      -0.817  10.896  18.478  0.00  0.00    +0.000 A 
ATOM     13  C   UNL     1      -1.756  11.797  19.086  0.00  0.00    +0.000 A 
ATOM     14  C   UNL     1      -3.038  11.645  18.609  0.00  0.00    +0.000 A 
ATOM     15  S   UNL     1      -3.132  10.425  17.418  0.00  0.00    +0.000 S 
ATOM     16  C   UNL     1      -1.456  10.100  17.542  0.00  0.00    +0.000 A 
ENDBRANCH  11  12
ENDBRANCH   9  11
ENDBRANCH   5   7
BRANCH   1  17
ATOM     17  S   UNL     1       5.501   5.027  18.366  0.00  0.00    +0.000 S 
ATOM     18  O   UNL     1       6.022   4.050  19.297  0.00  0.00    +0.000 OA
ATOM     19  O   UNL     1       6.305   6.151  17.934  0.00  0.00    +0.000 OA
BRANCH  17  20
ATOM     20  N   UNL     1       4.953   4.206  16.959  0.00  0.00    +0.000 NA
BRANCH  20  22
ATOM     21  C   UNL     1       3.515   2.268  17.669  0.00  0.00    +0.000 C 
ATOM     22  C   UNL     1       3.565   3.659  17.054  0.00  0.00    +0.000 C 
ENDBRANCH  20  22
BRANCH  20  23
ATOM     23  C   UNL     1       5.265   4.937  15.693  0.00  0.00    +0.000 C 
ATOM     24  C   UNL     1       5.866   4.053  14.612  0.00  0.00    +0.000 C 
ENDBRANCH  20  23
ENDBRANCH  17  20
ENDBRANCH   1  17
TORSDOF 7
ENDMDL
MODEL 6
REMARK VINA RESULT:      -6.6      1.290      1.535
REMARK  Name = 
REMARK  10 active torsions:
REMARK  status: ('A' for Active; 'I' for Inactive)
REMARK    1  A    between atoms: C_1  and  C_2
REMARK    2  A    between atoms: C_2  and  N_3
REMARK    3  A    between atoms: N_3  and  C_4
REMARK    4  A    between atoms: N_3  and  S_6
REMARK    5  A    between atoms: C_4  and  C_5
REMARK    6  A    between atoms: S_6  and  C_9
REMARK    7  A    between atoms: C_13  and  C_14
REMARK    8  A    between atoms: N_16  and  C_17
REMARK    9  A    between atoms: N_16  and  C_18
REMARK   10  A    between atoms: C_18  and  C_19
REMARK                            x       y       z     vdW  Elec       q    Type
REMARK                         _______ _______ _______ _____ _____    ______ ____
ROOT
ATOM      1  C   UNL     1       3.242   4.643  19.330  0.00  0.00    +0.000 A 
ATOM      2  C   UNL     1       2.273   3.780  19.838  0.00  0.00    +0.000 A 
ATOM      3  C   UNL     1       1.151   4.319  20.463  0.00  0.00    +0.000 A 
ATOM      4  C   UNL     1       1.025   5.708  20.602  0.00  0.00    +0.000 A 
ATOM      5  C   UNL     1       2.028   6.574  20.131  0.00  0.00    +0.000 A 
ATOM      6  C   UNL     1       3.126   6.031  19.468  0.00  0.00    +0.000 A 
ENDROOT
BRANCH   5   7
ATOM      7  C   UNL     1       1.800   8.047  20.193  0.00  0.00    +0.000 C 
ATOM      8  O   UNL     1       1.628   8.519  21.319  0.00  0.00    +0.000 OA
ATOM      9  N   UNL     1       1.736   8.840  19.041  0.00  0.00    +0.000 N 
ATOM     10  C   UNL     1       2.272   8.501  17.725  0.00  0.00    +0.000 C 
BRANCH   9  11
ATOM     11  C   UNL     1       1.305  10.229  19.201  0.00  0.00    +0.000 C 
BRANCH  11  12
ATOM     12  C   UNL     1      -0.096  10.411  18.679  0.00  0.00    +0.000 A 
ATOM     13  C   UNL     1      -0.687   9.625  17.633  0.00  0.00    +0.000 A 
ATOM     14  C   UNL     1      -1.998   9.957  17.381  0.00  0.00    +0.000 A 
ATOM     15  S   UNL     1      -2.543  11.213  18.402  0.00  0.00    +0.000 S 
ATOM     16  C   UNL     1      -1.021  11.311  19.181  0.00  0.00    +0.000 A 
ENDBRANCH  11  12
ENDBRANCH   9  11
ENDBRANCH   5   7
BRANCH   1  17
ATOM     17  S   UNL     1       4.661   3.985  18.482  0.00  0.00    +0.000 S 
ATOM     18  O   UNL     1       4.173   3.206  17.366  0.00  0.00    +0.000 OA
ATOM     19  O   UNL     1       5.529   3.398  19.481  0.00  0.00    +0.000 OA
BRANCH  17  20
ATOM     20  N   UNL     1       5.442   5.389  17.872  0.00  0.00    +0.000 NA
BRANCH  20  22
ATOM     21  C   UNL     1       7.625   6.258  18.769  0.00  0.00    +0.000 C 
ATOM     22  C   UNL     1       6.933   5.300  17.811  0.00  0.00    +0.000 C 
ENDBRANCH  20  22
BRANCH  20  23
ATOM     23  C   UNL     1       4.786   5.941  16.647  0.00  0.00    +0.000 C 
ATOM     24  C   UNL     1       5.547   5.651  15.365  0.00  0.00    +0.000 C 
ENDBRANCH  20  23
ENDBRANCH  17  20
ENDBRANCH   1  17
TORSDOF 7
ENDMDL
MODEL 7
REMARK VINA RESULT:      -6.6      2.035      3.938
REMARK  Name = 
REMARK  10 active torsions:
REMARK  status: ('A' for Active; 'I' for Inactive)
REMARK    1  A    between atoms: C_1  and  C_2
REMARK    2  A    between atoms: C_2  and  N_3
REMARK    3  A    between atoms: N_3  and  C_4
REMARK    4  A    between atoms: N_3  and  S_6
REMARK    5  A    between atoms: C_4  and  C_5
REMARK    6  A    between atoms: S_6  and  C_9
REMARK    7  A    between atoms: C_13  and  C_14
REMARK    8  A    between atoms: N_16  and  C_17
REMARK    9  A    between atoms: N_16  and  C_18
REMARK   10  A    between atoms: C_18  and  C_19
REMARK                            x       y       z     vdW  Elec       q    Type
REMARK                         _______ _______ _______ _____ _____    ______ ____
ROOT
ATOM      1  C   UNL     1       3.903   5.092  18.222  0.00  0.00    +0.000 A 
ATOM      2  C   UNL     1       4.603   5.653  17.156  0.00  0.00    +0.000 A 
ATOM      3  C   UNL     1       4.399   6.996  16.847  0.00  0.00    +0.000 A 
ATOM      4  C   UNL     1       3.475   7.752  17.582  0.00  0.00    +0.000 A 
ATOM      5  C   UNL     1       2.734   7.169  18.626  0.00  0.00    +0.000 A 
ATOM      6  C   UNL     1       2.976   5.839  18.958  0.00  0.00    +0.000 A 
ENDROOT
BRANCH   5   7
ATOM      7  C   UNL     1       1.850   8.037  19.457  0.00  0.00    +0.000 C 
ATOM      8  O   UNL     1       1.507   7.570  20.546  0.00  0.00    +0.000 OA
ATOM      9  N   UNL     1       1.397   9.284  19.011  0.00  0.00    +0.000 N 
ATOM     10  C   UNL     1       1.996  10.096  17.956  0.00  0.00    +0.000 C 
BRANCH   9  11
ATOM     11  C   UNL     1       0.375   9.957  19.813  0.00  0.00    +0.000 C 
BRANCH  11  12
ATOM     12  C   UNL     1      -0.789  10.368  18.950  0.00  0.00    +0.000 A 
ATOM     13  C   UNL     1      -1.668  11.467  19.232  0.00  0.00    +0.000 A 
ATOM     14  C   UNL     1      -2.618  11.665  18.256  0.00  0.00    +0.000 A 
ATOM     15  S   UNL     1      -2.463  10.538  16.982  0.00  0.00    +0.000 S 
ATOM     16  C   UNL     1      -1.124   9.787  17.739  0.00  0.00    +0.000 A 
ENDBRANCH  11  12
ENDBRANCH   9  11
ENDBRANCH   5   7
BRANCH   1  17
ATOM     17  S   UNL     1       4.181   3.394  18.672  0.00  0.00    +0.000 S 
ATOM     18  O   UNL     1       5.332   3.363  19.547  0.00  0.00    +0.000 OA
ATOM     19  O   UNL     1       4.146   2.611  17.455  0.00  0.00    +0.000 OA
BRANCH  17  20
ATOM     20  N   UNL     1       2.784   2.994  19.589  0.00  0.00    +0.000 NA
BRANCH  20  22
ATOM     21  C   UNL     1       0.464   2.628  18.689  0.00  0.00    +0.000 C 
ATOM     22  C   UNL     1       1.848   2.040  18.921  0.00  0.00    +0.000 C 
ENDBRANCH  20  22
BRANCH  20  23
ATOM     23  C   UNL     1       3.087   2.693  21.022  0.00  0.00    +0.000 C 
ATOM     24  C   UNL     1       1.940   3.012  21.967  0.00  0.00    +0.000 C 
ENDBRANCH  20  23
ENDBRANCH  17  20
ENDBRANCH   1  17
TORSDOF 7
ENDMDL
MODEL 8
REMARK VINA RESULT:      -6.6      3.054      8.086
REMARK  Name = 
REMARK  10 active torsions:
REMARK  status: ('A' for Active; 'I' for Inactive)
REMARK    1  A    between atoms: C_1  and  C_2
REMARK    2  A    between atoms: C_2  and  N_3
REMARK    3  A    between atoms: N_3  and  C_4
REMARK    4  A    between atoms: N_3  and  S_6
REMARK    5  A    between atoms: C_4  and  C_5
REMARK    6  A    between atoms: S_6  and  C_9
REMARK    7  A    between atoms: C_13  and  C_14
REMARK    8  A    between atoms: N_16  and  C_17
REMARK    9  A    between atoms: N_16  and  C_18
REMARK   10  A    between atoms: C_18  and  C_19
REMARK                            x       y       z     vdW  Elec       q    Type
REMARK                         _______ _______ _______ _____ _____    ______ ____
ROOT
ATOM      1  C   UNL     1       0.124  11.419  19.798  0.00  0.00    +0.000 A 
ATOM      2  C   UNL     1      -1.119  11.338  19.176  0.00  0.00    +0.000 A 
ATOM      3  C   UNL     1      -1.323  10.365  18.200  0.00  0.00    +0.000 A 
ATOM      4  C   UNL     1      -0.275   9.510  17.833  0.00  0.00    +0.000 A 
ATOM      5  C   UNL     1       0.993   9.627  18.428  0.00  0.00    +0.000 A 
ATOM      6  C   UNL     1       1.177  10.571  19.435  0.00  0.00    +0.000 A 
ENDROOT
BRANCH   5   7
ATOM      7  C   UNL     1       2.044   8.621  18.095  0.00  0.00    +0.000 C 
ATOM      8  O   UNL     1       2.650   8.805  17.036  0.00  0.00    +0.000 OA
ATOM      9  N   UNL     1       2.295   7.510  18.907  0.00  0.00    +0.000 N 
ATOM     10  C   UNL     1       1.938   7.368  20.316  0.00  0.00    +0.000 C 
BRANCH   9  11
ATOM     11  C   UNL     1       3.199   6.482  18.385  0.00  0.00    +0.000 C 
BRANCH  11  12
ATOM     12  C   UNL     1       2.659   5.107  18.677  0.00  0.00    +0.000 A 
ATOM     13  C   UNL     1       1.585   4.481  17.959  0.00  0.00    +0.000 A 
ATOM     14  C   UNL     1       1.321   3.201  18.388  0.00  0.00    +0.000 A 
ATOM     15  S   UNL     1       2.363   2.728  19.655  0.00  0.00    +0.000 S 
ATOM     16  C   UNL     1       3.168   4.239  19.628  0.00  0.00    +0.000 A 
ENDBRANCH  11  12
ENDBRANCH   9  11
ENDBRANCH   5   7
BRANCH   1  17
ATOM     17  S   UNL     1       0.398  12.617  21.084  0.00  0.00    +0.000 S 
ATOM     18  O   UNL     1      -0.267  13.837  20.685  0.00  0.00    +0.000 OA
ATOM     19  O   UNL     1       1.811  12.603  21.397  0.00  0.00    +0.000 OA
BRANCH  17  20
ATOM     20  N   UNL     1      -0.440  11.951  22.429  0.00  0.00    +0.000 NA
BRANCH  20  22
ATOM     21  C   UNL     1      -2.727  11.967  23.476  0.00  0.00    +0.000 C 
ATOM     22  C   UNL     1      -1.563  12.791  22.946  0.00  0.00    +0.000 C 
ENDBRANCH  20  22
BRANCH  20  23
ATOM     23  C   UNL     1      -0.754  10.498  22.265  0.00  0.00    +0.000 C 
ATOM     24  C   UNL     1       0.140   9.586  23.088  0.00  0.00    +0.000 C 
ENDBRANCH  20  23
ENDBRANCH  17  20
ENDBRANCH   1  17
TORSDOF 7
ENDMDL
MODEL 9
REMARK VINA RESULT:      -6.6      4.138      7.417
REMARK  Name = 
REMARK  10 active torsions:
REMARK  status: ('A' for Active; 'I' for Inactive)
REMARK    1  A    between atoms: C_1  and  C_2
REMARK    2  A    between atoms: C_2  and  N_3
REMARK    3  A    between atoms: N_3  and  C_4
REMARK    4  A    between atoms: N_3  and  S_6
REMARK    5  A    between atoms: C_4  and  C_5
REMARK    6  A    between atoms: S_6  and  C_9
REMARK    7  A    between atoms: C_13  and  C_14
REMARK    8  A    between atoms: N_16  and  C_17
REMARK    9  A    between atoms: N_16  and  C_18
REMARK   10  A    between atoms: C_18  and  C_19
REMARK                            x       y       z     vdW  Elec       q    Type
REMARK                         _______ _______ _______ _____ _____    ______ ____
ROOT
ATOM      1  C   UNL     1       2.529   4.512  18.167  0.00  0.00    +0.000 A 
ATOM      2  C   UNL     1       1.949   5.600  18.816  0.00  0.00    +0.000 A 
ATOM      3  C   UNL     1       2.501   6.866  18.636  0.00  0.00    +0.000 A 
ATOM      4  C   UNL     1       3.644   7.025  17.839  0.00  0.00    +0.000 A 
ATOM      5  C   UNL     1       4.255   5.918  17.225  0.00  0.00    +0.000 A 
ATOM      6  C   UNL     1       3.671   4.663  17.372  0.00  0.00    +0.000 A 
ENDROOT
BRANCH   5   7
ATOM      7  C   UNL     1       5.396   6.147  16.292  0.00  0.00    +0.000 C 
ATOM      8  O   UNL     1       5.224   7.014  15.431  0.00  0.00    +0.000 OA
ATOM      9  N   UNL     1       6.573   5.393  16.356  0.00  0.00    +0.000 N 
ATOM     10  C   UNL     1       7.051   4.627  17.503  0.00  0.00    +0.000 C 
BRANCH   9  11
ATOM     11  C   UNL     1       7.541   5.557  15.269  0.00  0.00    +0.000 C 
BRANCH  11  12
ATOM     12  C   UNL     1       7.112   4.774  14.056  0.00  0.00    +0.000 A 
ATOM     13  C   UNL     1       5.991   3.878  14.017  0.00  0.00    +0.000 A 
ATOM     14  C   UNL     1       5.781   3.328  12.773  0.00  0.00    +0.000 A 
ATOM     15  S   UNL     1       6.922   3.886  11.631  0.00  0.00    +0.000 S 
ATOM     16  C   UNL     1       7.697   4.864  12.805  0.00  0.00    +0.000 A 
ENDBRANCH  11  12
ENDBRANCH   9  11
ENDBRANCH   5   7
BRANCH   1  17
ATOM     17  S   UNL     1       1.815   2.892  18.337  0.00  0.00    +0.000 S 
ATOM     18  O   UNL     1       2.174   2.136  17.158  0.00  0.00    +0.000 OA
ATOM     19  O   UNL     1       0.430   3.066  18.720  0.00  0.00    +0.000 OA
BRANCH  17  20
ATOM     20  N   UNL     1       2.650   2.232  19.686  0.00  0.00    +0.000 NA
BRANCH  20  22
ATOM     21  C   UNL     1       4.980   1.872  20.563  0.00  0.00    +0.000 C 
ATOM     22  C   UNL     1       4.025   1.729  19.387  0.00  0.00    +0.000 C 
ENDBRANCH  20  22
BRANCH  20  23
ATOM     23  C   UNL     1       2.532   3.071  20.918  0.00  0.00    +0.000 C 
ATOM     24  C   UNL     1       1.442   2.607  21.869  0.00  0.00    +0.000 C 
ENDBRANCH  20  23
ENDBRANCH  17  20
ENDBRANCH   1  17
TORSDOF 7
ENDMDL
