MODEL 1
REMARK VINA RESULT:      -8.0      0.000      0.000
REMARK  Name = 
REMARK  6 active torsions:
REMARK  status: ('A' for Active; 'I' for Inactive)
REMARK    1  A    between atoms: C_1  and  C_2
REMARK    2  A    between atoms: C_2  and  C_3
REMARK    3  A    between atoms: C_3  and  C_4
REMARK    4  A    between atoms: N_6  and  C_7
REMARK    5  A    between atoms: C_15  and  N_16
REMARK    6  A    between atoms: C_17  and  C_19
REMARK                            x       y       z     vdW  Elec       q    Type
REMARK                         _______ _______ _______ _____ _____    ______ ____
ROOT
ATOM      1  C   UNL     1       6.290   6.815  17.634  0.00  0.00    +0.000 C 
ATOM      2  C   UNL     1       5.750   6.617  16.209  0.00  0.00    +0.000 C 
ATOM      3  N   UNL     1       6.107   5.251  15.864  0.00  0.00    +0.000 N 
ATOM      4  C   UNL     1       6.392   4.446  17.052  0.00  0.00    +0.000 C 
ATOM      5  C   UNL     1       6.175   5.408  18.248  0.00  0.00    +0.000 C 
ENDROOT
BRANCH   3   6
ATOM      6  C   UNL     1       6.528   4.923  14.593  0.00  0.00    +0.000 A 
ATOM      7  N   UNL     1       7.661   5.511  14.127  0.00  0.00    +0.000 NA
ATOM      8  C   UNL     1       8.096   5.215  12.877  0.00  0.00    +0.000 A 
ATOM      9  C   UNL     1       7.445   4.352  12.016  0.00  0.00    +0.000 A 
ATOM     10  C   UNL     1       6.285   3.750  12.474  0.00  0.00    +0.000 A 
ATOM     11  C   UNL     1       5.829   4.033  13.761  0.00  0.00    +0.000 A 
ATOM     12  F   UNL     1       4.698   3.435  14.168  0.00  0.00    +0.000 F 
ENDBRANCH   3   6
BRANCH   5  13
ATOM     13  N   UNL     1       4.882   5.229  18.913  0.00  0.00    +0.000 N 
ATOM     14  C   UNL     1       4.577   4.058  19.570  0.00  0.00    +0.000 C 
ATOM     15  O   UNL     1       5.370   3.125  19.662  0.00  0.00    +0.000 OA
ATOM     16  H   UNL     1       4.137   5.876  18.690  0.00  0.00    +0.000 HD
BRANCH  14  17
ATOM     17  C   UNL     1       3.196   3.984  20.209  0.00  0.00    +0.000 C 
ATOM     18  C   UNL     1       3.031   2.733  21.074  0.00  0.00    +0.000 C 
ATOM     19  C   UNL     1       1.611   2.636  21.612  0.00  0.00    +0.000 C 
ATOM     20  O   UNL     1       0.670   2.669  20.539  0.00  0.00    +0.000 OA
ATOM     21  C   UNL     1       0.716   3.905  19.826  0.00  0.00    +0.000 C 
ATOM     22  C   UNL     1       2.076   4.088  19.168  0.00  0.00    +0.000 C 
ENDBRANCH  14  17
ENDBRANCH   5  13
BRANCH   1  23
ATOM     23  C   UNL     1       7.747   7.325  17.682  0.00  0.00    +0.000 C 
BRANCH  23  25
ATOM     24  C   UNL     1       8.845   9.368  18.694  0.00  0.00    +0.000 C 
ATOM     25  C   UNL     1       7.847   8.854  17.670  0.00  0.00    +0.000 C 
ENDBRANCH  23  25
ENDBRANCH   1  23
TORSDOF 5
ENDMDL
MODEL 2
REMARK VINA RESULT:      -7.6      1.174      1.442
REMARK  Name = 
REMARK  6 active torsions:
REMARK  status: ('A' for Active; 'I' for Inactive)
REMARK    1  A    between atoms: C_1  and  C_2
REMARK    2  A    between atoms: C_2  and  C_3
REMARK    3  A    between atoms: C_3  and  C_4
REMARK    4  A    between atoms: N_6  and  C_7
REMARK    5  A    between atoms: C_15  and  N_16
REMARK    6  A    between atoms: C_17  and  C_19
REMARK                            x       y       z     vdW  Elec       q    Type
REMARK                         _______ _______ _______ _____ _____    ______ ____
ROOT
ATOM      1  C   UNL     1       5.915   6.800  17.062  0.00  0.00    +0.000 C 
ATOM      2  C   UNL     1       5.254   6.387  15.738  0.00  0.00    +0.000 C 
ATOM      3  N   UNL     1       5.682   5.014  15.523  0.00  0.00    +0.000 N 
ATOM      4  C   UNL     1       6.146   4.388  16.760  0.00  0.00    +0.000 C 
ATOM      5  C   UNL     1       5.974   5.478  17.849  0.00  0.00    +0.000 C 
ENDROOT
BRANCH   3   6
ATOM      6  C   UNL     1       6.000   4.555  14.262  0.00  0.00    +0.000 A 
ATOM      7  N   UNL     1       5.105   3.747  13.636  0.00  0.00    +0.000 NA
ATOM      8  C   UNL     1       5.392   3.272  12.399  0.00  0.00    +0.000 A 
ATOM      9  C   UNL     1       6.566   3.543  11.720  0.00  0.00    +0.000 A 
ATOM     10  C   UNL     1       7.491   4.360  12.348  0.00  0.00    +0.000 A 
ATOM     11  C   UNL     1       7.206   4.867  13.615  0.00  0.00    +0.000 A 
ATOM     12  F   UNL     1       8.130   5.651  14.194  0.00  0.00    +0.000 F 
ENDBRANCH   3   6
BRANCH   5  13
ATOM     13  N   UNL     1       4.771   5.300  18.667  0.00  0.00    +0.000 N 
ATOM     14  C   UNL     1       4.610   4.185  19.459  0.00  0.00    +0.000 C 
ATOM     15  O   UNL     1       5.464   3.308  19.549  0.00  0.00    +0.000 OA
ATOM     16  H   UNL     1       3.969   5.882  18.469  0.00  0.00    +0.000 HD
BRANCH  14  17
ATOM     17  C   UNL     1       3.311   4.104  20.251  0.00  0.00    +0.000 C 
ATOM     18  C   UNL     1       3.083   2.709  20.836  0.00  0.00    +0.000 C 
ATOM     19  C   UNL     1       1.730   2.633  21.531  0.00  0.00    +0.000 C 
ATOM     20  O   UNL     1       0.688   3.010  20.631  0.00  0.00    +0.000 OA
ATOM     21  C   UNL     1       0.814   4.367  20.206  0.00  0.00    +0.000 C 
ATOM     22  C   UNL     1       2.105   4.561  19.423  0.00  0.00    +0.000 C 
ENDBRANCH  14  17
ENDBRANCH   5  13
BRANCH   1  23
ATOM     23  C   UNL     1       7.324   7.408  16.890  0.00  0.00    +0.000 C 
BRANCH  23  25
ATOM     24  C   UNL     1       8.500   9.157  18.291  0.00  0.00    +0.000 C 
ATOM     25  C   UNL     1       8.007   7.721  18.226  0.00  0.00    +0.000 C 
ENDBRANCH  23  25
ENDBRANCH   1  23
TORSDOF 5
ENDMDL
MODEL 3
REMARK VINA RESULT:      -7.4      4.238      6.186
REMARK  Name = 
REMARK  6 active torsions:
REMARK  status: ('A' for Active; 'I' for Inactive)
REMARK    1  A    between atoms: C_1  and  C_2
REMARK    2  A    between atoms: C_2  and  C_3
REMARK    3  A    between atoms: C_3  and  C_4
REMARK    4  A    between atoms: N_6  and  C_7
REMARK    5  A    between atoms: C_15  and  N_16
REMARK    6  A    between atoms: C_17  and  C_19
REMARK                            x       y       z     vdW  Elec       q    Type
REMARK                         _______ _______ _______ _____ _____    ______ ____
ROOT
ATOM      1  C   UNL     1       1.958   5.392  19.111  0.00  0.00    +0.000 C 
ATOM      2  C   UNL     1       3.334   5.009  19.676  0.00  0.00    +0.000 C 
ATOM      3  N   UNL     1       4.273   5.878  18.985  0.00  0.00    +0.000 N 
ATOM      4  C   UNL     1       3.610   7.048  18.409  0.00  0.00    +0.000 C 
ATOM      5  C   UNL     1       2.117   6.891  18.795  0.00  0.00    +0.000 C 
ENDROOT
BRANCH   3   6
ATOM      6  C   UNL     1       5.508   5.417  18.581  0.00  0.00    +0.000 A 
ATOM      7  N   UNL     1       6.542   5.519  19.457  0.00  0.00    +0.000 NA
ATOM      8  C   UNL     1       7.771   5.082  19.086  0.00  0.00    +0.000 A 
ATOM      9  C   UNL     1       8.059   4.545  17.845  0.00  0.00    +0.000 A 
ATOM     10  C   UNL     1       7.017   4.441  16.939  0.00  0.00    +0.000 A 
ATOM     11  C   UNL     1       5.743   4.874  17.308  0.00  0.00    +0.000 A 
ATOM     12  F   UNL     1       4.760   4.763  16.400  0.00  0.00    +0.000 F 
ENDBRANCH   3   6
BRANCH   5  13
ATOM     13  N   UNL     1       1.721   7.714  19.940  0.00  0.00    +0.000 N 
ATOM     14  C   UNL     1       1.177   8.966  19.761  0.00  0.00    +0.000 C 
ATOM     15  O   UNL     1       0.965   9.442  18.649  0.00  0.00    +0.000 OA
ATOM     16  H   UNL     1       2.061   7.453  20.856  0.00  0.00    +0.000 HD
BRANCH  14  17
ATOM     17  C   UNL     1       0.819   9.733  21.028  0.00  0.00    +0.000 C 
ATOM     18  C   UNL     1       0.457   8.796  22.181  0.00  0.00    +0.000 C 
ATOM     19  C   UNL     1       0.005   9.592  23.397  0.00  0.00    +0.000 C 
ATOM     20  O   UNL     1      -1.079  10.454  23.051  0.00  0.00    +0.000 OA
ATOM     21  C   UNL     1      -0.697  11.432  22.085  0.00  0.00    +0.000 C 
ATOM     22  C   UNL     1      -0.290  10.761  20.781  0.00  0.00    +0.000 C 
ENDBRANCH  14  17
ENDBRANCH   5  13
BRANCH   1  23
ATOM     23  C   UNL     1       1.560   4.597  17.849  0.00  0.00    +0.000 C 
BRANCH  23  25
ATOM     24  C   UNL     1       0.860   2.369  18.826  0.00  0.00    +0.000 C 
ATOM     25  C   UNL     1       1.872   3.101  17.960  0.00  0.00    +0.000 C 
ENDBRANCH  23  25
ENDBRANCH   1  23
TORSDOF 5
ENDMDL
MODEL 4
REMARK VINA RESULT:      -7.4      3.522      7.404
REMARK  Name = 
REMARK  6 active torsions:
REMARK  status: ('A' for Active; 'I' for Inactive)
REMARK    1  A    between atoms: C_1  and  C_2
REMARK    2  A    between atoms: C_2  and  C_3
REMARK    3  A    between atoms: C_3  and  C_4
REMARK    4  A    between atoms: N_6  and  C_7
REMARK    5  A    between atoms: C_15  and  N_16
REMARK    6  A    between atoms: C_17  and  C_19
REMARK                            x       y       z     vdW  Elec       q    Type
REMARK                         _______ _______ _______ _____ _____    ______ ____
ROOT
ATOM      1  C   UNL     1       3.489   4.142  18.229  0.00  0.00    +0.000 C 
ATOM      2  C   UNL     1       2.455   5.186  17.780  0.00  0.00    +0.000 C 
ATOM      3  N   UNL     1       3.119   6.467  17.962  0.00  0.00    +0.000 N 
ATOM      4  C   UNL     1       4.573   6.321  18.033  0.00  0.00    +0.000 C 
ATOM      5  C   UNL     1       4.831   4.802  17.863  0.00  0.00    +0.000 C 
ENDROOT
BRANCH   3   6
ATOM      6  C   UNL     1       2.432   7.566  18.431  0.00  0.00    +0.000 A 
ATOM      7  N   UNL     1       2.273   8.621  17.589  0.00  0.00    +0.000 NA
ATOM      8  C   UNL     1       1.610   9.722  18.023  0.00  0.00    +0.000 A 
ATOM      9  C   UNL     1       1.087   9.857  19.296  0.00  0.00    +0.000 A 
ATOM     10  C   UNL     1       1.247   8.793  20.167  0.00  0.00    +0.000 A 
ATOM     11  C   UNL     1       1.916   7.649  19.734  0.00  0.00    +0.000 A 
ATOM     12  F   UNL     1       2.057   6.640  20.608  0.00  0.00    +0.000 F 
ENDBRANCH   3   6
BRANCH   5  13
ATOM     13  N   UNL     1       5.249   4.429  16.510  0.00  0.00    +0.000 N 
ATOM     14  C   UNL     1       6.563   4.547  16.113  0.00  0.00    +0.000 C 
ATOM     15  O   UNL     1       7.449   4.934  16.870  0.00  0.00    +0.000 OA
ATOM     16  H   UNL     1       4.533   4.305  15.806  0.00  0.00    +0.000 HD
BRANCH  14  17
ATOM     17  C   UNL     1       6.872   4.143  14.677  0.00  0.00    +0.000 C 
ATOM     18  C   UNL     1       7.531   5.279  13.892  0.00  0.00    +0.000 C 
ATOM     19  C   UNL     1       7.731   4.880  12.437  0.00  0.00    +0.000 C 
ATOM     20  O   UNL     1       6.489   4.482  11.857  0.00  0.00    +0.000 OA
ATOM     21  C   UNL     1       5.949   3.323  12.491  0.00  0.00    +0.000 C 
ATOM     22  C   UNL     1       5.630   3.616  13.951  0.00  0.00    +0.000 C 
ENDBRANCH  14  17
ENDBRANCH   5  13
BRANCH   1  23
ATOM     23  C   UNL     1       3.425   3.810  19.735  0.00  0.00    +0.000 C 
BRANCH  23  25
ATOM     24  C   UNL     1       1.941   3.013  21.624  0.00  0.00    +0.000 C 
ATOM     25  C   UNL     1       2.167   3.024  20.122  0.00  0.00    +0.000 C 
ENDBRANCH  23  25
ENDBRANCH   1  23
TORSDOF 5
ENDMDL
MODEL 5
REMARK VINA RESULT:      -7.4      3.420      7.664
REMARK  Name = 
REMARK  6 active torsions:
REMARK  status: ('A' for Active; 'I' for Inactive)
REMARK    1  A    between atoms: C_1  and  C_2
REMARK    2  A    between atoms: C_2  and  C_3
REMARK    3  A    between atoms: C_3  and  C_4
REMARK    4  A    between atoms: N_6  and  C_7
REMARK    5  A    between atoms: C_15  and  N_16
REMARK    6  A    between atoms: C_17  and  C_19
REMARK                            x       y       z     vdW  Elec       q    Type
REMARK                         _______ _______ _______ _____ _____    ______ ____
ROOT
ATOM      1  C   UNL     1       3.058   3.992  18.030  0.00  0.00    +0.000 C 
ATOM      2  C   UNL     1       2.026   5.125  17.921  0.00  0.00    +0.000 C 
ATOM      3  N   UNL     1       2.755   6.327  18.294  0.00  0.00    +0.000 N 
ATOM      4  C   UNL     1       4.202   6.145  18.177  0.00  0.00    +0.000 C 
ATOM      5  C   UNL     1       4.382   4.692  17.668  0.00  0.00    +0.000 C 
ENDROOT
BRANCH   3   6
ATOM      6  C   UNL     1       2.163   7.315  19.052  0.00  0.00    +0.000 A 
ATOM      7  N   UNL     1       1.889   7.038  20.354  0.00  0.00    +0.000 NA
ATOM      8  C   UNL     1       1.298   7.986  21.123  0.00  0.00    +0.000 A 
ATOM      9  C   UNL     1       0.930   9.236  20.662  0.00  0.00    +0.000 A 
ATOM     10  C   UNL     1       1.196   9.530  19.336  0.00  0.00    +0.000 A 
ATOM     11  C   UNL     1       1.814   8.572  18.533  0.00  0.00    +0.000 A 
ATOM     12  F   UNL     1       2.051   8.891  17.251  0.00  0.00    +0.000 F 
ENDBRANCH   3   6
BRANCH   5  13
ATOM     13  N   UNL     1       4.645   4.606  16.230  0.00  0.00    +0.000 N 
ATOM     14  C   UNL     1       5.879   4.935  15.713  0.00  0.00    +0.000 C 
ATOM     15  O   UNL     1       6.821   5.281  16.420  0.00  0.00    +0.000 OA
ATOM     16  H   UNL     1       3.855   4.527  15.604  0.00  0.00    +0.000 HD
BRANCH  14  17
ATOM     17  C   UNL     1       6.027   4.821  14.201  0.00  0.00    +0.000 C 
ATOM     18  C   UNL     1       5.540   3.468  13.678  0.00  0.00    +0.000 C 
ATOM     19  C   UNL     1       5.798   3.346  12.183  0.00  0.00    +0.000 C 
ATOM     20  O   UNL     1       7.181   3.559  11.900  0.00  0.00    +0.000 OA
ATOM     21  C   UNL     1       7.600   4.880  12.244  0.00  0.00    +0.000 C 
ATOM     22  C   UNL     1       7.462   5.106  13.744  0.00  0.00    +0.000 C 
ENDBRANCH  14  17
ENDBRANCH   5  13
BRANCH   1  23
ATOM     23  C   UNL     1       3.134   3.351  19.432  0.00  0.00    +0.000 C 
BRANCH  23  25
ATOM     24  C   UNL     1       1.924   3.266  21.654  0.00  0.00    +0.000 C 
ATOM     25  C   UNL     1       1.777   3.303  20.142  0.00  0.00    +0.000 C 
ENDBRANCH  23  25
ENDBRANCH   1  23
TORSDOF 5
ENDMDL
MODEL 6
REMARK VINA RESULT:      -7.3      3.519      7.615
REMARK  Name = 
REMARK  6 active torsions:
REMARK  status: ('A' for Active; 'I' for Inactive)
REMARK    1  A    between atoms: C_1  and  C_2
REMARK    2  A    between atoms: C_2  and  C_3
REMARK    3  A    between atoms: C_3  and  C_4
REMARK    4  A    between atoms: N_6  and  C_7
REMARK    5  A    between atoms: C_15  and  N_16
REMARK    6  A    between atoms: C_17  and  C_19
REMARK                            x       y       z     vdW  Elec       q    Type
REMARK                         _______ _______ _______ _____ _____    ______ ____
ROOT
ATOM      1  C   UNL     1       3.549   4.158  18.199  0.00  0.00    +0.000 C 
ATOM      2  C   UNL     1       2.354   5.111  18.046  0.00  0.00    +0.000 C 
ATOM      3  N   UNL     1       2.917   6.441  18.214  0.00  0.00    +0.000 N 
ATOM      4  C   UNL     1       4.364   6.451  18.000  0.00  0.00    +0.000 C 
ATOM      5  C   UNL     1       4.726   4.985  17.650  0.00  0.00    +0.000 C 
ENDROOT
BRANCH   3   6
ATOM      6  C   UNL     1       2.233   7.423  18.899  0.00  0.00    +0.000 A 
ATOM      7  N   UNL     1       1.959   8.581  18.242  0.00  0.00    +0.000 NA
ATOM      8  C   UNL     1       1.295   9.570  18.890  0.00  0.00    +0.000 A 
ATOM      9  C   UNL     1       0.885   9.491  20.208  0.00  0.00    +0.000 A 
ATOM     10  C   UNL     1       1.164   8.320  20.893  0.00  0.00    +0.000 A 
ATOM     11  C   UNL     1       1.834   7.287  20.238  0.00  0.00    +0.000 A 
ATOM     12  F   UNL     1       2.092   6.170  20.936  0.00  0.00    +0.000 F 
ENDBRANCH   3   6
BRANCH   5  13
ATOM     13  N   UNL     1       4.906   4.755  16.215  0.00  0.00    +0.000 N 
ATOM     14  C   UNL     1       6.002   5.254  15.547  0.00  0.00    +0.000 C 
ATOM     15  O   UNL     1       6.893   5.882  16.114  0.00  0.00    +0.000 OA
ATOM     16  H   UNL     1       4.112   4.429  15.681  0.00  0.00    +0.000 HD
BRANCH  14  17
ATOM     17  C   UNL     1       6.071   4.963  14.053  0.00  0.00    +0.000 C 
ATOM     18  C   UNL     1       5.421   3.623  13.701  0.00  0.00    +0.000 C 
ATOM     19  C   UNL     1       5.599   3.314  12.221  0.00  0.00    +0.000 C 
ATOM     20  O   UNL     1       6.982   3.344  11.870  0.00  0.00    +0.000 OA
ATOM     21  C   UNL     1       7.552   4.639  12.052  0.00  0.00    +0.000 C 
ATOM     22  C   UNL     1       7.506   5.040  13.520  0.00  0.00    +0.000 C 
ENDBRANCH  14  17
ENDBRANCH   5  13
BRANCH   1  23
ATOM     23  C   UNL     1       3.811   3.717  19.655  0.00  0.00    +0.000 C 
BRANCH  23  25
ATOM     24  C   UNL     1       2.056   2.939  21.306  0.00  0.00    +0.000 C 
ATOM     25  C   UNL     1       2.907   2.564  20.103  0.00  0.00    +0.000 C 
ENDBRANCH  23  25
ENDBRANCH   1  23
TORSDOF 5
ENDMDL
MODEL 7
REMARK VINA RESULT:      -7.2      3.561      7.646
REMARK  Name = 
REMARK  6 active torsions:
REMARK  status: ('A' for Active; 'I' for Inactive)
REMARK    1  A    between atoms: C_1  and  C_2
REMARK    2  A    between atoms: C_2  and  C_3
REMARK    3  A    between atoms: C_3  and  C_4
REMARK    4  A    between atoms: N_6  and  C_7
REMARK    5  A    between atoms: C_15  and  N_16
REMARK    6  A    between atoms: C_17  and  C_19
REMARK                            x       y       z     vdW  Elec       q    Type
REMARK                         _______ _______ _______ _____ _____    ______ ____
ROOT
ATOM      1  C   UNL     1       3.366   4.326  18.192  0.00  0.00    +0.000 C 
ATOM      2  C   UNL     1       2.211   5.334  18.086  0.00  0.00    +0.000 C 
ATOM      3  N   UNL     1       2.822   6.626  18.352  0.00  0.00    +0.000 N 
ATOM      4  C   UNL     1       4.271   6.594  18.159  0.00  0.00    +0.000 C 
ATOM      5  C   UNL     1       4.583   5.141  17.717  0.00  0.00    +0.000 C 
ENDROOT
BRANCH   3   6
ATOM      6  C   UNL     1       2.165   7.587  19.092  0.00  0.00    +0.000 A 
ATOM      7  N   UNL     1       1.896   7.312  20.395  0.00  0.00    +0.000 NA
ATOM      8  C   UNL     1       1.244   8.233  21.147  0.00  0.00    +0.000 A 
ATOM      9  C   UNL     1       0.807   9.453  20.666  0.00  0.00    +0.000 A 
ATOM     10  C   UNL     1       1.068   9.746  19.338  0.00  0.00    +0.000 A 
ATOM     11  C   UNL     1       1.749   8.815  18.553  0.00  0.00    +0.000 A 
ATOM     12  F   UNL     1       1.978   9.131  17.269  0.00  0.00    +0.000 F 
ENDBRANCH   3   6
BRANCH   5  13
ATOM     13  N   UNL     1       4.778   5.001  16.272  0.00  0.00    +0.000 N 
ATOM     14  C   UNL     1       6.040   5.003  15.721  0.00  0.00    +0.000 C 
ATOM     15  O   UNL     1       7.059   5.087  16.403  0.00  0.00    +0.000 OA
ATOM     16  H   UNL     1       3.978   5.135  15.667  0.00  0.00    +0.000 HD
BRANCH  14  17
ATOM     17  C   UNL     1       6.115   4.866  14.206  0.00  0.00    +0.000 C 
ATOM     18  C   UNL     1       5.592   3.510  13.728  0.00  0.00    +0.000 C 
ATOM     19  C   UNL     1       5.776   3.364  12.223  0.00  0.00    +0.000 C 
ATOM     20  O   UNL     1       7.145   3.561  11.871  0.00  0.00    +0.000 OA
ATOM     21  C   UNL     1       7.591   4.883  12.175  0.00  0.00    +0.000 C 
ATOM     22  C   UNL     1       7.528   5.132  13.676  0.00  0.00    +0.000 C 
ENDBRANCH  14  17
ENDBRANCH   5  13
BRANCH   1  23
ATOM     23  C   UNL     1       3.586   3.779  19.619  0.00  0.00    +0.000 C 
BRANCH  23  25
ATOM     24  C   UNL     1       3.530   1.547  18.426  0.00  0.00    +0.000 C 
ATOM     25  C   UNL     1       4.037   2.315  19.635  0.00  0.00    +0.000 C 
ENDBRANCH  23  25
ENDBRANCH   1  23
TORSDOF 5
ENDMDL
MODEL 8
REMARK VINA RESULT:      -7.1      3.110      7.417
REMARK  Name = 
REMARK  6 active torsions:
REMARK  status: ('A' for Active; 'I' for Inactive)
REMARK    1  A    between atoms: C_1  and  C_2
REMARK    2  A    between atoms: C_2  and  C_3
REMARK    3  A    between atoms: C_3  and  C_4
REMARK    4  A    between atoms: N_6  and  C_7
REMARK    5  A    between atoms: C_15  and  N_16
REMARK    6  A    between atoms: C_17  and  C_19
REMARK                            x       y       z     vdW  Elec       q    Type
REMARK                         _______ _______ _______ _____ _____    ______ ____
ROOT
ATOM      1  C   UNL     1       3.419   3.265  18.233  0.00  0.00    +0.000 C 
ATOM      2  C   UNL     1       2.475   4.431  17.904  0.00  0.00    +0.000 C 
ATOM      3  N   UNL     1       3.206   5.623  18.304  0.00  0.00    +0.000 N 
ATOM      4  C   UNL     1       4.642   5.371  18.411  0.00  0.00    +0.000 C 
ATOM      5  C   UNL     1       4.816   3.879  18.026  0.00  0.00    +0.000 C 
ENDROOT
BRANCH   3   6
ATOM      6  C   UNL     1       2.564   6.686  18.904  0.00  0.00    +0.000 A 
ATOM      7  N   UNL     1       2.089   6.511  20.165  0.00  0.00    +0.000 NA
ATOM      8  C   UNL     1       1.445   7.535  20.779  0.00  0.00    +0.000 A 
ATOM      9  C   UNL     1       1.217   8.767  20.194  0.00  0.00    +0.000 A 
ATOM     10  C   UNL     1       1.690   8.958  18.906  0.00  0.00    +0.000 A 
ATOM     11  C   UNL     1       2.365   7.920  18.264  0.00  0.00    +0.000 A 
ATOM     12  F   UNL     1       2.803   8.140  17.015  0.00  0.00    +0.000 F 
ENDBRANCH   3   6
BRANCH   5  13
ATOM     13  N   UNL     1       5.277   3.682  16.650  0.00  0.00    +0.000 N 
ATOM     14  C   UNL     1       6.421   4.296  16.190  0.00  0.00    +0.000 C 
ATOM     15  O   UNL     1       7.125   5.005  16.904  0.00  0.00    +0.000 OA
ATOM     16  H   UNL     1       4.632   3.283  15.982  0.00  0.00    +0.000 HD
BRANCH  14  17
ATOM     17  C   UNL     1       6.791   4.028  14.736  0.00  0.00    +0.000 C 
ATOM     18  C   UNL     1       7.489   5.227  14.093  0.00  0.00    +0.000 C 
ATOM     19  C   UNL     1       7.751   4.966  12.616  0.00  0.00    +0.000 C 
ATOM     20  O   UNL     1       6.534   4.637  11.947  0.00  0.00    +0.000 OA
ATOM     21  C   UNL     1       5.961   3.427  12.444  0.00  0.00    +0.000 C 
ATOM     22  C   UNL     1       5.580   3.583  13.910  0.00  0.00    +0.000 C 
ENDBRANCH  14  17
ENDBRANCH   5  13
BRANCH   1  23
ATOM     23  C   UNL     1       3.259   2.720  19.669  0.00  0.00    +0.000 C 
BRANCH  23  25
ATOM     24  C   UNL     1       1.625   2.905  21.593  0.00  0.00    +0.000 C 
ATOM     25  C   UNL     1       1.795   2.618  20.110  0.00  0.00    +0.000 C 
ENDBRANCH  23  25
ENDBRANCH   1  23
TORSDOF 5
ENDMDL
MODEL 9
REMARK VINA RESULT:      -7.0      4.382      6.206
REMARK  Name = 
REMARK  6 active torsions:
REMARK  status: ('A' for Active; 'I' for Inactive)
REMARK    1  A    between atoms: C_1  and  C_2
REMARK    2  A    between atoms: C_2  and  C_3
REMARK    3  A    between atoms: C_3  and  C_4
REMARK    4  A    between atoms: N_6  and  C_7
REMARK    5  A    between atoms: C_15  and  N_16
REMARK    6  A    between atoms: C_17  and  C_19
REMARK                            x       y       z     vdW  Elec       q    Type
REMARK                         _______ _______ _______ _____ _____    ______ ____
ROOT
ATOM      1  C   UNL     1       2.029   5.206  19.068  0.00  0.00    +0.000 C 
ATOM      2  C   UNL     1       3.506   4.966  19.417  0.00  0.00    +0.000 C 
ATOM      3  N   UNL     1       4.245   5.837  18.518  0.00  0.00    +0.000 N 
ATOM      4  C   UNL     1       3.404   6.907  17.982  0.00  0.00    +0.000 C 
ATOM      5  C   UNL     1       2.012   6.681  18.625  0.00  0.00    +0.000 C 
ENDROOT
BRANCH   3   6
ATOM      6  C   UNL     1       5.431   5.429  17.944  0.00  0.00    +0.000 A 
ATOM      7  N   UNL     1       5.418   5.100  16.626  0.00  0.00    +0.000 NA
ATOM      8  C   UNL     1       6.567   4.687  16.034  0.00  0.00    +0.000 A 
ATOM      9  C   UNL     1       7.773   4.557  16.696  0.00  0.00    +0.000 A 
ATOM     10  C   UNL     1       7.801   4.883  18.042  0.00  0.00    +0.000 A 
ATOM     11  C   UNL     1       6.632   5.321  18.663  0.00  0.00    +0.000 A 
ATOM     12  F   UNL     1       6.696   5.622  19.970  0.00  0.00    +0.000 F 
ENDBRANCH   3   6
BRANCH   5  13
ATOM     13  N   UNL     1       1.743   7.567  19.760  0.00  0.00    +0.000 N 
ATOM     14  C   UNL     1       1.241   8.835  19.567  0.00  0.00    +0.000 C 
ATOM     15  O   UNL     1       0.964   9.275  18.455  0.00  0.00    +0.000 OA
ATOM     16  H   UNL     1       2.142   7.328  20.657  0.00  0.00    +0.000 HD
BRANCH  14  17
ATOM     17  C   UNL     1       1.018   9.669  20.823  0.00  0.00    +0.000 C 
ATOM     18  C   UNL     1       0.390   8.847  21.951  0.00  0.00    +0.000 C 
ATOM     19  C   UNL     1       0.084   9.731  23.152  0.00  0.00    +0.000 C 
ATOM     20  O   UNL     1      -0.747  10.825  22.764  0.00  0.00    +0.000 OA
ATOM     21  C   UNL     1      -0.099  11.682  21.825  0.00  0.00    +0.000 C 
ATOM     22  C   UNL     1       0.197  10.930  20.534  0.00  0.00    +0.000 C 
ENDBRANCH  14  17
ENDBRANCH   5  13
BRANCH   1  23
ATOM     23  C   UNL     1       1.496   4.284  17.950  0.00  0.00    +0.000 C 
BRANCH  23  25
ATOM     24  C   UNL     1       0.769   2.875  19.924  0.00  0.00    +0.000 C 
ATOM     25  C   UNL     1       1.143   2.879  18.451  0.00  0.00    +0.000 C 
ENDBRANCH  23  25
ENDBRANCH   1  23
TORSDOF 5
ENDMDL
