MODEL 1
REMARK VINA RESULT:      -7.3      0.000      0.000
REMARK  Name = 
REMARK  9 active torsions:
REMARK  status: ('A' for Active; 'I' for Inactive)
REMARK    1  A    between atoms: C_1  and  C_2
REMARK    2  A    between atoms: C_6  and  C_7
REMARK    3  A    between atoms: N_9  and  C_10
REMARK    4  A    between atoms: C_15  and  C_16
REMARK    5  A    between atoms: N_17  and  O_18
REMARK    6  A    between atoms: O_18  and  C_19
REMARK    7  A    between atoms: C_19  and  C_20
REMARK    8  A    between atoms: C_19  and  C_21
REMARK    9  A    between atoms: C_19  and  C_22
REMARK                            x       y       z     vdW  Elec       q    Type
REMARK                         _______ _______ _______ _____ _____    ______ ____
ROOT
ATOM      1  C   UNL     1       1.481   8.435  20.447  0.00  0.00    +0.000 A 
ATOM      2  C   UNL     1       1.463   8.547  21.836  0.00  0.00    +0.000 A 
ATOM      3  C   UNL     1       0.642   9.486  22.468  0.00  0.00    +0.000 A 
ATOM      4  C   UNL     1      -0.179  10.334  21.720  0.00  0.00    +0.000 A 
ATOM      5 CL   UNL     1      -1.194  11.426  22.590  0.00  0.00    +0.000 Cl
ATOM      6  C   UNL     1      -0.152  10.259  20.326  0.00  0.00    +0.000 A 
ATOM      7  C   UNL     1       0.700   9.324  19.696  0.00  0.00    +0.000 A 
ENDROOT
BRANCH   1  10
ATOM      8  C   UNL     1       2.214   6.084  19.944  0.00  0.00    +0.000 C 
ATOM      9  O   UNL     1       1.477   5.527  20.756  0.00  0.00    +0.000 OA
ATOM     10  N   UNL     1       2.241   7.464  19.757  0.00  0.00    +0.000 N 
ATOM     11  H   UNL     1       2.788   7.784  18.966  0.00  0.00    +0.000 HD
BRANCH   8  17
ATOM     12  C   UNL     1       1.341   4.137  17.587  0.00  0.00    +0.000 C 
ATOM     13  C   UNL     1       2.740   4.446  18.029  0.00  0.00    +0.000 A 
ATOM     14  C   UNL     1       3.896   3.867  17.403  0.00  0.00    +0.000 A 
ATOM     15  C   UNL     1       5.070   4.296  17.962  0.00  0.00    +0.000 A 
ATOM     16  S   UNL     1       4.811   5.387  19.242  0.00  0.00    +0.000 S 
ATOM     17  C   UNL     1       3.101   5.309  19.064  0.00  0.00    +0.000 A 
ENDBRANCH   8  17
ENDBRANCH   1  10
BRANCH   6  18
ATOM     18  C   UNL     1      -1.011  11.124  19.480  0.00  0.00    +0.000 C 
ATOM     19  N   UNL     1      -1.465  10.676  18.354  0.00  0.00    +0.000 NA
BRANCH  19  20
ATOM     20  O   UNL     1      -2.252  11.643  17.701  0.00  0.00    +0.000 OA
BRANCH  20  21
ATOM     21  C   UNL     1      -3.304  10.973  16.970  0.00  0.00    +0.000 C 
ATOM     22  C   UNL     1      -2.948  10.904  15.478  0.00  0.00    +0.000 C 
ATOM     23  C   UNL     1      -3.423   9.544  17.517  0.00  0.00    +0.000 C 
ATOM     24  C   UNL     1      -4.638  11.699  17.194  0.00  0.00    +0.000 C 
ENDBRANCH  20  21
ENDBRANCH  19  20
ENDBRANCH   6  18
TORSDOF 5
ENDMDL
MODEL 2
REMARK VINA RESULT:      -6.9      0.972      1.306
REMARK  Name = 
REMARK  9 active torsions:
REMARK  status: ('A' for Active; 'I' for Inactive)
REMARK    1  A    between atoms: C_1  and  C_2
REMARK    2  A    between atoms: C_6  and  C_7
REMARK    3  A    between atoms: N_9  and  C_10
REMARK    4  A    between atoms: C_15  and  C_16
REMARK    5  A    between atoms: N_17  and  O_18
REMARK    6  A    between atoms: O_18  and  C_19
REMARK    7  A    between atoms: C_19  and  C_20
REMARK    8  A    between atoms: C_19  and  C_21
REMARK    9  A    between atoms: C_19  and  C_22
REMARK                            x       y       z     vdW  Elec       q    Type
REMARK                         _______ _______ _______ _____ _____    ______ ____
ROOT
ATOM      1  C   UNL     1       1.456   8.337  20.566  0.00  0.00    +0.000 A 
ATOM      2  C   UNL     1       1.363   8.721  21.903  0.00  0.00    +0.000 A 
ATOM      3  C   UNL     1       0.623   9.848  22.274  0.00  0.00    +0.000 A 
ATOM      4  C   UNL     1      -0.040  10.615  21.311  0.00  0.00    +0.000 A 
ATOM      5 CL   UNL     1      -0.969  11.958  21.871  0.00  0.00    +0.000 Cl
ATOM      6  C   UNL     1       0.068  10.265  19.964  0.00  0.00    +0.000 A 
ATOM      7  C   UNL     1       0.838   9.139  19.597  0.00  0.00    +0.000 A 
ENDROOT
BRANCH   1  10
ATOM      8  C   UNL     1       2.748   6.963  18.905  0.00  0.00    +0.000 C 
ATOM      9  O   UNL     1       2.785   7.811  18.016  0.00  0.00    +0.000 OA
ATOM     10  N   UNL     1       2.136   7.174  20.138  0.00  0.00    +0.000 N 
ATOM     11  H   UNL     1       2.294   6.451  20.831  0.00  0.00    +0.000 HD
BRANCH   8  17
ATOM     12  C   UNL     1       1.471   4.325  17.673  0.00  0.00    +0.000 C 
ATOM     13  C   UNL     1       2.862   4.487  18.208  0.00  0.00    +0.000 A 
ATOM     14  C   UNL     1       3.817   3.415  18.223  0.00  0.00    +0.000 A 
ATOM     15  C   UNL     1       5.025   3.789  18.748  0.00  0.00    +0.000 A 
ATOM     16  S   UNL     1       5.035   5.419  19.236  0.00  0.00    +0.000 S 
ATOM     17  C   UNL     1       3.404   5.657  18.740  0.00  0.00    +0.000 A 
ENDBRANCH   8  17
ENDBRANCH   1  10
BRANCH   6  18
ATOM     18  C   UNL     1      -0.625  11.034  18.900  0.00  0.00    +0.000 C 
ATOM     19  N   UNL     1      -1.909  10.936  18.768  0.00  0.00    +0.000 NA
BRANCH  19  20
ATOM     20  O   UNL     1      -2.374  11.732  17.706  0.00  0.00    +0.000 OA
BRANCH  20  21
ATOM     21  C   UNL     1      -3.343  10.977  16.945  0.00  0.00    +0.000 C 
ATOM     22  C   UNL     1      -4.680  11.731  16.897  0.00  0.00    +0.000 C 
ATOM     23  C   UNL     1      -2.808  10.826  15.515  0.00  0.00    +0.000 C 
ATOM     24  C   UNL     1      -3.512   9.579  17.558  0.00  0.00    +0.000 C 
ENDBRANCH  20  21
ENDBRANCH  19  20
ENDBRANCH   6  18
TORSDOF 5
ENDMDL
MODEL 3
REMARK VINA RESULT:      -6.9      1.124      1.124
REMARK  Name = 
REMARK  9 active torsions:
REMARK  status: ('A' for Active; 'I' for Inactive)
REMARK    1  A    between atoms: C_1  and  C_2
REMARK    2  A    between atoms: C_6  and  C_7
REMARK    3  A    between atoms: N_9  and  C_10
REMARK    4  A    between atoms: C_15  and  C_16
REMARK    5  A    between atoms: N_17  and  O_18
REMARK    6  A    between atoms: O_18  and  C_19
REMARK    7  A    between atoms: C_19  and  C_20
REMARK    8  A    between atoms: C_19  and  C_21
REMARK    9  A    between atoms: C_19  and  C_22
REMARK                            x       y       z     vdW  Elec       q    Type
REMARK                         _______ _______ _______ _____ _____    ______ ____
ROOT
ATOM      1  C   UNL     1       1.566   8.256  20.293  0.00  0.00    +0.000 A 
ATOM      2  C   UNL     1       1.523   8.424  21.676  0.00  0.00    +0.000 A 
ATOM      3  C   UNL     1       0.754   9.441  22.250  0.00  0.00    +0.000 A 
ATOM      4  C   UNL     1       0.012  10.313  21.449  0.00  0.00    +0.000 A 
ATOM      5 CL   UNL     1      -0.944  11.505  22.251  0.00  0.00    +0.000 Cl
ATOM      6  C   UNL     1       0.067  10.182  20.060  0.00  0.00    +0.000 A 
ATOM      7  C   UNL     1       0.866   9.166  19.489  0.00  0.00    +0.000 A 
ENDROOT
BRANCH   1  10
ATOM      8  C   UNL     1       2.821   7.218  18.379  0.00  0.00    +0.000 C 
ATOM      9  O   UNL     1       2.766   8.189  17.628  0.00  0.00    +0.000 OA
ATOM     10  N   UNL     1       2.273   7.209  19.660  0.00  0.00    +0.000 N 
ATOM     11  H   UNL     1       2.505   6.400  20.226  0.00  0.00    +0.000 HD
BRANCH   8  17
ATOM     12  C   UNL     1       1.520   4.387  17.746  0.00  0.00    +0.000 C 
ATOM     13  C   UNL     1       2.977   4.737  17.708  0.00  0.00    +0.000 A 
ATOM     14  C   UNL     1       3.995   3.784  17.364  0.00  0.00    +0.000 A 
ATOM     15  C   UNL     1       5.253   4.322  17.385  0.00  0.00    +0.000 A 
ATOM     16  S   UNL     1       5.240   5.967  17.821  0.00  0.00    +0.000 S 
ATOM     17  C   UNL     1       3.526   5.989  17.985  0.00  0.00    +0.000 A 
ENDBRANCH   8  17
ENDBRANCH   1  10
BRANCH   6  18
ATOM     18  C   UNL     1      -0.710  11.070  19.160  0.00  0.00    +0.000 C 
ATOM     19  N   UNL     1      -1.836  10.662  18.670  0.00  0.00    +0.000 NA
BRANCH  19  20
ATOM     20  O   UNL     1      -2.415  11.640  17.841  0.00  0.00    +0.000 OA
BRANCH  20  21
ATOM     21  C   UNL     1      -3.386  11.006  16.978  0.00  0.00    +0.000 C 
ATOM     22  C   UNL     1      -2.840  10.920  15.545  0.00  0.00    +0.000 C 
ATOM     23  C   UNL     1      -3.627   9.585  17.502  0.00  0.00    +0.000 C 
ATOM     24  C   UNL     1      -4.710  11.781  17.026  0.00  0.00    +0.000 C 
ENDBRANCH  20  21
ENDBRANCH  19  20
ENDBRANCH   6  18
TORSDOF 5
ENDMDL
MODEL 4
REMARK VINA RESULT:      -6.8      3.906      8.111
REMARK  Name = 
REMARK  9 active torsions:
REMARK  status: ('A' for Active; 'I' for Inactive)
REMARK    1  A    between atoms: C_1  and  C_2
REMARK    2  A    between atoms: C_6  and  C_7
REMARK    3  A    between atoms: N_9  and  C_10
REMARK    4  A    between atoms: C_15  and  C_16
REMARK    5  A    between atoms: N_17  and  O_18
REMARK    6  A    between atoms: O_18  and  C_19
REMARK    7  A    between atoms: C_19  and  C_20
REMARK    8  A    between atoms: C_19  and  C_21
REMARK    9  A    between atoms: C_19  and  C_22
REMARK                            x       y       z     vdW  Elec       q    Type
REMARK                         _______ _______ _______ _____ _____    ______ ____
ROOT
ATOM      1  C   UNL     1       1.969   5.316  20.419  0.00  0.00    +0.000 A 
ATOM      2  C   UNL     1       2.108   4.272  21.332  0.00  0.00    +0.000 A 
ATOM      3  C   UNL     1       2.713   3.068  20.957  0.00  0.00    +0.000 A 
ATOM      4  C   UNL     1       3.192   2.885  19.657  0.00  0.00    +0.000 A 
ATOM      5 CL   UNL     1       3.968   1.385  19.303  0.00  0.00    +0.000 Cl
ATOM      6  C   UNL     1       3.034   3.907  18.719  0.00  0.00    +0.000 A 
ATOM      7  C   UNL     1       2.400   5.110  19.101  0.00  0.00    +0.000 A 
ENDROOT
BRANCH   1  10
ATOM      8  C   UNL     1       1.685   7.797  20.139  0.00  0.00    +0.000 C 
ATOM      9  O   UNL     1       2.437   7.920  19.175  0.00  0.00    +0.000 OA
ATOM     10  N   UNL     1       1.425   6.575  20.756  0.00  0.00    +0.000 N 
ATOM     11  H   UNL     1       0.684   6.588  21.448  0.00  0.00    +0.000 HD
BRANCH   8  17
ATOM     12  C   UNL     1       0.090  10.006  18.501  0.00  0.00    +0.000 C 
ATOM     13  C   UNL     1       0.255   9.933  19.988  0.00  0.00    +0.000 A 
ATOM     14  C   UNL     1      -0.319  10.901  20.881  0.00  0.00    +0.000 A 
ATOM     15  C   UNL     1      -0.049  10.634  22.197  0.00  0.00    +0.000 A 
ATOM     16  S   UNL     1       0.897   9.232  22.385  0.00  0.00    +0.000 S 
ATOM     17  C   UNL     1       0.956   8.950  20.688  0.00  0.00    +0.000 A 
ENDBRANCH   8  17
ENDBRANCH   1  10
BRANCH   6  18
ATOM     18  C   UNL     1       3.536   3.774  17.328  0.00  0.00    +0.000 C 
ATOM     19  N   UNL     1       4.801   3.899  17.086  0.00  0.00    +0.000 NA
BRANCH  19  20
ATOM     20  O   UNL     1       5.075   3.746  15.715  0.00  0.00    +0.000 OA
BRANCH  20  21
ATOM     21  C   UNL     1       6.079   4.711  15.328  0.00  0.00    +0.000 C 
ATOM     22  C   UNL     1       6.589   4.403  13.913  0.00  0.00    +0.000 C 
ATOM     23  C   UNL     1       5.425   6.099  15.329  0.00  0.00    +0.000 C 
ATOM     24  C   UNL     1       7.226   4.707  16.349  0.00  0.00    +0.000 C 
ENDBRANCH  20  21
ENDBRANCH  19  20
ENDBRANCH   6  18
TORSDOF 5
ENDMDL
MODEL 5
REMARK VINA RESULT:      -6.7      3.034      4.066
REMARK  Name = 
REMARK  9 active torsions:
REMARK  status: ('A' for Active; 'I' for Inactive)
REMARK    1  A    between atoms: C_1  and  C_2
REMARK    2  A    between atoms: C_6  and  C_7
REMARK    3  A    between atoms: N_9  and  C_10
REMARK    4  A    between atoms: C_15  and  C_16
REMARK    5  A    between atoms: N_17  and  O_18
REMARK    6  A    between atoms: O_18  and  C_19
REMARK    7  A    between atoms: C_19  and  C_20
REMARK    8  A    between atoms: C_19  and  C_21
REMARK    9  A    between atoms: C_19  and  C_22
REMARK                            x       y       z     vdW  Elec       q    Type
REMARK                         _______ _______ _______ _____ _____    ______ ____
ROOT
ATOM      1  C   UNL     1       2.088   7.726  19.456  0.00  0.00    +0.000 A 
ATOM      2  C   UNL     1       2.332   8.383  18.252  0.00  0.00    +0.000 A 
ATOM      3  C   UNL     1       1.846   9.676  18.030  0.00  0.00    +0.000 A 
ATOM      4  C   UNL     1       1.104  10.337  19.013  0.00  0.00    +0.000 A 
ATOM      5 CL   UNL     1       0.591  11.948  18.667  0.00  0.00    +0.000 Cl
ATOM      6  C   UNL     1       0.822   9.683  20.214  0.00  0.00    +0.000 A 
ATOM      7  C   UNL     1       1.296   8.368  20.418  0.00  0.00    +0.000 A 
ENDROOT
BRANCH   1  10
ATOM      8  C   UNL     1       2.419   5.269  19.040  0.00  0.00    +0.000 C 
ATOM      9  O   UNL     1       1.771   5.212  17.998  0.00  0.00    +0.000 OA
ATOM     10  N   UNL     1       2.605   6.446  19.762  0.00  0.00    +0.000 N 
ATOM     11  H   UNL     1       3.271   6.388  20.524  0.00  0.00    +0.000 HD
BRANCH   8  17
ATOM     12  C   UNL     1       1.252   3.197  21.150  0.00  0.00    +0.000 C 
ATOM     13  C   UNL     1       2.607   3.164  20.511  0.00  0.00    +0.000 A 
ATOM     14  C   UNL     1       3.574   2.141  20.796  0.00  0.00    +0.000 A 
ATOM     15  C   UNL     1       4.739   2.303  20.094  0.00  0.00    +0.000 A 
ATOM     16  S   UNL     1       4.698   3.678  19.092  0.00  0.00    +0.000 S 
ATOM     17  C   UNL     1       3.098   4.082  19.582  0.00  0.00    +0.000 A 
ENDBRANCH   8  17
ENDBRANCH   1  10
BRANCH   6  18
ATOM     18  C   UNL     1       0.051  10.341  21.298  0.00  0.00    +0.000 C 
ATOM     19  N   UNL     1       0.461  11.467  21.787  0.00  0.00    +0.000 NA
BRANCH  19  20
ATOM     20  O   UNL     1      -0.397  11.924  22.804  0.00  0.00    +0.000 OA
BRANCH  20  21
ATOM     21  C   UNL     1      -0.849  13.256  22.469  0.00  0.00    +0.000 C 
ATOM     22  C   UNL     1      -1.349  13.974  23.731  0.00  0.00    +0.000 C 
ATOM     23  C   UNL     1       0.345  14.031  21.898  0.00  0.00    +0.000 C 
ATOM     24  C   UNL     1      -1.946  13.180  21.398  0.00  0.00    +0.000 C 
ENDBRANCH  20  21
ENDBRANCH  19  20
ENDBRANCH   6  18
TORSDOF 5
ENDMDL
MODEL 6
REMARK VINA RESULT:      -6.6      1.327      1.529
REMARK  Name = 
REMARK  9 active torsions:
REMARK  status: ('A' for Active; 'I' for Inactive)
REMARK    1  A    between atoms: C_1  and  C_2
REMARK    2  A    between atoms: C_6  and  C_7
REMARK    3  A    between atoms: N_9  and  C_10
REMARK    4  A    between atoms: C_15  and  C_16
REMARK    5  A    between atoms: N_17  and  O_18
REMARK    6  A    between atoms: O_18  and  C_19
REMARK    7  A    between atoms: C_19  and  C_20
REMARK    8  A    between atoms: C_19  and  C_21
REMARK    9  A    between atoms: C_19  and  C_22
REMARK                            x       y       z     vdW  Elec       q    Type
REMARK                         _______ _______ _______ _____ _____    ______ ____
ROOT
ATOM      1  C   UNL     1       0.941   8.643  21.150  0.00  0.00    +0.000 A 
ATOM      2  C   UNL     1       0.819   8.953  22.503  0.00  0.00    +0.000 A 
ATOM      3  C   UNL     1       0.019  10.020  22.924  0.00  0.00    +0.000 A 
ATOM      4  C   UNL     1      -0.675  10.801  21.996  0.00  0.00    +0.000 A 
ATOM      5 CL   UNL     1      -1.675  12.064  22.614  0.00  0.00    +0.000 Cl
ATOM      6  C   UNL     1      -0.541  10.526  20.633  0.00  0.00    +0.000 A 
ATOM      7  C   UNL     1       0.289   9.461  20.217  0.00  0.00    +0.000 A 
ENDROOT
BRANCH   1  10
ATOM      8  C   UNL     1       2.283   7.409  19.420  0.00  0.00    +0.000 C 
ATOM      9  O   UNL     1       2.252   8.288  18.561  0.00  0.00    +0.000 OA
ATOM     10  N   UNL     1       1.682   7.540  20.670  0.00  0.00    +0.000 N 
ATOM     11  H   UNL     1       1.897   6.804  21.334  0.00  0.00    +0.000 HD
BRANCH   8  17
ATOM     12  C   UNL     1       4.494   6.851  17.205  0.00  0.00    +0.000 C 
ATOM     13  C   UNL     1       3.983   5.885  18.230  0.00  0.00    +0.000 A 
ATOM     14  C   UNL     1       4.461   4.534  18.330  0.00  0.00    +0.000 A 
ATOM     15  C   UNL     1       3.862   3.833  19.342  0.00  0.00    +0.000 A 
ATOM     16  S   UNL     1       2.719   4.773  20.183  0.00  0.00    +0.000 S 
ATOM     17  C   UNL     1       3.015   6.153  19.198  0.00  0.00    +0.000 A 
ENDBRANCH   8  17
ENDBRANCH   1  10
BRANCH   6  18
ATOM     18  C   UNL     1      -1.264  11.312  19.603  0.00  0.00    +0.000 C 
ATOM     19  N   UNL     1      -1.504  10.788  18.445  0.00  0.00    +0.000 NA
BRANCH  19  20
ATOM     20  O   UNL     1      -2.192  11.688  17.610  0.00  0.00    +0.000 OA
BRANCH  20  21
ATOM     21  C   UNL     1      -3.242  10.975  16.919  0.00  0.00    +0.000 C 
ATOM     22  C   UNL     1      -2.898  10.845  15.429  0.00  0.00    +0.000 C 
ATOM     23  C   UNL     1      -3.342   9.571  17.530  0.00  0.00    +0.000 C 
ATOM     24  C   UNL     1      -4.583  11.697  17.123  0.00  0.00    +0.000 C 
ENDBRANCH  20  21
ENDBRANCH  19  20
ENDBRANCH   6  18
TORSDOF 5
ENDMDL
MODEL 7
REMARK VINA RESULT:      -6.6      0.954      1.422
REMARK  Name = 
REMARK  9 active torsions:
REMARK  status: ('A' for Active; 'I' for Inactive)
REMARK    1  A    between atoms: C_1  and  C_2
REMARK    2  A    between atoms: C_6  and  C_7
REMARK    3  A    between atoms: N_9  and  C_10
REMARK    4  A    between atoms: C_15  and  C_16
REMARK    5  A    between atoms: N_17  and  O_18
REMARK    6  A    between atoms: O_18  and  C_19
REMARK    7  A    between atoms: C_19  and  C_20
REMARK    8  A    between atoms: C_19  and  C_21
REMARK    9  A    between atoms: C_19  and  C_22
REMARK                            x       y       z     vdW  Elec       q    Type
REMARK                         _______ _______ _______ _____ _____    ______ ____
ROOT
ATOM      1  C   UNL     1       1.508   8.385  20.644  0.00  0.00    +0.000 A 
ATOM      2  C   UNL     1       1.285   8.629  21.997  0.00  0.00    +0.000 A 
ATOM      3  C   UNL     1       0.424   9.652  22.409  0.00  0.00    +0.000 A 
ATOM      4  C   UNL     1      -0.232  10.453  21.469  0.00  0.00    +0.000 A 
ATOM      5 CL   UNL     1      -1.312  11.656  22.072  0.00  0.00    +0.000 Cl
ATOM      6  C   UNL     1       0.003  10.245  20.109  0.00  0.00    +0.000 A 
ATOM      7  C   UNL     1       0.894   9.225  19.704  0.00  0.00    +0.000 A 
ENDROOT
BRANCH   1  10
ATOM      8  C   UNL     1       2.010   5.968  20.168  0.00  0.00    +0.000 C 
ATOM      9  O   UNL     1       0.944   5.517  20.583  0.00  0.00    +0.000 OA
ATOM     10  N   UNL     1       2.316   7.328  20.168  0.00  0.00    +0.000 N 
ATOM     11  H   UNL     1       3.165   7.581  19.675  0.00  0.00    +0.000 HD
BRANCH   8  17
ATOM     12  C   UNL     1       3.905   6.616  17.699  0.00  0.00    +0.000 C 
ATOM     13  C   UNL     1       3.873   5.351  18.502  0.00  0.00    +0.000 A 
ATOM     14  C   UNL     1       4.739   4.238  18.230  0.00  0.00    +0.000 A 
ATOM     15  C   UNL     1       4.543   3.192  19.092  0.00  0.00    +0.000 A 
ATOM     16  S   UNL     1       3.322   3.519  20.231  0.00  0.00    +0.000 S 
ATOM     17  C   UNL     1       3.035   5.089  19.586  0.00  0.00    +0.000 A 
ENDBRANCH   8  17
ENDBRANCH   1  10
BRANCH   6  18
ATOM     18  C   UNL     1      -0.676  11.055  19.067  0.00  0.00    +0.000 C 
ATOM     19  N   UNL     1      -1.914  10.819  18.775  0.00  0.00    +0.000 NA
BRANCH  19  20
ATOM     20  O   UNL     1      -2.373  11.684  17.764  0.00  0.00    +0.000 OA
BRANCH  20  21
ATOM     21  C   UNL     1      -3.355  10.988  16.964  0.00  0.00    +0.000 C 
ATOM     22  C   UNL     1      -4.683  11.758  16.974  0.00  0.00    +0.000 C 
ATOM     23  C   UNL     1      -2.830  10.922  15.524  0.00  0.00    +0.000 C 
ATOM     24  C   UNL     1      -3.535   9.556  17.489  0.00  0.00    +0.000 C 
ENDBRANCH  20  21
ENDBRANCH  19  20
ENDBRANCH   6  18
TORSDOF 5
ENDMDL
MODEL 8
REMARK VINA RESULT:      -6.5      1.891      2.602
REMARK  Name = 
REMARK  9 active torsions:
REMARK  status: ('A' for Active; 'I' for Inactive)
REMARK    1  A    between atoms: C_1  and  C_2
REMARK    2  A    between atoms: C_6  and  C_7
REMARK    3  A    between atoms: N_9  and  C_10
REMARK    4  A    between atoms: C_15  and  C_16
REMARK    5  A    between atoms: N_17  and  O_18
REMARK    6  A    between atoms: O_18  and  C_19
REMARK    7  A    between atoms: C_19  and  C_20
REMARK    8  A    between atoms: C_19  and  C_21
REMARK    9  A    between atoms: C_19  and  C_22
REMARK                            x       y       z     vdW  Elec       q    Type
REMARK                         _______ _______ _______ _____ _____    ______ ____
ROOT
ATOM      1  C   UNL     1       2.548   7.520  18.895  0.00  0.00    +0.000 A 
ATOM      2  C   UNL     1       2.341   7.192  20.233  0.00  0.00    +0.000 A 
ATOM      3  C   UNL     1       1.398   7.879  21.003  0.00  0.00    +0.000 A 
ATOM      4  C   UNL     1       0.641   8.914  20.445  0.00  0.00    +0.000 A 
ATOM      5 CL   UNL     1      -0.534   9.670  21.459  0.00  0.00    +0.000 Cl
ATOM      6  C   UNL     1       0.855   9.280  19.115  0.00  0.00    +0.000 A 
ATOM      7  C   UNL     1       1.828   8.594  18.353  0.00  0.00    +0.000 A 
ENDROOT
BRANCH   1  10
ATOM      8  C   UNL     1       4.437   5.927  18.438  0.00  0.00    +0.000 C 
ATOM      9  O   UNL     1       4.649   5.617  19.608  0.00  0.00    +0.000 OA
ATOM     10  N   UNL     1       3.440   6.820  18.052  0.00  0.00    +0.000 N 
ATOM     11  H   UNL     1       3.278   6.884  17.053  0.00  0.00    +0.000 HD
BRANCH   8  17
ATOM     12  C   UNL     1       7.276   6.862  17.356  0.00  0.00    +0.000 C 
ATOM     13  C   UNL     1       6.449   5.722  16.845  0.00  0.00    +0.000 A 
ATOM     14  C   UNL     1       6.871   4.885  15.756  0.00  0.00    +0.000 A 
ATOM     15  C   UNL     1       5.964   3.901  15.463  0.00  0.00    +0.000 A 
ATOM     16  S   UNL     1       4.598   3.966  16.474  0.00  0.00    +0.000 S 
ATOM     17  C   UNL     1       5.206   5.324  17.338  0.00  0.00    +0.000 A 
ENDBRANCH   8  17
ENDBRANCH   1  10
BRANCH   6  18
ATOM     18  C   UNL     1       0.071  10.360  18.467  0.00  0.00    +0.000 C 
ATOM     19  N   UNL     1      -1.104  10.103  17.988  0.00  0.00    +0.000 NA
BRANCH  19  20
ATOM     20  O   UNL     1      -1.680  11.250  17.412  0.00  0.00    +0.000 OA
BRANCH  20  21
ATOM     21  C   UNL     1      -3.049  10.955  17.054  0.00  0.00    +0.000 C 
ATOM     22  C   UNL     1      -3.229  11.055  15.532  0.00  0.00    +0.000 C 
ATOM     23  C   UNL     1      -3.354   9.518  17.496  0.00  0.00    +0.000 C 
ATOM     24  C   UNL     1      -3.999  11.910  17.792  0.00  0.00    +0.000 C 
ENDBRANCH  20  21
ENDBRANCH  19  20
ENDBRANCH   6  18
TORSDOF 5
ENDMDL
MODEL 9
REMARK VINA RESULT:      -6.5      3.981      8.233
REMARK  Name = 
REMARK  9 active torsions:
REMARK  status: ('A' for Active; 'I' for Inactive)
REMARK    1  A    between atoms: C_1  and  C_2
REMARK    2  A    between atoms: C_6  and  C_7
REMARK    3  A    between atoms: N_9  and  C_10
REMARK    4  A    between atoms: C_15  and  C_16
REMARK    5  A    between atoms: N_17  and  O_18
REMARK    6  A    between atoms: O_18  and  C_19
REMARK    7  A    between atoms: C_19  and  C_20
REMARK    8  A    between atoms: C_19  and  C_21
REMARK    9  A    between atoms: C_19  and  C_22
REMARK                            x       y       z     vdW  Elec       q    Type
REMARK                         _______ _______ _______ _____ _____    ______ ____
ROOT
ATOM      1  C   UNL     1       2.198   7.519  19.240  0.00  0.00    +0.000 A 
ATOM      2  C   UNL     1       2.133   6.412  20.084  0.00  0.00    +0.000 A 
ATOM      3  C   UNL     1       3.038   5.355  19.950  0.00  0.00    +0.000 A 
ATOM      4  C   UNL     1       4.029   5.384  18.965  0.00  0.00    +0.000 A 
ATOM      5 CL   UNL     1       5.130   4.057  18.909  0.00  0.00    +0.000 Cl
ATOM      6  C   UNL     1       4.091   6.470  18.088  0.00  0.00    +0.000 A 
ATOM      7  C   UNL     1       3.156   7.522  18.217  0.00  0.00    +0.000 A 
ENDROOT
BRANCH   1  10
ATOM      8  C   UNL     1       1.259   9.730  18.499  0.00  0.00    +0.000 C 
ATOM      9  O   UNL     1       1.917   9.826  17.465  0.00  0.00    +0.000 OA
ATOM     10  N   UNL     1       1.353   8.645  19.368  0.00  0.00    +0.000 N 
ATOM     11  H   UNL     1       0.661   8.620  20.108  0.00  0.00    +0.000 HD
BRANCH   8  17
ATOM     12  C   UNL     1      -1.707  10.017  17.390  0.00  0.00    +0.000 C 
ATOM     13  C   UNL     1      -1.031  10.901  18.394  0.00  0.00    +0.000 A 
ATOM     14  C   UNL     1      -1.683  12.031  18.995  0.00  0.00    +0.000 A 
ATOM     15  C   UNL     1      -0.882  12.691  19.889  0.00  0.00    +0.000 A 
ATOM     16  S   UNL     1       0.657  11.978  20.019  0.00  0.00    +0.000 S 
ATOM     17  C   UNL     1       0.271  10.754  18.871  0.00  0.00    +0.000 A 
ENDBRANCH   8  17
ENDBRANCH   1  10
BRANCH   6  18
ATOM     18  C   UNL     1       5.130   6.562  17.033  0.00  0.00    +0.000 C 
ATOM     19  N   UNL     1       4.943   5.974  15.895  0.00  0.00    +0.000 NA
BRANCH  19  20
ATOM     20  O   UNL     1       6.038   6.172  15.034  0.00  0.00    +0.000 OA
BRANCH  20  21
ATOM     21  C   UNL     1       6.580   4.885  14.662  0.00  0.00    +0.000 C 
ATOM     22  C   UNL     1       7.208   4.204  15.886  0.00  0.00    +0.000 C 
ATOM     23  C   UNL     1       5.423   4.016  14.151  0.00  0.00    +0.000 C 
ATOM     24  C   UNL     1       7.604   5.056  13.531  0.00  0.00    +0.000 C 
ENDBRANCH  20  21
ENDBRANCH  19  20
ENDBRANCH   6  18
TORSDOF 5
ENDMDL
