MODEL 1
REMARK VINA RESULT:     -10.6      0.000      0.000
REMARK  Name = 
REMARK  4 active torsions:
REMARK  status: ('A' for Active; 'I' for Inactive)
REMARK    1  A    between atoms: C_1  and  C_2
REMARK    2  A    between atoms: C_6  and  C_7
REMARK    3  A    between atoms: N_9  and  C_10
REMARK    4  A    between atoms: C_13  and  C_14
REMARK                            x       y       z     vdW  Elec       q    Type
REMARK                         _______ _______ _______ _____ _____    ______ ____
ROOT
ATOM      1  C   UNL     1       7.910   7.316  18.353  0.00  0.00    +0.000 A 
ATOM      2  C   UNL     1       7.882   6.072  18.989  0.00  0.00    +0.000 A 
ATOM      3  C   UNL     1       6.995   5.047  18.564  0.00  0.00    +0.000 A 
ATOM      4  C   UNL     1       6.110   5.225  17.479  0.00  0.00    +0.000 A 
ATOM      5  C   UNL     1       6.100   6.483  16.877  0.00  0.00    +0.000 A 
ATOM      6  C   UNL     1       6.997   7.501  17.296  0.00  0.00    +0.000 A 
ENDROOT
BRANCH   4   7
ATOM      7  C   UNL     1       5.122   4.131  17.140  0.00  0.00    +0.000 C 
ATOM      8  O   UNL     1       5.288   3.610  16.026  0.00  0.00    +0.000 OA
ATOM      9  N   UNL     1       4.129   3.622  18.031  0.00  0.00    +0.000 N 
ATOM     10  C   UNL     1       3.571   2.302  17.659  0.00  0.00    +0.000 C 
ATOM     11  C   UNL     1       3.158   1.497  18.881  0.00  0.00    +0.000 C 
ATOM     12  C   UNL     1       2.019   2.211  19.578  0.00  0.00    +0.000 C 
ATOM     13  C   UNL     1       2.251   3.700  19.657  0.00  0.00    +0.000 A 
ATOM     14  C   UNL     1       1.318   4.425  20.426  0.00  0.00    +0.000 A 
ATOM     15  C   UNL     1       1.432   5.800  20.550  0.00  0.00    +0.000 A 
ATOM     16  C   UNL     1       2.479   6.456  19.917  0.00  0.00    +0.000 A 
ATOM     17  C   UNL     1       3.389   5.751  19.116  0.00  0.00    +0.000 A 
ATOM     18  C   UNL     1       3.295   4.366  18.953  0.00  0.00    +0.000 A 
ENDBRANCH   4   7
BRANCH   1  21
ATOM     19  C   UNL     1       8.633   9.754  18.331  0.00  0.00    +0.000 C 
ATOM     20  O   UNL     1       7.719  10.173  17.619  0.00  0.00    +0.000 OA
ATOM     21  N   UNL     1       8.768   8.417  18.703  0.00  0.00    +0.000 N 
ATOM     22  H   UNL     1       9.549   8.179  19.294  0.00  0.00    +0.000 HD
BRANCH  19  28
ATOM     23  C   UNL     1      12.333  13.321  17.706  0.00  0.00    +0.000 C 
ATOM     24  C   UNL     1      11.413  12.493  18.566  0.00  0.00    +0.000 A 
ATOM     25  C   UNL     1      11.463  12.658  19.955  0.00  0.00    +0.000 A 
ATOM     26  C   UNL     1      10.630  11.910  20.775  0.00  0.00    +0.000 A 
ATOM     27  C   UNL     1       9.740  10.987  20.209  0.00  0.00    +0.000 A 
ATOM     28  C   UNL     1       9.657  10.782  18.814  0.00  0.00    +0.000 A 
ATOM     29  C   UNL     1      10.510  11.551  18.000  0.00  0.00    +0.000 A 
ENDBRANCH  19  28
ENDBRANCH   1  21
TORSDOF 3
ENDMDL
MODEL 2
REMARK VINA RESULT:     -10.0      0.579      1.214
REMARK  Name = 
REMARK  4 active torsions:
REMARK  status: ('A' for Active; 'I' for Inactive)
REMARK    1  A    between atoms: C_1  and  C_2
REMARK    2  A    between atoms: C_6  and  C_7
REMARK    3  A    between atoms: N_9  and  C_10
REMARK    4  A    between atoms: C_13  and  C_14
REMARK                            x       y       z     vdW  Elec       q    Type
REMARK                         _______ _______ _______ _____ _____    ______ ____
ROOT
ATOM      1  C   UNL     1       7.994   7.463  18.468  0.00  0.00    +0.000 A 
ATOM      2  C   UNL     1       7.975   6.200  19.066  0.00  0.00    +0.000 A 
ATOM      3  C   UNL     1       7.129   5.168  18.580  0.00  0.00    +0.000 A 
ATOM      4  C   UNL     1       6.277   5.358  17.471  0.00  0.00    +0.000 A 
ATOM      5  C   UNL     1       6.256   6.633  16.907  0.00  0.00    +0.000 A 
ATOM      6  C   UNL     1       7.112   7.659  17.387  0.00  0.00    +0.000 A 
ENDROOT
BRANCH   4   7
ATOM      7  C   UNL     1       5.329   4.251  17.066  0.00  0.00    +0.000 C 
ATOM      8  O   UNL     1       5.530   3.784  15.934  0.00  0.00    +0.000 OA
ATOM      9  N   UNL     1       4.335   3.675  17.915  0.00  0.00    +0.000 N 
ATOM     10  C   UNL     1       3.823   2.358  17.476  0.00  0.00    +0.000 C 
ATOM     11  C   UNL     1       3.412   1.488  18.653  0.00  0.00    +0.000 C 
ATOM     12  C   UNL     1       2.240   2.138  19.358  0.00  0.00    +0.000 C 
ATOM     13  C   UNL     1       2.426   3.628  19.505  0.00  0.00    +0.000 A 
ATOM     14  C   UNL     1       1.457   4.292  20.286  0.00  0.00    +0.000 A 
ATOM     15  C   UNL     1       1.528   5.663  20.471  0.00  0.00    +0.000 A 
ATOM     16  C   UNL     1       2.567   6.375  19.888  0.00  0.00    +0.000 A 
ATOM     17  C   UNL     1       3.512   5.733  19.075  0.00  0.00    +0.000 A 
ATOM     18  C   UNL     1       3.462   4.354  18.851  0.00  0.00    +0.000 A 
ENDBRANCH   4   7
BRANCH   1  21
ATOM     19  C   UNL     1       8.733   9.897  18.448  0.00  0.00    +0.000 C 
ATOM     20  O   UNL     1       7.915  10.293  17.617  0.00  0.00    +0.000 OA
ATOM     21  N   UNL     1       8.812   8.573  18.881  0.00  0.00    +0.000 N 
ATOM     22  H   UNL     1       9.515   8.354  19.569  0.00  0.00    +0.000 HD
BRANCH  19  28
ATOM     23  C   UNL     1      10.106  13.805  21.555  0.00  0.00    +0.000 C 
ATOM     24  C   UNL     1      10.403  12.789  20.480  0.00  0.00    +0.000 A 
ATOM     25  C   UNL     1      11.688  12.755  19.925  0.00  0.00    +0.000 A 
ATOM     26  C   UNL     1      11.993  11.832  18.935  0.00  0.00    +0.000 A 
ATOM     27  C   UNL     1      11.011  10.937  18.489  0.00  0.00    +0.000 A 
ATOM     28  C   UNL     1       9.700  10.937  19.014  0.00  0.00    +0.000 A 
ATOM     29  C   UNL     1       9.411  11.880  20.020  0.00  0.00    +0.000 A 
ENDBRANCH  19  28
ENDBRANCH   1  21
TORSDOF 3
ENDMDL
MODEL 3
REMARK VINA RESULT:      -9.4      5.768      8.960
REMARK  Name = 
REMARK  4 active torsions:
REMARK  status: ('A' for Active; 'I' for Inactive)
REMARK    1  A    between atoms: C_1  and  C_2
REMARK    2  A    between atoms: C_6  and  C_7
REMARK    3  A    between atoms: N_9  and  C_10
REMARK    4  A    between atoms: C_13  and  C_14
REMARK                            x       y       z     vdW  Elec       q    Type
REMARK                         _______ _______ _______ _____ _____    ______ ____
ROOT
ATOM      1  C   UNL     1       0.119   9.890  20.769  0.00  0.00    +0.000 A 
ATOM      2  C   UNL     1       0.283  10.051  19.391  0.00  0.00    +0.000 A 
ATOM      3  C   UNL     1       1.152   9.207  18.648  0.00  0.00    +0.000 A 
ATOM      4  C   UNL     1       1.881   8.163  19.256  0.00  0.00    +0.000 A 
ATOM      5  C   UNL     1       1.757   8.034  20.640  0.00  0.00    +0.000 A 
ATOM      6  C   UNL     1       0.878   8.871  21.376  0.00  0.00    +0.000 A 
ENDROOT
BRANCH   4   7
ATOM      7  C   UNL     1       2.863   7.364  18.429  0.00  0.00    +0.000 C 
ATOM      8  O   UNL     1       3.226   7.917  17.378  0.00  0.00    +0.000 OA
ATOM      9  N   UNL     1       3.444   6.122  18.824  0.00  0.00    +0.000 N 
ATOM     10  C   UNL     1       4.666   5.737  18.084  0.00  0.00    +0.000 C 
ATOM     11  C   UNL     1       5.617   4.919  18.943  0.00  0.00    +0.000 C 
ATOM     12  C   UNL     1       4.954   3.605  19.295  0.00  0.00    +0.000 C 
ATOM     13  C   UNL     1       3.506   3.788  19.677  0.00  0.00    +0.000 A 
ATOM     14  C   UNL     1       2.853   2.640  20.170  0.00  0.00    +0.000 A 
ATOM     15  C   UNL     1       1.517   2.697  20.535  0.00  0.00    +0.000 A 
ATOM     16  C   UNL     1       0.832   3.898  20.419  0.00  0.00    +0.000 A 
ATOM     17  C   UNL     1       1.459   5.036  19.891  0.00  0.00    +0.000 A 
ATOM     18  C   UNL     1       2.799   5.012  19.496  0.00  0.00    +0.000 A 
ENDBRANCH   4   7
BRANCH   1  21
ATOM     19  C   UNL     1      -0.499  11.979  22.082  0.00  0.00    +0.000 C 
ATOM     20  O   UNL     1       0.521  12.620  21.827  0.00  0.00    +0.000 OA
ATOM     21  N   UNL     1      -0.735  10.688  21.609  0.00  0.00    +0.000 N 
ATOM     22  H   UNL     1      -1.605  10.252  21.871  0.00  0.00    +0.000 HD
BRANCH  19  28
ATOM     23  C   UNL     1      -4.977  12.269  24.664  0.00  0.00    +0.000 C 
ATOM     24  C   UNL     1      -3.655  12.843  24.221  0.00  0.00    +0.000 A 
ATOM     25  C   UNL     1      -3.303  14.127  24.652  0.00  0.00    +0.000 A 
ATOM     26  C   UNL     1      -2.092  14.683  24.262  0.00  0.00    +0.000 A 
ATOM     27  C   UNL     1      -1.226  13.958  23.433  0.00  0.00    +0.000 A 
ATOM     28  C   UNL     1      -1.541  12.662  22.968  0.00  0.00    +0.000 A 
ATOM     29  C   UNL     1      -2.772  12.115  23.377  0.00  0.00    +0.000 A 
ENDBRANCH  19  28
ENDBRANCH   1  21
TORSDOF 3
ENDMDL
MODEL 4
REMARK VINA RESULT:      -9.3      5.859      8.837
REMARK  Name = 
REMARK  4 active torsions:
REMARK  status: ('A' for Active; 'I' for Inactive)
REMARK    1  A    between atoms: C_1  and  C_2
REMARK    2  A    between atoms: C_6  and  C_7
REMARK    3  A    between atoms: N_9  and  C_10
REMARK    4  A    between atoms: C_13  and  C_14
REMARK                            x       y       z     vdW  Elec       q    Type
REMARK                         _______ _______ _______ _____ _____    ______ ____
ROOT
ATOM      1  C   UNL     1       0.119   9.916  20.785  0.00  0.00    +0.000 A 
ATOM      2  C   UNL     1       0.248  10.053  19.400  0.00  0.00    +0.000 A 
ATOM      3  C   UNL     1       1.110   9.206  18.653  0.00  0.00    +0.000 A 
ATOM      4  C   UNL     1       1.868   8.184  19.262  0.00  0.00    +0.000 A 
ATOM      5  C   UNL     1       1.781   8.080  20.650  0.00  0.00    +0.000 A 
ATOM      6  C   UNL     1       0.908   8.919  21.392  0.00  0.00    +0.000 A 
ENDROOT
BRANCH   4   7
ATOM      7  C   UNL     1       2.841   7.383  18.425  0.00  0.00    +0.000 C 
ATOM      8  O   UNL     1       3.189   7.932  17.368  0.00  0.00    +0.000 OA
ATOM      9  N   UNL     1       3.429   6.143  18.819  0.00  0.00    +0.000 N 
ATOM     10  C   UNL     1       4.642   5.757  18.064  0.00  0.00    +0.000 C 
ATOM     11  C   UNL     1       5.605   4.945  18.915  0.00  0.00    +0.000 C 
ATOM     12  C   UNL     1       4.949   3.631  19.282  0.00  0.00    +0.000 C 
ATOM     13  C   UNL     1       3.506   3.814  19.681  0.00  0.00    +0.000 A 
ATOM     14  C   UNL     1       2.861   2.666  20.188  0.00  0.00    +0.000 A 
ATOM     15  C   UNL     1       1.531   2.723  20.569  0.00  0.00    +0.000 A 
ATOM     16  C   UNL     1       0.841   3.923  20.457  0.00  0.00    +0.000 A 
ATOM     17  C   UNL     1       1.459   5.059  19.916  0.00  0.00    +0.000 A 
ATOM     18  C   UNL     1       2.795   5.035  19.504  0.00  0.00    +0.000 A 
ENDBRANCH   4   7
BRANCH   1  21
ATOM     19  C   UNL     1      -0.484  12.011  22.093  0.00  0.00    +0.000 C 
ATOM     20  O   UNL     1       0.531  12.653  21.822  0.00  0.00    +0.000 OA
ATOM     21  N   UNL     1      -0.724  10.717  21.631  0.00  0.00    +0.000 N 
ATOM     22  H   UNL     1      -1.591  10.282  21.907  0.00  0.00    +0.000 HD
BRANCH  19  28
ATOM     23  C   UNL     1      -2.317  15.888  24.995  0.00  0.00    +0.000 C 
ATOM     24  C   UNL     1      -2.434  14.522  24.369  0.00  0.00    +0.000 A 
ATOM     25  C   UNL     1      -3.597  13.777  24.598  0.00  0.00    +0.000 A 
ATOM     26  C   UNL     1      -3.737  12.515  24.036  0.00  0.00    +0.000 A 
ATOM     27  C   UNL     1      -2.709  11.988  23.243  0.00  0.00    +0.000 A 
ATOM     28  C   UNL     1      -1.516  12.699  22.988  0.00  0.00    +0.000 A 
ATOM     29  C   UNL     1      -1.395  13.978  23.566  0.00  0.00    +0.000 A 
ENDBRANCH  19  28
ENDBRANCH   1  21
TORSDOF 3
ENDMDL
MODEL 5
REMARK VINA RESULT:      -9.2      1.399      1.705
REMARK  Name = 
REMARK  4 active torsions:
REMARK  status: ('A' for Active; 'I' for Inactive)
REMARK    1  A    between atoms: C_1  and  C_2
REMARK    2  A    between atoms: C_6  and  C_7
REMARK    3  A    between atoms: N_9  and  C_10
REMARK    4  A    between atoms: C_13  and  C_14
REMARK                            x       y       z     vdW  Elec       q    Type
REMARK                         _______ _______ _______ _____ _____    ______ ____
ROOT
ATOM      1  C   UNL     1       7.605   8.155  17.623  0.00  0.00    +0.000 A 
ATOM      2  C   UNL     1       8.020   7.093  18.431  0.00  0.00    +0.000 A 
ATOM      3  C   UNL     1       7.311   5.861  18.450  0.00  0.00    +0.000 A 
ATOM      4  C   UNL     1       6.168   5.643  17.653  0.00  0.00    +0.000 A 
ATOM      5  C   UNL     1       5.723   6.720  16.886  0.00  0.00    +0.000 A 
ATOM      6  C   UNL     1       6.440   7.944  16.860  0.00  0.00    +0.000 A 
ENDROOT
BRANCH   4   7
ATOM      7  C   UNL     1       5.402   4.346  17.794  0.00  0.00    +0.000 C 
ATOM      8  O   UNL     1       5.668   3.491  16.934  0.00  0.00    +0.000 OA
ATOM      9  N   UNL     1       4.515   4.033  18.868  0.00  0.00    +0.000 N 
ATOM     10  C   UNL     1       4.213   2.594  19.033  0.00  0.00    +0.000 C 
ATOM     11  C   UNL     1       3.949   2.233  20.486  0.00  0.00    +0.000 C 
ATOM     12  C   UNL     1       2.693   2.942  20.948  0.00  0.00    +0.000 C 
ATOM     13  C   UNL     1       2.645   4.371  20.470  0.00  0.00    +0.000 A 
ATOM     14  C   UNL     1       1.589   5.153  20.982  0.00  0.00    +0.000 A 
ATOM     15  C   UNL     1       1.445   6.476  20.595  0.00  0.00    +0.000 A 
ATOM     16  C   UNL     1       2.357   7.026  19.704  0.00  0.00    +0.000 A 
ATOM     17  C   UNL     1       3.386   6.248  19.156  0.00  0.00    +0.000 A 
ATOM     18  C   UNL     1       3.552   4.906  19.509  0.00  0.00    +0.000 A 
ENDBRANCH   4   7
BRANCH   1  21
ATOM     19  C   UNL     1       8.960  10.108  18.526  0.00  0.00    +0.000 C 
ATOM     20  O   UNL     1       9.124   9.663  19.662  0.00  0.00    +0.000 OA
ATOM     21  N   UNL     1       8.250   9.437  17.530  0.00  0.00    +0.000 N 
ATOM     22  H   UNL     1       8.180   9.887  16.630  0.00  0.00    +0.000 HD
BRANCH  19  28
ATOM     23  C   UNL     1       8.915  15.264  18.048  0.00  0.00    +0.000 C 
ATOM     24  C   UNL     1       9.610  13.927  17.994  0.00  0.00    +0.000 A 
ATOM     25  C   UNL     1      10.965  13.889  17.647  0.00  0.00    +0.000 A 
ATOM     26  C   UNL     1      11.634  12.674  17.589  0.00  0.00    +0.000 A 
ATOM     27  C   UNL     1      10.948  11.486  17.875  0.00  0.00    +0.000 A 
ATOM     28  C   UNL     1       9.580  11.474  18.224  0.00  0.00    +0.000 A 
ATOM     29  C   UNL     1       8.920  12.717  18.280  0.00  0.00    +0.000 A 
ENDBRANCH  19  28
ENDBRANCH   1  21
TORSDOF 3
ENDMDL
MODEL 6
REMARK VINA RESULT:      -9.1      1.001      1.397
REMARK  Name = 
REMARK  4 active torsions:
REMARK  status: ('A' for Active; 'I' for Inactive)
REMARK    1  A    between atoms: C_1  and  C_2
REMARK    2  A    between atoms: C_6  and  C_7
REMARK    3  A    between atoms: N_9  and  C_10
REMARK    4  A    between atoms: C_13  and  C_14
REMARK                            x       y       z     vdW  Elec       q    Type
REMARK                         _______ _______ _______ _____ _____    ______ ____
ROOT
ATOM      1  C   UNL     1       7.845   8.279  17.834  0.00  0.00    +0.000 A 
ATOM      2  C   UNL     1       6.683   8.183  17.063  0.00  0.00    +0.000 A 
ATOM      3  C   UNL     1       5.906   6.993  17.048  0.00  0.00    +0.000 A 
ATOM      4  C   UNL     1       6.256   5.861  17.813  0.00  0.00    +0.000 A 
ATOM      5  C   UNL     1       7.443   5.938  18.541  0.00  0.00    +0.000 A 
ATOM      6  C   UNL     1       8.211   7.132  18.564  0.00  0.00    +0.000 A 
ENDROOT
BRANCH   4   7
ATOM      7  C   UNL     1       5.442   4.593  17.677  0.00  0.00    +0.000 C 
ATOM      8  O   UNL     1       5.732   3.895  16.692  0.00  0.00    +0.000 OA
ATOM      9  N   UNL     1       4.483   4.131  18.628  0.00  0.00    +0.000 N 
ATOM     10  C   UNL     1       4.126   2.700  18.515  0.00  0.00    +0.000 C 
ATOM     11  C   UNL     1       3.764   2.097  19.862  0.00  0.00    +0.000 C 
ATOM     12  C   UNL     1       2.507   2.764  20.377  0.00  0.00    +0.000 C 
ATOM     13  C   UNL     1       2.533   4.257  20.164  0.00  0.00    +0.000 A 
ATOM     14  C   UNL     1       1.474   4.979  20.752  0.00  0.00    +0.000 A 
ATOM     15  C   UNL     1       1.396   6.354  20.602  0.00  0.00    +0.000 A 
ATOM     16  C   UNL     1       2.376   7.015  19.876  0.00  0.00    +0.000 A 
ATOM     17  C   UNL     1       3.411   6.305  19.251  0.00  0.00    +0.000 A 
ATOM     18  C   UNL     1       3.512   4.915  19.365  0.00  0.00    +0.000 A 
ENDBRANCH   4   7
BRANCH   1  21
ATOM     19  C   UNL     1       9.156  10.072  19.073  0.00  0.00    +0.000 C 
ATOM     20  O   UNL     1       8.865   9.706  20.213  0.00  0.00    +0.000 OA
ATOM     21  N   UNL     1       8.699   9.434  17.919  0.00  0.00    +0.000 N 
ATOM     22  H   UNL     1       9.001   9.810  17.034  0.00  0.00    +0.000 HD
BRANCH  19  28
ATOM     23  C   UNL     1      12.251  13.368  16.550  0.00  0.00    +0.000 C 
ATOM     24  C   UNL     1      11.538  12.895  17.791  0.00  0.00    +0.000 A 
ATOM     25  C   UNL     1      11.690  13.628  18.973  0.00  0.00    +0.000 A 
ATOM     26  C   UNL     1      11.047  13.219  20.133  0.00  0.00    +0.000 A 
ATOM     27  C   UNL     1      10.247  12.069  20.119  0.00  0.00    +0.000 A 
ATOM     28  C   UNL     1      10.067  11.294  18.952  0.00  0.00    +0.000 A 
ATOM     29  C   UNL     1      10.727  11.726  17.785  0.00  0.00    +0.000 A 
ENDBRANCH  19  28
ENDBRANCH   1  21
TORSDOF 3
ENDMDL
MODEL 7
REMARK VINA RESULT:      -8.9      1.362      1.820
REMARK  Name = 
REMARK  4 active torsions:
REMARK  status: ('A' for Active; 'I' for Inactive)
REMARK    1  A    between atoms: C_1  and  C_2
REMARK    2  A    between atoms: C_6  and  C_7
REMARK    3  A    between atoms: N_9  and  C_10
REMARK    4  A    between atoms: C_13  and  C_14
REMARK                            x       y       z     vdW  Elec       q    Type
REMARK                         _______ _______ _______ _____ _____    ______ ____
ROOT
ATOM      1  C   UNL     1       7.785   8.413  17.734  0.00  0.00    +0.000 A 
ATOM      2  C   UNL     1       6.600   8.174  17.034  0.00  0.00    +0.000 A 
ATOM      3  C   UNL     1       5.921   6.930  17.138  0.00  0.00    +0.000 A 
ATOM      4  C   UNL     1       6.397   5.884  17.956  0.00  0.00    +0.000 A 
ATOM      5  C   UNL     1       7.607   6.103  18.614  0.00  0.00    +0.000 A 
ATOM      6  C   UNL     1       8.276   7.351  18.518  0.00  0.00    +0.000 A 
ENDROOT
BRANCH   4   7
ATOM      7  C   UNL     1       5.682   4.551  17.946  0.00  0.00    +0.000 C 
ATOM      8  O   UNL     1       6.054   3.769  17.057  0.00  0.00    +0.000 OA
ATOM      9  N   UNL     1       4.727   4.129  18.920  0.00  0.00    +0.000 N 
ATOM     10  C   UNL     1       4.478   2.671  18.963  0.00  0.00    +0.000 C 
ATOM     11  C   UNL     1       4.115   2.199  20.362  0.00  0.00    +0.000 C 
ATOM     12  C   UNL     1       2.795   2.823  20.764  0.00  0.00    +0.000 C 
ATOM     13  C   UNL     1       2.721   4.280  20.380  0.00  0.00    +0.000 A 
ATOM     14  C   UNL     1       1.593   4.982  20.854  0.00  0.00    +0.000 A 
ATOM     15  C   UNL     1       1.421   6.321  20.544  0.00  0.00    +0.000 A 
ATOM     16  C   UNL     1       2.376   6.968  19.771  0.00  0.00    +0.000 A 
ATOM     17  C   UNL     1       3.480   6.271  19.260  0.00  0.00    +0.000 A 
ATOM     18  C   UNL     1       3.677   4.916  19.536  0.00  0.00    +0.000 A 
ENDBRANCH   4   7
BRANCH   1  21
ATOM     19  C   UNL     1       9.115  10.314  18.775  0.00  0.00    +0.000 C 
ATOM     20  O   UNL     1       9.025   9.935  19.943  0.00  0.00    +0.000 OA
ATOM     21  N   UNL     1       8.547   9.634  17.698  0.00  0.00    +0.000 N 
ATOM     22  H   UNL     1       8.684  10.026  16.780  0.00  0.00    +0.000 HD
BRANCH  19  28
ATOM     23  C   UNL     1       9.602  15.378  17.812  0.00  0.00    +0.000 C 
ATOM     24  C   UNL     1      10.179  14.012  18.080  0.00  0.00    +0.000 A 
ATOM     25  C   UNL     1      11.571  13.868  18.126  0.00  0.00    +0.000 A 
ATOM     26  C   UNL     1      12.134  12.623  18.371  0.00  0.00    +0.000 A 
ATOM     27  C   UNL     1      11.306  11.510  18.569  0.00  0.00    +0.000 A 
ATOM     28  C   UNL     1       9.897  11.605  18.527  0.00  0.00    +0.000 A 
ATOM     29  C   UNL     1       9.346  12.877  18.279  0.00  0.00    +0.000 A 
ENDBRANCH  19  28
ENDBRANCH   1  21
TORSDOF 3
ENDMDL
MODEL 8
REMARK VINA RESULT:      -8.7      5.587      8.739
REMARK  Name = 
REMARK  4 active torsions:
REMARK  status: ('A' for Active; 'I' for Inactive)
REMARK    1  A    between atoms: C_1  and  C_2
REMARK    2  A    between atoms: C_6  and  C_7
REMARK    3  A    between atoms: N_9  and  C_10
REMARK    4  A    between atoms: C_13  and  C_14
REMARK                            x       y       z     vdW  Elec       q    Type
REMARK                         _______ _______ _______ _____ _____    ______ ____
ROOT
ATOM      1  C   UNL     1       0.292   9.699  20.429  0.00  0.00    +0.000 A 
ATOM      2  C   UNL     1       1.008   8.659  21.026  0.00  0.00    +0.000 A 
ATOM      3  C   UNL     1       1.920   7.867  20.277  0.00  0.00    +0.000 A 
ATOM      4  C   UNL     1       2.157   8.095  18.905  0.00  0.00    +0.000 A 
ATOM      5  C   UNL     1       1.405   9.099  18.296  0.00  0.00    +0.000 A 
ATOM      6  C   UNL     1       0.504   9.896  19.050  0.00  0.00    +0.000 A 
ENDROOT
BRANCH   4   7
ATOM      7  C   UNL     1       3.065   7.155  18.143  0.00  0.00    +0.000 C 
ATOM      8  O   UNL     1       3.455   7.586  17.047  0.00  0.00    +0.000 OA
ATOM      9  N   UNL     1       3.553   5.909  18.640  0.00  0.00    +0.000 N 
ATOM     10  C   UNL     1       4.732   5.368  17.928  0.00  0.00    +0.000 C 
ATOM     11  C   UNL     1       5.628   4.556  18.849  0.00  0.00    +0.000 C 
ATOM     12  C   UNL     1       4.871   3.332  19.317  0.00  0.00    +0.000 C 
ATOM     13  C   UNL     1       3.447   3.659  19.691  0.00  0.00    +0.000 A 
ATOM     14  C   UNL     1       2.713   2.611  20.285  0.00  0.00    +0.000 A 
ATOM     15  C   UNL     1       1.391   2.803  20.651  0.00  0.00    +0.000 A 
ATOM     16  C   UNL     1       0.798   4.039  20.437  0.00  0.00    +0.000 A 
ATOM     17  C   UNL     1       1.504   5.076  19.809  0.00  0.00    +0.000 A 
ATOM     18  C   UNL     1       2.833   4.914  19.409  0.00  0.00    +0.000 A 
ENDBRANCH   4   7
BRANCH   1  21
ATOM     19  C   UNL     1      -0.406  11.802  21.678  0.00  0.00    +0.000 C 
ATOM     20  O   UNL     1       0.702  12.339  21.694  0.00  0.00    +0.000 OA
ATOM     21  N   UNL     1      -0.650  10.558  21.096  0.00  0.00    +0.000 N 
ATOM     22  H   UNL     1      -1.596  10.210  21.131  0.00  0.00    +0.000 HD
BRANCH  19  28
ATOM     23  C   UNL     1      -4.533  12.291  24.766  0.00  0.00    +0.000 C 
ATOM     24  C   UNL     1      -3.513  12.850  23.806  0.00  0.00    +0.000 A 
ATOM     25  C   UNL     1      -3.582  14.207  23.469  0.00  0.00    +0.000 A 
ATOM     26  C   UNL     1      -2.658  14.752  22.588  0.00  0.00    +0.000 A 
ATOM     27  C   UNL     1      -1.659  13.941  22.035  0.00  0.00    +0.000 A 
ATOM     28  C   UNL     1      -1.553  12.566  22.340  0.00  0.00    +0.000 A 
ATOM     29  C   UNL     1      -2.498  12.032  23.238  0.00  0.00    +0.000 A 
ENDBRANCH  19  28
ENDBRANCH   1  21
TORSDOF 3
ENDMDL
MODEL 9
REMARK VINA RESULT:      -8.4      5.663      8.557
REMARK  Name = 
REMARK  4 active torsions:
REMARK  status: ('A' for Active; 'I' for Inactive)
REMARK    1  A    between atoms: C_1  and  C_2
REMARK    2  A    between atoms: C_6  and  C_7
REMARK    3  A    between atoms: N_9  and  C_10
REMARK    4  A    between atoms: C_13  and  C_14
REMARK                            x       y       z     vdW  Elec       q    Type
REMARK                         _______ _______ _______ _____ _____    ______ ____
ROOT
ATOM      1  C   UNL     1       0.378   9.690  20.654  0.00  0.00    +0.000 A 
ATOM      2  C   UNL     1       1.087   8.610  21.185  0.00  0.00    +0.000 A 
ATOM      3  C   UNL     1       1.951   7.826  20.375  0.00  0.00    +0.000 A 
ATOM      4  C   UNL     1       2.145   8.100  19.005  0.00  0.00    +0.000 A 
ATOM      5  C   UNL     1       1.398   9.145  18.461  0.00  0.00    +0.000 A 
ATOM      6  C   UNL     1       0.546   9.935  19.277  0.00  0.00    +0.000 A 
ENDROOT
BRANCH   4   7
ATOM      7  C   UNL     1       3.001   7.167  18.176  0.00  0.00    +0.000 C 
ATOM      8  O   UNL     1       3.326   7.613  17.064  0.00  0.00    +0.000 OA
ATOM      9  N   UNL     1       3.512   5.912  18.625  0.00  0.00    +0.000 N 
ATOM     10  C   UNL     1       4.643   5.377  17.834  0.00  0.00    +0.000 C 
ATOM     11  C   UNL     1       5.590   4.548  18.688  0.00  0.00    +0.000 C 
ATOM     12  C   UNL     1       4.856   3.320  19.183  0.00  0.00    +0.000 C 
ATOM     13  C   UNL     1       3.458   3.648  19.647  0.00  0.00    +0.000 A 
ATOM     14  C   UNL     1       2.757   2.594  20.269  0.00  0.00    +0.000 A 
ATOM     15  C   UNL     1       1.460   2.785  20.718  0.00  0.00    +0.000 A 
ATOM     16  C   UNL     1       0.862   4.028  20.558  0.00  0.00    +0.000 A 
ATOM     17  C   UNL     1       1.533   5.070  19.903  0.00  0.00    +0.000 A 
ATOM     18  C   UNL     1       2.835   4.909  19.421  0.00  0.00    +0.000 A 
ENDBRANCH   4   7
BRANCH   1  21
ATOM     19  C   UNL     1      -0.263  11.828  21.873  0.00  0.00    +0.000 C 
ATOM     20  O   UNL     1       0.813  12.409  21.730  0.00  0.00    +0.000 OA
ATOM     21  N   UNL     1      -0.518  10.546  21.386  0.00  0.00    +0.000 N 
ATOM     22  H   UNL     1      -1.436  10.163  21.552  0.00  0.00    +0.000 HD
BRANCH  19  28
ATOM     23  C   UNL     1      -2.584  16.052  23.766  0.00  0.00    +0.000 C 
ATOM     24  C   UNL     1      -2.504  14.564  23.541  0.00  0.00    +0.000 A 
ATOM     25  C   UNL     1      -3.523  13.752  24.053  0.00  0.00    +0.000 A 
ATOM     26  C   UNL     1      -3.480  12.378  23.863  0.00  0.00    +0.000 A 
ATOM     27  C   UNL     1      -2.411  11.804  23.161  0.00  0.00    +0.000 A 
ATOM     28  C   UNL     1      -1.358  12.581  22.630  0.00  0.00    +0.000 A 
ATOM     29  C   UNL     1      -1.422  13.974  22.832  0.00  0.00    +0.000 A 
ENDBRANCH  19  28
ENDBRANCH   1  21
TORSDOF 3
ENDMDL
