MODEL 1
REMARK VINA RESULT:      -9.5      0.000      0.000
REMARK  Name = 
REMARK  6 active torsions:
REMARK  status: ('A' for Active; 'I' for Inactive)
REMARK    1  A    between atoms: C_1  and  C_2
REMARK    2  A    between atoms: N_6  and  C_7
REMARK    3  A    between atoms: C_15  and  C_16
REMARK    4  A    between atoms: N_18  and  C_19
REMARK    5  A    between atoms: C_22  and  O_23
REMARK    6  A    between atoms: O_23  and  C_24
REMARK                            x       y       z     vdW  Elec       q    Type
REMARK                         _______ _______ _______ _____ _____    ______ ____
ROOT
ATOM      1  C   UNL     1      -0.209  10.606  19.176  0.00  0.00    +0.000 C 
ATOM      2  O   UNL     1      -0.922  10.043  18.356  0.00  0.00    +0.000 OA
ATOM      3  N   UNL     1       1.000  10.134  19.653  0.00  0.00    +0.000 N 
ATOM      4  H   UNL     1       1.431  10.683  20.393  0.00  0.00    +0.000 HD
ENDROOT
BRANCH   1  12
ATOM      5  C   UNL     1       1.163  13.232  18.394  0.00  0.00    +0.000 C 
ATOM      6  C   UNL     1       0.012  13.198  19.348  0.00  0.00    +0.000 A 
ATOM      7  C   UNL     1      -0.454  14.331  19.877  0.00  0.00    +0.000 A 
ATOM      8  C   UNL     1      -1.565  14.362  20.834  0.00  0.00    +0.000 A 
ATOM      9  O   UNL     1      -1.868  15.466  21.285  0.00  0.00    +0.000 OA
ATOM     10  N   UNL     1      -2.129  13.122  21.158  0.00  0.00    +0.000 N 
ATOM     11  N   UNL     1      -1.663  11.911  20.644  0.00  0.00    +0.000 NA
ATOM     12  C   UNL     1      -0.681  11.948  19.786  0.00  0.00    +0.000 A 
BRANCH  10  13
ATOM     13  C   UNL     1      -3.236  13.024  22.065  0.00  0.00    +0.000 A 
ATOM     14  C   UNL     1      -3.033  12.729  23.427  0.00  0.00    +0.000 A 
ATOM     15  C   UNL     1      -4.106  12.567  24.306  0.00  0.00    +0.000 A 
ATOM     16  C   UNL     1      -5.399  12.698  23.828  0.00  0.00    +0.000 A 
ATOM     17  F   UNL     1      -6.430  12.516  24.663  0.00  0.00    +0.000 F 
ATOM     18  C   UNL     1      -5.635  13.012  22.495  0.00  0.00    +0.000 A 
ATOM     19  C   UNL     1      -4.556  13.193  21.618  0.00  0.00    +0.000 A 
ENDBRANCH  10  13
ENDBRANCH   1  12
BRANCH   3  20
ATOM     20  C   UNL     1       1.649   8.944  19.225  0.00  0.00    +0.000 A 
ATOM     21  C   UNL     1       2.291   8.820  17.983  0.00  0.00    +0.000 A 
ATOM     22  C   UNL     1       2.902   7.625  17.590  0.00  0.00    +0.000 A 
ATOM     23  C   UNL     1       2.886   6.519  18.436  0.00  0.00    +0.000 A 
ATOM     24  C   UNL     1       2.299   6.651  19.696  0.00  0.00    +0.000 A 
ATOM     25  F   UNL     1       2.310   5.633  20.566  0.00  0.00    +0.000 F 
ATOM     26  C   UNL     1       1.667   7.842  20.084  0.00  0.00    +0.000 A 
BRANCH  23  27
ATOM     27  O   UNL     1       3.536   5.395  17.979  0.00  0.00    +0.000 OA
BRANCH  27  28
ATOM     28  C   UNL     1       4.901   5.273  18.128  0.00  0.00    +0.000 A 
ATOM     29  C   UNL     1       5.576   5.373  19.349  0.00  0.00    +0.000 A 
ATOM     30  C   UNL     1       6.961   5.260  19.370  0.00  0.00    +0.000 A 
ATOM     31  N   UNL     1       7.750   4.996  18.308  0.00  0.00    +0.000 NA
ATOM     32  C   UNL     1       7.052   4.836  17.170  0.00  0.00    +0.000 A 
ATOM     33  N   UNL     1       7.614   4.512  15.967  0.00  0.00    +0.000 N 
ATOM     34  C   UNL     1       6.635   4.404  15.011  0.00  0.00    +0.000 A 
ATOM     35  C   UNL     1       5.426   4.684  15.616  0.00  0.00    +0.000 A 
ATOM     36  C   UNL     1       5.677   4.950  16.994  0.00  0.00    +0.000 A 
ATOM     37  H   UNL     1       8.604   4.366  15.836  0.00  0.00    +0.000 HD
ENDBRANCH  27  28
ENDBRANCH  23  27
ENDBRANCH   3  20
TORSDOF 5
ENDMDL
MODEL 2
REMARK VINA RESULT:      -9.2      0.827      1.158
REMARK  Name = 
REMARK  6 active torsions:
REMARK  status: ('A' for Active; 'I' for Inactive)
REMARK    1  A    between atoms: C_1  and  C_2
REMARK    2  A    between atoms: N_6  and  C_7
REMARK    3  A    between atoms: C_15  and  C_16
REMARK    4  A    between atoms: N_18  and  C_19
REMARK    5  A    between atoms: C_22  and  O_23
REMARK    6  A    between atoms: O_23  and  C_24
REMARK                            x       y       z     vdW  Elec       q    Type
REMARK                         _______ _______ _______ _____ _____    ______ ____
ROOT
ATOM      1  C   UNL     1      -0.047  10.588  19.127  0.00  0.00    +0.000 C 
ATOM      2  O   UNL     1      -0.647  10.092  18.183  0.00  0.00    +0.000 OA
ATOM      3  N   UNL     1       1.049  10.037  19.767  0.00  0.00    +0.000 N 
ATOM      4  H   UNL     1       1.381  10.537  20.588  0.00  0.00    +0.000 HD
ENDROOT
BRANCH   1  12
ATOM      5  C   UNL     1       1.291  13.225  18.321  0.00  0.00    +0.000 C 
ATOM      6  C   UNL     1       0.131  13.186  19.263  0.00  0.00    +0.000 A 
ATOM      7  C   UNL     1      -0.360  14.318  19.770  0.00  0.00    +0.000 A 
ATOM      8  C   UNL     1      -1.482  14.345  20.714  0.00  0.00    +0.000 A 
ATOM      9  O   UNL     1      -1.807  15.450  21.146  0.00  0.00    +0.000 OA
ATOM     10  N   UNL     1      -2.029  13.102  21.051  0.00  0.00    +0.000 N 
ATOM     11  N   UNL     1      -1.538  11.891  20.559  0.00  0.00    +0.000 NA
ATOM     12  C   UNL     1      -0.547  11.931  19.711  0.00  0.00    +0.000 A 
BRANCH  10  13
ATOM     13  C   UNL     1      -3.144  12.998  21.947  0.00  0.00    +0.000 A 
ATOM     14  C   UNL     1      -2.950  12.756  23.321  0.00  0.00    +0.000 A 
ATOM     15  C   UNL     1      -4.029  12.589  24.192  0.00  0.00    +0.000 A 
ATOM     16  C   UNL     1      -5.319  12.662  23.694  0.00  0.00    +0.000 A 
ATOM     17  F   UNL     1      -6.355  12.476  24.522  0.00  0.00    +0.000 F 
ATOM     18  C   UNL     1      -5.547  12.923  22.348  0.00  0.00    +0.000 A 
ATOM     19  C   UNL     1      -4.463  13.110  21.479  0.00  0.00    +0.000 A 
ENDBRANCH  10  13
ENDBRANCH   1  12
BRANCH   3  20
ATOM     20  C   UNL     1       1.701   8.831  19.396  0.00  0.00    +0.000 A 
ATOM     21  C   UNL     1       1.708   7.680  20.199  0.00  0.00    +0.000 A 
ATOM     22  C   UNL     1       2.378   6.516  19.806  0.00  0.00    +0.000 A 
ATOM     23  C   UNL     1       3.061   6.477  18.594  0.00  0.00    +0.000 A 
ATOM     24  C   UNL     1       3.012   7.598  17.763  0.00  0.00    +0.000 A 
ATOM     25  F   UNL     1       3.604   7.587  16.562  0.00  0.00    +0.000 F 
ATOM     26  C   UNL     1       2.358   8.773  18.163  0.00  0.00    +0.000 A 
BRANCH  23  27
ATOM     27  O   UNL     1       3.667   5.283  18.276  0.00  0.00    +0.000 OA
BRANCH  27  28
ATOM     28  C   UNL     1       5.038   5.207  18.162  0.00  0.00    +0.000 A 
ATOM     29  C   UNL     1       5.931   5.359  19.229  0.00  0.00    +0.000 A 
ATOM     30  C   UNL     1       7.297   5.290  18.985  0.00  0.00    +0.000 A 
ATOM     31  N   UNL     1       7.878   5.025  17.797  0.00  0.00    +0.000 NA
ATOM     32  C   UNL     1       6.980   4.815  16.817  0.00  0.00    +0.000 A 
ATOM     33  N   UNL     1       7.313   4.479  15.535  0.00  0.00    +0.000 N 
ATOM     34  C   UNL     1       6.174   4.317  14.787  0.00  0.00    +0.000 A 
ATOM     35  C   UNL     1       5.094   4.573  15.607  0.00  0.00    +0.000 A 
ATOM     36  C   UNL     1       5.595   4.881  16.906  0.00  0.00    +0.000 A 
ATOM     37  H   UNL     1       8.264   4.361  15.218  0.00  0.00    +0.000 HD
ENDBRANCH  27  28
ENDBRANCH  23  27
ENDBRANCH   3  20
TORSDOF 5
ENDMDL
MODEL 3
REMARK VINA RESULT:      -9.1      2.408      3.460
REMARK  Name = 
REMARK  6 active torsions:
REMARK  status: ('A' for Active; 'I' for Inactive)
REMARK    1  A    between atoms: C_1  and  C_2
REMARK    2  A    between atoms: N_6  and  C_7
REMARK    3  A    between atoms: C_15  and  C_16
REMARK    4  A    between atoms: N_18  and  C_19
REMARK    5  A    between atoms: C_22  and  O_23
REMARK    6  A    between atoms: O_23  and  C_24
REMARK                            x       y       z     vdW  Elec       q    Type
REMARK                         _______ _______ _______ _____ _____    ______ ____
ROOT
ATOM      1  C   UNL     1      -0.254  10.451  20.053  0.00  0.00    +0.000 C 
ATOM      2  O   UNL     1      -1.084   9.902  19.342  0.00  0.00    +0.000 OA
ATOM      3  N   UNL     1       1.052  10.035  20.240  0.00  0.00    +0.000 N 
ATOM      4  H   UNL     1       1.590  10.556  20.928  0.00  0.00    +0.000 HD
ENDROOT
BRANCH   1  12
ATOM      5  C   UNL     1      -0.831  10.236  23.056  0.00  0.00    +0.000 C 
ATOM      6  C   UNL     1      -0.916  11.539  22.328  0.00  0.00    +0.000 A 
ATOM      7  C   UNL     1      -1.239  12.655  22.986  0.00  0.00    +0.000 A 
ATOM      8  C   UNL     1      -1.359  13.959  22.326  0.00  0.00    +0.000 A 
ATOM      9  O   UNL     1      -1.712  14.901  23.036  0.00  0.00    +0.000 OA
ATOM     10  N   UNL     1      -1.101  13.976  20.951  0.00  0.00    +0.000 N 
ATOM     11  N   UNL     1      -0.777  12.833  20.218  0.00  0.00    +0.000 NA
ATOM     12  C   UNL     1      -0.670  11.703  20.863  0.00  0.00    +0.000 A 
BRANCH  10  13
ATOM     13  C   UNL     1      -1.163  15.195  20.198  0.00  0.00    +0.000 A 
ATOM     14  C   UNL     1      -2.177  16.143  20.436  0.00  0.00    +0.000 A 
ATOM     15  C   UNL     1      -2.287  17.303  19.667  0.00  0.00    +0.000 A 
ATOM     16  C   UNL     1      -1.379  17.527  18.645  0.00  0.00    +0.000 A 
ATOM     17  F   UNL     1      -1.498  18.626  17.889  0.00  0.00    +0.000 F 
ATOM     18  C   UNL     1      -0.352  16.624  18.398  0.00  0.00    +0.000 A 
ATOM     19  C   UNL     1      -0.231  15.470  19.184  0.00  0.00    +0.000 A 
ENDBRANCH  10  13
ENDBRANCH   1  12
BRANCH   3  20
ATOM     20  C   UNL     1       1.668   8.933  19.587  0.00  0.00    +0.000 A 
ATOM     21  C   UNL     1       2.185   9.000  18.284  0.00  0.00    +0.000 A 
ATOM     22  C   UNL     1       2.768   7.887  17.669  0.00  0.00    +0.000 A 
ATOM     23  C   UNL     1       2.849   6.674  18.347  0.00  0.00    +0.000 A 
ATOM     24  C   UNL     1       2.389   6.614  19.665  0.00  0.00    +0.000 A 
ATOM     25  F   UNL     1       2.499   5.485  20.377  0.00  0.00    +0.000 F 
ATOM     26  C   UNL     1       1.785   7.723  20.277  0.00  0.00    +0.000 A 
BRANCH  23  27
ATOM     27  O   UNL     1       3.464   5.642  17.676  0.00  0.00    +0.000 OA
BRANCH  27  28
ATOM     28  C   UNL     1       4.829   5.476  17.757  0.00  0.00    +0.000 A 
ATOM     29  C   UNL     1       5.556   5.467  18.952  0.00  0.00    +0.000 A 
ATOM     30  C   UNL     1       6.937   5.319  18.904  0.00  0.00    +0.000 A 
ATOM     31  N   UNL     1       7.675   5.117  17.794  0.00  0.00    +0.000 NA
ATOM     32  C   UNL     1       6.926   5.060  16.677  0.00  0.00    +0.000 A 
ATOM     33  N   UNL     1       7.429   4.814  15.431  0.00  0.00    +0.000 N 
ATOM     34  C   UNL     1       6.410   4.802  14.513  0.00  0.00    +0.000 A 
ATOM     35  C   UNL     1       5.235   5.065  15.188  0.00  0.00    +0.000 A 
ATOM     36  C   UNL     1       5.549   5.220  16.570  0.00  0.00    +0.000 A 
ATOM     37  H   UNL     1       8.409   4.654  15.247  0.00  0.00    +0.000 HD
ENDBRANCH  27  28
ENDBRANCH  23  27
ENDBRANCH   3  20
TORSDOF 5
ENDMDL
MODEL 4
REMARK VINA RESULT:      -9.0      0.794      1.854
REMARK  Name = 
REMARK  6 active torsions:
REMARK  status: ('A' for Active; 'I' for Inactive)
REMARK    1  A    between atoms: C_1  and  C_2
REMARK    2  A    between atoms: N_6  and  C_7
REMARK    3  A    between atoms: C_15  and  C_16
REMARK    4  A    between atoms: N_18  and  C_19
REMARK    5  A    between atoms: C_22  and  O_23
REMARK    6  A    between atoms: O_23  and  C_24
REMARK                            x       y       z     vdW  Elec       q    Type
REMARK                         _______ _______ _______ _____ _____    ______ ____
ROOT
ATOM      1  C   UNL     1       0.342  10.110  19.111  0.00  0.00    +0.000 C 
ATOM      2  O   UNL     1      -0.185   9.739  18.072  0.00  0.00    +0.000 OA
ATOM      3  N   UNL     1       1.276   9.398  19.843  0.00  0.00    +0.000 N 
ATOM      4  H   UNL     1       1.556   9.812  20.729  0.00  0.00    +0.000 HD
ENDROOT
BRANCH   1  12
ATOM      5  C   UNL     1       1.943  12.643  18.469  0.00  0.00    +0.000 C 
ATOM      6  C   UNL     1       0.735  12.676  19.349  0.00  0.00    +0.000 A 
ATOM      7  C   UNL     1       0.317  13.831  19.870  0.00  0.00    +0.000 A 
ATOM      8  C   UNL     1      -0.848  13.927  20.756  0.00  0.00    +0.000 A 
ATOM      9  O   UNL     1      -1.100  15.043  21.210  0.00  0.00    +0.000 OA
ATOM     10  N   UNL     1      -1.517  12.727  21.021  0.00  0.00    +0.000 N 
ATOM     11  N   UNL     1      -1.107  11.493  20.512  0.00  0.00    +0.000 NA
ATOM     12  C   UNL     1      -0.072  11.473  19.717  0.00  0.00    +0.000 A 
BRANCH  10  13
ATOM     13  C   UNL     1      -2.684  12.694  21.854  0.00  0.00    +0.000 A 
ATOM     14  C   UNL     1      -3.960  12.965  21.325  0.00  0.00    +0.000 A 
ATOM     15  C   UNL     1      -5.095  12.999  22.138  0.00  0.00    +0.000 A 
ATOM     16  C   UNL     1      -4.962  12.762  23.496  0.00  0.00    +0.000 A 
ATOM     17  F   UNL     1      -6.045  12.821  24.283  0.00  0.00    +0.000 F 
ATOM     18  C   UNL     1      -3.721  12.468  24.048  0.00  0.00    +0.000 A 
ATOM     19  C   UNL     1      -2.586  12.415  23.227  0.00  0.00    +0.000 A 
ENDBRANCH  10  13
ENDBRANCH   1  12
BRANCH   3  20
ATOM     20  C   UNL     1       1.828   8.141  19.476  0.00  0.00    +0.000 A 
ATOM     21  C   UNL     1       2.417   7.894  18.226  0.00  0.00    +0.000 A 
ATOM     22  C   UNL     1       2.933   6.636  17.895  0.00  0.00    +0.000 A 
ATOM     23  C   UNL     1       2.871   5.591  18.812  0.00  0.00    +0.000 A 
ATOM     24  C   UNL     1       2.338   5.844  20.078  0.00  0.00    +0.000 A 
ATOM     25  F   UNL     1       2.311   4.885  21.013  0.00  0.00    +0.000 F 
ATOM     26  C   UNL     1       1.802   7.098  20.405  0.00  0.00    +0.000 A 
BRANCH  23  27
ATOM     27  O   UNL     1       3.429   4.397  18.413  0.00  0.00    +0.000 OA
BRANCH  27  28
ATOM     28  C   UNL     1       4.548   4.387  17.609  0.00  0.00    +0.000 A 
ATOM     29  C   UNL     1       4.551   4.018  16.260  0.00  0.00    +0.000 A 
ATOM     30  C   UNL     1       5.751   4.021  15.559  0.00  0.00    +0.000 A 
ATOM     31  N   UNL     1       6.949   4.412  16.040  0.00  0.00    +0.000 NA
ATOM     32  C   UNL     1       6.885   4.826  17.318  0.00  0.00    +0.000 A 
ATOM     33  N   UNL     1       7.951   5.318  18.017  0.00  0.00    +0.000 N 
ATOM     34  C   UNL     1       7.554   5.669  19.282  0.00  0.00    +0.000 A 
ATOM     35  C   UNL     1       6.210   5.377  19.396  0.00  0.00    +0.000 A 
ATOM     36  C   UNL     1       5.769   4.849  18.147  0.00  0.00    +0.000 A 
ATOM     37  H   UNL     1       8.878   5.410  17.628  0.00  0.00    +0.000 HD
ENDBRANCH  27  28
ENDBRANCH  23  27
ENDBRANCH   3  20
TORSDOF 5
ENDMDL
MODEL 5
REMARK VINA RESULT:      -8.8      1.205      1.657
REMARK  Name = 
REMARK  6 active torsions:
REMARK  status: ('A' for Active; 'I' for Inactive)
REMARK    1  A    between atoms: C_1  and  C_2
REMARK    2  A    between atoms: N_6  and  C_7
REMARK    3  A    between atoms: C_15  and  C_16
REMARK    4  A    between atoms: N_18  and  C_19
REMARK    5  A    between atoms: C_22  and  O_23
REMARK    6  A    between atoms: O_23  and  C_24
REMARK                            x       y       z     vdW  Elec       q    Type
REMARK                         _______ _______ _______ _____ _____    ______ ____
ROOT
ATOM      1  C   UNL     1       0.862  10.642  20.807  0.00  0.00    +0.000 C 
ATOM      2  O   UNL     1       1.442  10.276  21.820  0.00  0.00    +0.000 OA
ATOM      3  N   UNL     1       0.919  10.017  19.574  0.00  0.00    +0.000 N 
ATOM      4  H   UNL     1       0.444  10.494  18.811  0.00  0.00    +0.000 HD
ENDROOT
BRANCH   1  12
ATOM      5  C   UNL     1       1.824  13.190  19.401  0.00  0.00    +0.000 C 
ATOM      6  C   UNL     1       0.520  13.136  20.130  0.00  0.00    +0.000 A 
ATOM      7  C   UNL     1      -0.269  14.212  20.174  0.00  0.00    +0.000 A 
ATOM      8  C   UNL     1      -1.549  14.229  20.889  0.00  0.00    +0.000 A 
ATOM      9  O   UNL     1      -2.158  15.299  20.895  0.00  0.00    +0.000 OA
ATOM     10  N   UNL     1      -1.913  13.036  21.524  0.00  0.00    +0.000 N 
ATOM     11  N   UNL     1      -1.113  11.892  21.520  0.00  0.00    +0.000 NA
ATOM     12  C   UNL     1       0.009  11.932  20.854  0.00  0.00    +0.000 A 
BRANCH  10  13
ATOM     13  C   UNL     1      -3.151  12.921  22.237  0.00  0.00    +0.000 A 
ATOM     14  C   UNL     1      -4.379  12.848  21.550  0.00  0.00    +0.000 A 
ATOM     15  C   UNL     1      -5.596  12.801  22.233  0.00  0.00    +0.000 A 
ATOM     16  C   UNL     1      -5.597  12.827  23.617  0.00  0.00    +0.000 A 
ATOM     17  F   UNL     1      -6.764  12.809  24.275  0.00  0.00    +0.000 F 
ATOM     18  C   UNL     1      -4.403  12.875  24.328  0.00  0.00    +0.000 A 
ATOM     19  C   UNL     1      -3.181  12.903  23.641  0.00  0.00    +0.000 A 
ENDBRANCH  10  13
ENDBRANCH   1  12
BRANCH   3  20
ATOM     20  C   UNL     1       1.613   8.809  19.292  0.00  0.00    +0.000 A 
ATOM     21  C   UNL     1       1.633   7.710  20.165  0.00  0.00    +0.000 A 
ATOM     22  C   UNL     1       2.344   6.545  19.860  0.00  0.00    +0.000 A 
ATOM     23  C   UNL     1       3.054   6.450  18.666  0.00  0.00    +0.000 A 
ATOM     24  C   UNL     1       2.993   7.516  17.767  0.00  0.00    +0.000 A 
ATOM     25  F   UNL     1       3.612   7.447  16.581  0.00  0.00    +0.000 F 
ATOM     26  C   UNL     1       2.298   8.694  18.079  0.00  0.00    +0.000 A 
BRANCH  23  27
ATOM     27  O   UNL     1       3.700   5.256  18.436  0.00  0.00    +0.000 OA
BRANCH  27  28
ATOM     28  C   UNL     1       5.071   5.221  18.305  0.00  0.00    +0.000 A 
ATOM     29  C   UNL     1       5.973   5.436  19.353  0.00  0.00    +0.000 A 
ATOM     30  C   UNL     1       7.337   5.403  19.091  0.00  0.00    +0.000 A 
ATOM     31  N   UNL     1       7.910   5.118  17.903  0.00  0.00    +0.000 NA
ATOM     32  C   UNL     1       7.006   4.848  16.944  0.00  0.00    +0.000 A 
ATOM     33  N   UNL     1       7.332   4.482  15.668  0.00  0.00    +0.000 N 
ATOM     34  C   UNL     1       6.189   4.259  14.943  0.00  0.00    +0.000 A 
ATOM     35  C   UNL     1       5.113   4.507  15.771  0.00  0.00    +0.000 A 
ATOM     36  C   UNL     1       5.620   4.873  17.052  0.00  0.00    +0.000 A 
ATOM     37  H   UNL     1       8.282   4.384  15.342  0.00  0.00    +0.000 HD
ENDBRANCH  27  28
ENDBRANCH  23  27
ENDBRANCH   3  20
TORSDOF 5
ENDMDL
MODEL 6
REMARK VINA RESULT:      -8.8      2.687      3.934
REMARK  Name = 
REMARK  6 active torsions:
REMARK  status: ('A' for Active; 'I' for Inactive)
REMARK    1  A    between atoms: C_1  and  C_2
REMARK    2  A    between atoms: N_6  and  C_7
REMARK    3  A    between atoms: C_15  and  C_16
REMARK    4  A    between atoms: N_18  and  C_19
REMARK    5  A    between atoms: C_22  and  O_23
REMARK    6  A    between atoms: O_23  and  C_24
REMARK                            x       y       z     vdW  Elec       q    Type
REMARK                         _______ _______ _______ _____ _____    ______ ____
ROOT
ATOM      1  C   UNL     1       1.071  10.459  21.170  0.00  0.00    +0.000 C 
ATOM      2  O   UNL     1       1.767  10.016  22.072  0.00  0.00    +0.000 OA
ATOM      3  N   UNL     1       0.985   9.945  19.888  0.00  0.00    +0.000 N 
ATOM      4  H   UNL     1       0.421  10.479  19.231  0.00  0.00    +0.000 HD
ENDROOT
BRANCH   1  12
ATOM      5  C   UNL     1      -1.184  10.420  23.245  0.00  0.00    +0.000 C 
ATOM      6  C   UNL     1      -0.847  11.654  22.471  0.00  0.00    +0.000 A 
ATOM      7  C   UNL     1      -1.526  12.783  22.680  0.00  0.00    +0.000 A 
ATOM      8  C   UNL     1      -1.257  14.020  21.939  0.00  0.00    +0.000 A 
ATOM      9  O   UNL     1      -1.986  14.979  22.192  0.00  0.00    +0.000 OA
ATOM     10  N   UNL     1      -0.227  13.957  20.994  0.00  0.00    +0.000 N 
ATOM     11  N   UNL     1       0.498  12.794  20.728  0.00  0.00    +0.000 NA
ATOM     12  C   UNL     1       0.224  11.728  21.430  0.00  0.00    +0.000 A 
BRANCH  10  13
ATOM     13  C   UNL     1       0.145  15.106  20.222  0.00  0.00    +0.000 A 
ATOM     14  C   UNL     1       1.130  16.002  20.684  0.00  0.00    +0.000 A 
ATOM     15  C   UNL     1       1.455  17.159  19.973  0.00  0.00    +0.000 A 
ATOM     16  C   UNL     1       0.795  17.433  18.787  0.00  0.00    +0.000 A 
ATOM     17  F   UNL     1       1.086  18.555  18.116  0.00  0.00    +0.000 F 
ATOM     18  C   UNL     1      -0.165  16.559  18.290  0.00  0.00    +0.000 A 
ATOM     19  C   UNL     1      -0.476  15.388  18.995  0.00  0.00    +0.000 A 
ENDBRANCH  10  13
ENDBRANCH   1  12
BRANCH   3  20
ATOM     20  C   UNL     1       1.645   8.776  19.422  0.00  0.00    +0.000 A 
ATOM     21  C   UNL     1       2.313   8.708  18.189  0.00  0.00    +0.000 A 
ATOM     22  C   UNL     1       2.935   7.532  17.757  0.00  0.00    +0.000 A 
ATOM     23  C   UNL     1       2.905   6.390  18.552  0.00  0.00    +0.000 A 
ATOM     24  C   UNL     1       2.292   6.466  19.805  0.00  0.00    +0.000 A 
ATOM     25  F   UNL     1       2.288   5.411  20.630  0.00  0.00    +0.000 F 
ATOM     26  C   UNL     1       1.649   7.637  20.232  0.00  0.00    +0.000 A 
BRANCH  23  27
ATOM     27  O   UNL     1       3.567   5.288  18.061  0.00  0.00    +0.000 OA
BRANCH  27  28
ATOM     28  C   UNL     1       4.945   5.262  18.031  0.00  0.00    +0.000 A 
ATOM     29  C   UNL     1       5.764   5.402  19.156  0.00  0.00    +0.000 A 
ATOM     30  C   UNL     1       7.144   5.386  18.996  0.00  0.00    +0.000 A 
ATOM     31  N   UNL     1       7.806   5.185  17.838  0.00  0.00    +0.000 NA
ATOM     32  C   UNL     1       6.978   4.984  16.797  0.00  0.00    +0.000 A 
ATOM     33  N   UNL     1       7.401   4.708  15.527  0.00  0.00    +0.000 N 
ATOM     34  C   UNL     1       6.316   4.537  14.704  0.00  0.00    +0.000 A 
ATOM     35  C   UNL     1       5.180   4.727  15.463  0.00  0.00    +0.000 A 
ATOM     36  C   UNL     1       5.588   5.002  16.802  0.00  0.00    +0.000 A 
ATOM     37  H   UNL     1       8.373   4.632  15.267  0.00  0.00    +0.000 HD
ENDBRANCH  27  28
ENDBRANCH  23  27
ENDBRANCH   3  20
TORSDOF 5
ENDMDL
MODEL 7
REMARK VINA RESULT:      -8.6      1.105      1.112
REMARK  Name = 
REMARK  6 active torsions:
REMARK  status: ('A' for Active; 'I' for Inactive)
REMARK    1  A    between atoms: C_1  and  C_2
REMARK    2  A    between atoms: N_6  and  C_7
REMARK    3  A    between atoms: C_15  and  C_16
REMARK    4  A    between atoms: N_18  and  C_19
REMARK    5  A    between atoms: C_22  and  O_23
REMARK    6  A    between atoms: O_23  and  C_24
REMARK                            x       y       z     vdW  Elec       q    Type
REMARK                         _______ _______ _______ _____ _____    ______ ____
ROOT
ATOM      1  C   UNL     1       0.417  10.306  21.169  0.00  0.00    +0.000 C 
ATOM      2  O   UNL     1       0.480   9.490  22.077  0.00  0.00    +0.000 OA
ATOM      3  N   UNL     1       0.937  10.142  19.897  0.00  0.00    +0.000 N 
ATOM      4  H   UNL     1       0.872  10.950  19.282  0.00  0.00    +0.000 HD
ENDROOT
BRANCH   1  12
ATOM      5  C   UNL     1       1.887  12.919  20.528  0.00  0.00    +0.000 C 
ATOM      6  C   UNL     1       0.496  12.911  21.079  0.00  0.00    +0.000 A 
ATOM      7  C   UNL     1      -0.146  14.060  21.295  0.00  0.00    +0.000 A 
ATOM      8  C   UNL     1      -1.501  14.120  21.851  0.00  0.00    +0.000 A 
ATOM      9  O   UNL     1      -1.963  15.244  22.048  0.00  0.00    +0.000 OA
ATOM     10  N   UNL     1      -2.101  12.889  22.138  0.00  0.00    +0.000 N 
ATOM     11  N   UNL     1      -1.462  11.663  21.945  0.00  0.00    +0.000 NA
ATOM     12  C   UNL     1      -0.262  11.672  21.433  0.00  0.00    +0.000 A 
BRANCH  10  13
ATOM     13  C   UNL     1      -3.432  12.815  22.665  0.00  0.00    +0.000 A 
ATOM     14  C   UNL     1      -3.659  12.517  24.022  0.00  0.00    +0.000 A 
ATOM     15  C   UNL     1      -4.952  12.379  24.534  0.00  0.00    +0.000 A 
ATOM     16  C   UNL     1      -6.035  12.538  23.686  0.00  0.00    +0.000 A 
ATOM     17  F   UNL     1      -7.275  12.380  24.167  0.00  0.00    +0.000 F 
ATOM     18  C   UNL     1      -5.849  12.856  22.346  0.00  0.00    +0.000 A 
ATOM     19  C   UNL     1      -4.551  13.013  21.839  0.00  0.00    +0.000 A 
ENDBRANCH  10  13
ENDBRANCH   1  12
BRANCH   3  20
ATOM     20  C   UNL     1       1.578   8.970  19.413  0.00  0.00    +0.000 A 
ATOM     21  C   UNL     1       2.169   8.884  18.142  0.00  0.00    +0.000 A 
ATOM     22  C   UNL     1       2.775   7.705  17.695  0.00  0.00    +0.000 A 
ATOM     23  C   UNL     1       2.804   6.578  18.512  0.00  0.00    +0.000 A 
ATOM     24  C   UNL     1       2.268   6.673  19.798  0.00  0.00    +0.000 A 
ATOM     25  F   UNL     1       2.326   5.633  20.641  0.00  0.00    +0.000 F 
ATOM     26  C   UNL     1       1.643   7.847  20.242  0.00  0.00    +0.000 A 
BRANCH  23  27
ATOM     27  O   UNL     1       3.445   5.473  18.001  0.00  0.00    +0.000 OA
BRANCH  27  28
ATOM     28  C   UNL     1       4.816   5.364  18.085  0.00  0.00    +0.000 A 
ATOM     29  C   UNL     1       5.541   5.402  19.281  0.00  0.00    +0.000 A 
ATOM     30  C   UNL     1       6.927   5.309  19.237  0.00  0.00    +0.000 A 
ATOM     31  N   UNL     1       7.674   5.121  18.130  0.00  0.00    +0.000 NA
ATOM     32  C   UNL     1       6.930   5.018  17.014  0.00  0.00    +0.000 A 
ATOM     33  N   UNL     1       7.445   4.775  15.771  0.00  0.00    +0.000 N 
ATOM     34  C   UNL     1       6.428   4.708  14.853  0.00  0.00    +0.000 A 
ATOM     35  C   UNL     1       5.242   4.933  15.523  0.00  0.00    +0.000 A 
ATOM     36  C   UNL     1       5.548   5.121  16.903  0.00  0.00    +0.000 A 
ATOM     37  H   UNL     1       8.430   4.652  15.591  0.00  0.00    +0.000 HD
ENDBRANCH  27  28
ENDBRANCH  23  27
ENDBRANCH   3  20
TORSDOF 5
ENDMDL
MODEL 8
REMARK VINA RESULT:      -8.6      1.055      2.137
REMARK  Name = 
REMARK  6 active torsions:
REMARK  status: ('A' for Active; 'I' for Inactive)
REMARK    1  A    between atoms: C_1  and  C_2
REMARK    2  A    between atoms: N_6  and  C_7
REMARK    3  A    between atoms: C_15  and  C_16
REMARK    4  A    between atoms: N_18  and  C_19
REMARK    5  A    between atoms: C_22  and  O_23
REMARK    6  A    between atoms: O_23  and  C_24
REMARK                            x       y       z     vdW  Elec       q    Type
REMARK                         _______ _______ _______ _____ _____    ______ ____
ROOT
ATOM      1  C   UNL     1       0.359  10.207  19.015  0.00  0.00    +0.000 C 
ATOM      2  O   UNL     1      -0.180   9.832  17.983  0.00  0.00    +0.000 OA
ATOM      3  N   UNL     1       1.320   9.509  19.725  0.00  0.00    +0.000 N 
ATOM      4  H   UNL     1       1.608   9.922  20.608  0.00  0.00    +0.000 HD
ENDROOT
BRANCH   1  12
ATOM      5  C   UNL     1       1.912  12.771  18.378  0.00  0.00    +0.000 C 
ATOM      6  C   UNL     1       0.712  12.777  19.271  0.00  0.00    +0.000 A 
ATOM      7  C   UNL     1       0.282  13.921  19.808  0.00  0.00    +0.000 A 
ATOM      8  C   UNL     1      -0.875  13.989  20.707  0.00  0.00    +0.000 A 
ATOM      9  O   UNL     1      -1.140  15.097  21.174  0.00  0.00    +0.000 OA
ATOM     10  N   UNL     1      -1.522  12.776  20.968  0.00  0.00    +0.000 N 
ATOM     11  N   UNL     1      -1.097  11.554  20.444  0.00  0.00    +0.000 NA
ATOM     12  C   UNL     1      -0.070  11.557  19.638  0.00  0.00    +0.000 A 
BRANCH  10  13
ATOM     13  C   UNL     1      -2.678  12.717  21.814  0.00  0.00    +0.000 A 
ATOM     14  C   UNL     1      -3.964  12.975  21.302  0.00  0.00    +0.000 A 
ATOM     15  C   UNL     1      -5.090  12.983  22.128  0.00  0.00    +0.000 A 
ATOM     16  C   UNL     1      -4.939  12.733  23.481  0.00  0.00    +0.000 A 
ATOM     17  F   UNL     1      -6.014  12.767  24.281  0.00  0.00    +0.000 F 
ATOM     18  C   UNL     1      -3.688  12.451  24.016  0.00  0.00    +0.000 A 
ATOM     19  C   UNL     1      -2.561  12.424  23.182  0.00  0.00    +0.000 A 
ENDBRANCH  10  13
ENDBRANCH   1  12
BRANCH   3  20
ATOM     20  C   UNL     1       1.890   8.265  19.339  0.00  0.00    +0.000 A 
ATOM     21  C   UNL     1       1.739   7.085  20.084  0.00  0.00    +0.000 A 
ATOM     22  C   UNL     1       2.331   5.884  19.680  0.00  0.00    +0.000 A 
ATOM     23  C   UNL     1       3.093   5.835  18.515  0.00  0.00    +0.000 A 
ATOM     24  C   UNL     1       3.201   6.991  17.740  0.00  0.00    +0.000 A 
ATOM     25  F   UNL     1       3.874   6.978  16.581  0.00  0.00    +0.000 F 
ATOM     26  C   UNL     1       2.625   8.202  18.152  0.00  0.00    +0.000 A 
BRANCH  23  27
ATOM     27  O   UNL     1       3.613   4.605  18.180  0.00  0.00    +0.000 OA
BRANCH  27  28
ATOM     28  C   UNL     1       4.798   4.519  17.481  0.00  0.00    +0.000 A 
ATOM     29  C   UNL     1       4.898   4.135  16.139  0.00  0.00    +0.000 A 
ATOM     30  C   UNL     1       6.154   4.058  15.549  0.00  0.00    +0.000 A 
ATOM     31  N   UNL     1       7.326   4.381  16.133  0.00  0.00    +0.000 NA
ATOM     32  C   UNL     1       7.173   4.813  17.398  0.00  0.00    +0.000 A 
ATOM     33  N   UNL     1       8.200   5.247  18.187  0.00  0.00    +0.000 N 
ATOM     34  C   UNL     1       7.715   5.636  19.409  0.00  0.00    +0.000 A 
ATOM     35  C   UNL     1       6.350   5.427  19.404  0.00  0.00    +0.000 A 
ATOM     36  C   UNL     1       5.991   4.913  18.123  0.00  0.00    +0.000 A 
ATOM     37  H   UNL     1       9.162   5.279  17.882  0.00  0.00    +0.000 HD
ENDBRANCH  27  28
ENDBRANCH  23  27
ENDBRANCH   3  20
TORSDOF 5
ENDMDL
MODEL 9
REMARK VINA RESULT:      -8.6      2.757      3.984
REMARK  Name = 
REMARK  6 active torsions:
REMARK  status: ('A' for Active; 'I' for Inactive)
REMARK    1  A    between atoms: C_1  and  C_2
REMARK    2  A    between atoms: N_6  and  C_7
REMARK    3  A    between atoms: C_15  and  C_16
REMARK    4  A    between atoms: N_18  and  C_19
REMARK    5  A    between atoms: C_22  and  O_23
REMARK    6  A    between atoms: O_23  and  C_24
REMARK                            x       y       z     vdW  Elec       q    Type
REMARK                         _______ _______ _______ _____ _____    ______ ____
ROOT
ATOM      1  C   UNL     1       0.179  10.369  19.905  0.00  0.00    +0.000 C 
ATOM      2  O   UNL     1      -0.713   9.843  19.255  0.00  0.00    +0.000 OA
ATOM      3  N   UNL     1       1.460   9.873  20.069  0.00  0.00    +0.000 N 
ATOM      4  H   UNL     1       2.059  10.390  20.708  0.00  0.00    +0.000 HD
ENDROOT
BRANCH   1  12
ATOM      5  C   UNL     1      -0.898  10.307  22.774  0.00  0.00    +0.000 C 
ATOM      6  C   UNL     1      -0.621  11.593  22.064  0.00  0.00    +0.000 A 
ATOM      7  C   UNL     1      -0.831  12.758  22.680  0.00  0.00    +0.000 A 
ATOM      8  C   UNL     1      -0.598  14.053  22.032  0.00  0.00    +0.000 A 
ATOM      9  O   UNL     1      -0.877  15.053  22.692  0.00  0.00    +0.000 OA
ATOM     10  N   UNL     1      -0.126  14.003  20.715  0.00  0.00    +0.000 N 
ATOM     11  N   UNL     1       0.091  12.809  20.025  0.00  0.00    +0.000 NA
ATOM     12  C   UNL     1      -0.119  11.688  20.659  0.00  0.00    +0.000 A 
BRANCH  10  13
ATOM     13  C   UNL     1       0.161  15.201  19.982  0.00  0.00    +0.000 A 
ATOM     14  C   UNL     1      -0.810  15.792  19.151  0.00  0.00    +0.000 A 
ATOM     15  C   UNL     1      -0.524  16.922  18.382  0.00  0.00    +0.000 A 
ATOM     16  C   UNL     1       0.745  17.475  18.438  0.00  0.00    +0.000 A 
ATOM     17  F   UNL     1       1.031  18.543  17.682  0.00  0.00    +0.000 F 
ATOM     18  C   UNL     1       1.720  16.932  19.266  0.00  0.00    +0.000 A 
ATOM     19  C   UNL     1       1.425  15.809  20.051  0.00  0.00    +0.000 A 
ENDBRANCH  10  13
ENDBRANCH   1  12
BRANCH   3  20
ATOM     20  C   UNL     1       1.975   8.698  19.457  0.00  0.00    +0.000 A 
ATOM     21  C   UNL     1       2.499   8.674  18.155  0.00  0.00    +0.000 A 
ATOM     22  C   UNL     1       2.979   7.493  17.580  0.00  0.00    +0.000 A 
ATOM     23  C   UNL     1       2.946   6.301  18.299  0.00  0.00    +0.000 A 
ATOM     24  C   UNL     1       2.479   6.327  19.614  0.00  0.00    +0.000 A 
ATOM     25  F   UNL     1       2.483   5.217  20.364  0.00  0.00    +0.000 F 
ATOM     26  C   UNL     1       1.978   7.506  20.186  0.00  0.00    +0.000 A 
BRANCH  23  27
ATOM     27  O   UNL     1       3.465   5.194  17.665  0.00  0.00    +0.000 OA
BRANCH  27  28
ATOM     28  C   UNL     1       4.829   5.022  17.573  0.00  0.00    +0.000 A 
ATOM     29  C   UNL     1       5.703   5.024  18.665  0.00  0.00    +0.000 A 
ATOM     30  C   UNL     1       7.066   4.869  18.444  0.00  0.00    +0.000 A 
ATOM     31  N   UNL     1       7.655   4.650  17.250  0.00  0.00    +0.000 NA
ATOM     32  C   UNL     1       6.770   4.584  16.239  0.00  0.00    +0.000 A 
ATOM     33  N   UNL     1       7.109   4.322  14.942  0.00  0.00    +0.000 N 
ATOM     34  C   UNL     1       5.980   4.304  14.162  0.00  0.00    +0.000 A 
ATOM     35  C   UNL     1       4.902   4.580  14.978  0.00  0.00    +0.000 A 
ATOM     36  C   UNL     1       5.391   4.750  16.307  0.00  0.00    +0.000 A 
ATOM     37  H   UNL     1       8.056   4.155  14.636  0.00  0.00    +0.000 HD
ENDBRANCH  27  28
ENDBRANCH  23  27
ENDBRANCH   3  20
TORSDOF 5
ENDMDL
