MODEL 1
REMARK VINA RESULT:      -7.0      0.000      0.000
REMARK  Name = 
REMARK  5 active torsions:
REMARK  status: ('A' for Active; 'I' for Inactive)
REMARK    1  A    between atoms: C_1  and  C_2
REMARK    2  A    between atoms: C_2  and  C_3
REMARK    3  A    between atoms: C_12  and  S_13
REMARK    4  A    between atoms: S_13  and  C_14
REMARK    5  A    between atoms: N_22  and  C_23
REMARK                            x       y       z     vdW  Elec       q    Type
REMARK                         _______ _______ _______ _____ _____    ______ ____
ROOT
ATOM      1  C   UNL     1       1.053   9.253  20.013  0.00  0.00    +0.000 A 
ATOM      2  C   UNL     1       0.420  10.176  20.819  0.00  0.00    +0.000 A 
ATOM      3  C   UNL     1      -0.331  11.153  20.071  0.00  0.00    +0.000 A 
ATOM      4  C   UNL     1      -0.197  10.933  18.718  0.00  0.00    +0.000 A 
ATOM      5  S   UNL     1       0.907   9.677  18.365  0.00  0.00    +0.000 S 
ATOM      6  N   UNL     1      -0.866  11.549  17.711  0.00  0.00    +0.000 N 
ATOM      7  C   UNL     1      -2.280  11.628  17.839  0.00  0.00    +0.000 A 
ATOM      8  C   UNL     1      -3.055  11.105  16.786  0.00  0.00    +0.000 A 
ATOM      9  C   UNL     1      -4.445  11.018  16.889  0.00  0.00    +0.000 A 
ATOM     10  C   UNL     1      -5.096  11.482  18.031  0.00  0.00    +0.000 A 
ATOM     11  C   UNL     1      -4.324  12.009  19.075  0.00  0.00    +0.000 A 
ATOM     12  C   UNL     1      -2.922  12.074  19.014  0.00  0.00    +0.000 A 
ATOM     13  N   UNL     1      -2.294  12.630  20.150  0.00  0.00    +0.000 NA
ATOM     14  C   UNL     1      -1.163  12.218  20.634  0.00  0.00    +0.000 C 
ATOM     15  N   UNL     1      -0.624  12.710  21.803  0.00  0.00    +0.000 N 
ATOM     16  C   UNL     1      -1.399  12.690  23.046  0.00  0.00    +0.000 C 
ATOM     17  C   UNL     1      -1.695  14.099  23.589  0.00  0.00    +0.000 C 
ATOM     18  N   UNL     1      -0.458  14.900  23.722  0.00  0.00    +0.000 NA
ATOM     19  C   UNL     1      -0.743  16.207  24.307  0.00  0.00    +0.000 C 
ATOM     20  C   UNL     1       0.147  15.027  22.378  0.00  0.00    +0.000 C 
ATOM     21  C   UNL     1       0.508  13.649  21.772  0.00  0.00    +0.000 C 
ATOM     22  H   UNL     1      -0.590  11.261  16.778  0.00  0.00    +0.000 HD
ENDROOT
BRANCH   1  24
ATOM     23  C   UNL     1       2.361   7.294  19.196  0.00  0.00    +0.000 C 
ATOM     24  C   UNL     1       1.785   8.008  20.413  0.00  0.00    +0.000 C 
ENDBRANCH   1  24
BRANCH  10  25
ATOM     25  S   UNL     1      -6.863  11.367  18.271  0.00  0.00    +0.000 S 
ATOM     26  C   UNL     1      -7.010   9.956  19.400  0.00  0.00    +0.000 C 
ENDBRANCH  10  25
TORSDOF 2
ENDMDL
MODEL 2
REMARK VINA RESULT:      -6.2      2.915      5.768
REMARK  Name = 
REMARK  5 active torsions:
REMARK  status: ('A' for Active; 'I' for Inactive)
REMARK    1  A    between atoms: C_1  and  C_2
REMARK    2  A    between atoms: C_2  and  C_3
REMARK    3  A    between atoms: C_12  and  S_13
REMARK    4  A    between atoms: S_13  and  C_14
REMARK    5  A    between atoms: N_22  and  C_23
REMARK                            x       y       z     vdW  Elec       q    Type
REMARK                         _______ _______ _______ _____ _____    ______ ____
ROOT
ATOM      1  C   UNL     1       0.726  13.847  19.492  0.00  0.00    +0.000 A 
ATOM      2  C   UNL     1       1.092  12.586  19.071  0.00  0.00    +0.000 A 
ATOM      3  C   UNL     1      -0.020  11.674  18.995  0.00  0.00    +0.000 A 
ATOM      4  C   UNL     1      -1.182  12.294  19.399  0.00  0.00    +0.000 A 
ATOM      5  S   UNL     1      -0.910  13.878  19.982  0.00  0.00    +0.000 S 
ATOM      6  N   UNL     1      -2.447  11.808  19.327  0.00  0.00    +0.000 N 
ATOM      7  C   UNL     1      -2.849  11.258  18.078  0.00  0.00    +0.000 A 
ATOM      8  C   UNL     1      -4.011  11.786  17.483  0.00  0.00    +0.000 A 
ATOM      9  C   UNL     1      -4.400  11.402  16.198  0.00  0.00    +0.000 A 
ATOM     10  C   UNL     1      -3.657  10.457  15.491  0.00  0.00    +0.000 A 
ATOM     11  C   UNL     1      -2.504   9.928  16.087  0.00  0.00    +0.000 A 
ATOM     12  C   UNL     1      -2.069  10.324  17.363  0.00  0.00    +0.000 A 
ATOM     13  N   UNL     1      -0.888   9.699  17.818  0.00  0.00    +0.000 NA
ATOM     14  C   UNL     1       0.028  10.290  18.520  0.00  0.00    +0.000 C 
ATOM     15  N   UNL     1       1.218   9.685  18.863  0.00  0.00    +0.000 N 
ATOM     16  C   UNL     1       2.086   9.113  17.832  0.00  0.00    +0.000 C 
ATOM     17  C   UNL     1       2.255   7.589  17.968  0.00  0.00    +0.000 C 
ATOM     18  N   UNL     1       2.692   7.211  19.330  0.00  0.00    +0.000 NA
ATOM     19  C   UNL     1       2.919   5.772  19.426  0.00  0.00    +0.000 C 
ATOM     20  C   UNL     1       1.652   7.661  20.282  0.00  0.00    +0.000 C 
ATOM     21  C   UNL     1       1.444   9.195  20.233  0.00  0.00    +0.000 C 
ATOM     22  H   UNL     1      -3.159  12.416  19.715  0.00  0.00    +0.000 HD
ENDROOT
BRANCH   1  24
ATOM     23  C   UNL     1       0.735  16.317  19.146  0.00  0.00    +0.000 C 
ATOM     24  C   UNL     1       1.555  15.095  19.543  0.00  0.00    +0.000 C 
ENDBRANCH   1  24
BRANCH  10  25
ATOM     25  S   UNL     1      -4.050   9.943  13.826  0.00  0.00    +0.000 S 
ATOM     26  C   UNL     1      -2.430   9.450  13.178  0.00  0.00    +0.000 C 
ENDBRANCH  10  25
TORSDOF 2
ENDMDL
MODEL 3
REMARK VINA RESULT:      -6.1      3.454      5.499
REMARK  Name = 
REMARK  5 active torsions:
REMARK  status: ('A' for Active; 'I' for Inactive)
REMARK    1  A    between atoms: C_1  and  C_2
REMARK    2  A    between atoms: C_2  and  C_3
REMARK    3  A    between atoms: C_12  and  S_13
REMARK    4  A    between atoms: S_13  and  C_14
REMARK    5  A    between atoms: N_22  and  C_23
REMARK                            x       y       z     vdW  Elec       q    Type
REMARK                         _______ _______ _______ _____ _____    ______ ____
ROOT
ATOM      1  C   UNL     1       2.990  14.048  19.764  0.00  0.00    +0.000 A 
ATOM      2  C   UNL     1       1.958  13.583  20.552  0.00  0.00    +0.000 A 
ATOM      3  C   UNL     1       1.254  12.475  19.959  0.00  0.00    +0.000 A 
ATOM      4  C   UNL     1       1.778  12.176  18.721  0.00  0.00    +0.000 A 
ATOM      5  S   UNL     1       2.984  13.286  18.236  0.00  0.00    +0.000 S 
ATOM      6  N   UNL     1       1.479  11.114  17.931  0.00  0.00    +0.000 N 
ATOM      7  C   UNL     1       1.491   9.834  18.551  0.00  0.00    +0.000 A 
ATOM      8  C   UNL     1       2.314   8.845  17.978  0.00  0.00    +0.000 A 
ATOM      9  C   UNL     1       2.490   7.607  18.598  0.00  0.00    +0.000 A 
ATOM     10  C   UNL     1       1.823   7.315  19.787  0.00  0.00    +0.000 A 
ATOM     11  C   UNL     1       1.000   8.297  20.353  0.00  0.00    +0.000 A 
ATOM     12  C   UNL     1       0.833   9.564  19.770  0.00  0.00    +0.000 A 
ATOM     13  N   UNL     1      -0.028  10.440  20.467  0.00  0.00    +0.000 NA
ATOM     14  C   UNL     1       0.160  11.719  20.572  0.00  0.00    +0.000 C 
ATOM     15  N   UNL     1      -0.640  12.534  21.344  0.00  0.00    +0.000 N 
ATOM     16  C   UNL     1      -0.852  12.240  22.763  0.00  0.00    +0.000 C 
ATOM     17  C   UNL     1      -2.320  11.919  23.095  0.00  0.00    +0.000 C 
ATOM     18  N   UNL     1      -3.231  12.978  22.608  0.00  0.00    +0.000 NA
ATOM     19  C   UNL     1      -4.611  12.699  22.994  0.00  0.00    +0.000 C 
ATOM     20  C   UNL     1      -3.084  13.063  21.138  0.00  0.00    +0.000 C 
ATOM     21  C   UNL     1      -1.637  13.418  20.719  0.00  0.00    +0.000 C 
ATOM     22  H   UNL     1       1.957  11.101  17.037  0.00  0.00    +0.000 HD
ENDROOT
BRANCH   1  24
ATOM     23  C   UNL     1       5.040  15.219  18.961  0.00  0.00    +0.000 C 
ATOM     24  C   UNL     1       4.038  15.066  20.099  0.00  0.00    +0.000 C 
ENDBRANCH   1  24
BRANCH  10  25
ATOM     25  S   UNL     1       2.027   5.778  20.676  0.00  0.00    +0.000 S 
ATOM     26  C   UNL     1       2.014   4.552  19.341  0.00  0.00    +0.000 C 
ENDBRANCH  10  25
TORSDOF 2
ENDMDL
MODEL 4
REMARK VINA RESULT:      -6.1      1.222      1.478
REMARK  Name = 
REMARK  5 active torsions:
REMARK  status: ('A' for Active; 'I' for Inactive)
REMARK    1  A    between atoms: C_1  and  C_2
REMARK    2  A    between atoms: C_2  and  C_3
REMARK    3  A    between atoms: C_12  and  S_13
REMARK    4  A    between atoms: S_13  and  C_14
REMARK    5  A    between atoms: N_22  and  C_23
REMARK                            x       y       z     vdW  Elec       q    Type
REMARK                         _______ _______ _______ _____ _____    ______ ____
ROOT
ATOM      1  C   UNL     1       0.378   9.940  19.693  0.00  0.00    +0.000 A 
ATOM      2  C   UNL     1      -0.021  10.851  20.649  0.00  0.00    +0.000 A 
ATOM      3  C   UNL     1      -1.056  11.737  20.182  0.00  0.00    +0.000 A 
ATOM      4  C   UNL     1      -1.367  11.467  18.868  0.00  0.00    +0.000 A 
ATOM      5  S   UNL     1      -0.346  10.278  18.184  0.00  0.00    +0.000 S 
ATOM      6  N   UNL     1      -2.384  11.988  18.135  0.00  0.00    +0.000 N 
ATOM      7  C   UNL     1      -3.674  11.973  18.733  0.00  0.00    +0.000 A 
ATOM      8  C   UNL     1      -4.712  11.349  18.014  0.00  0.00    +0.000 A 
ATOM      9  C   UNL     1      -5.975  11.169  18.583  0.00  0.00    +0.000 A 
ATOM     10  C   UNL     1      -6.239  11.636  19.870  0.00  0.00    +0.000 A 
ATOM     11  C   UNL     1      -5.208  12.262  20.581  0.00  0.00    +0.000 A 
ATOM     12  C   UNL     1      -3.918  12.424  20.048  0.00  0.00    +0.000 A 
ATOM     13  N   UNL     1      -2.992  13.073  20.894  0.00  0.00    +0.000 NA
ATOM     14  C   UNL     1      -1.735  12.765  20.974  0.00  0.00    +0.000 C 
ATOM     15  N   UNL     1      -0.877  13.345  21.882  0.00  0.00    +0.000 N 
ATOM     16  C   UNL     1      -1.185  13.326  23.314  0.00  0.00    +0.000 C 
ATOM     17  C   UNL     1      -1.395  14.734  23.900  0.00  0.00    +0.000 C 
ATOM     18  N   UNL     1      -0.256  15.625  23.592  0.00  0.00    +0.000 NA
ATOM     19  C   UNL     1      -0.433  16.934  24.215  0.00  0.00    +0.000 C 
ATOM     20  C   UNL     1      -0.150  15.735  22.120  0.00  0.00    +0.000 C 
ATOM     21  C   UNL     1       0.098  14.360  21.452  0.00  0.00    +0.000 C 
ATOM     22  H   UNL     1      -2.414  11.679  17.170  0.00  0.00    +0.000 HD
ENDROOT
BRANCH   1  24
ATOM     23  C   UNL     1       1.120   8.096  21.200  0.00  0.00    +0.000 C 
ATOM     24  C   UNL     1       1.301   8.769  19.844  0.00  0.00    +0.000 C 
ENDBRANCH   1  24
BRANCH  10  25
ATOM     25  S   UNL     1      -7.807  11.406  20.696  0.00  0.00    +0.000 S 
ATOM     26  C   UNL     1      -7.917   9.601  20.827  0.00  0.00    +0.000 C 
ENDBRANCH  10  25
TORSDOF 2
ENDMDL
MODEL 5
REMARK VINA RESULT:      -5.9      1.163      1.372
REMARK  Name = 
REMARK  5 active torsions:
REMARK  status: ('A' for Active; 'I' for Inactive)
REMARK    1  A    between atoms: C_1  and  C_2
REMARK    2  A    between atoms: C_2  and  C_3
REMARK    3  A    between atoms: C_12  and  S_13
REMARK    4  A    between atoms: S_13  and  C_14
REMARK    5  A    between atoms: N_22  and  C_23
REMARK                            x       y       z     vdW  Elec       q    Type
REMARK                         _______ _______ _______ _____ _____    ______ ____
ROOT
ATOM      1  C   UNL     1       0.611   9.995  21.408  0.00  0.00    +0.000 A 
ATOM      2  C   UNL     1      -0.211  10.898  22.049  0.00  0.00    +0.000 A 
ATOM      3  C   UNL     1      -0.886  11.787  21.138  0.00  0.00    +0.000 A 
ATOM      4  C   UNL     1      -0.510  11.527  19.839  0.00  0.00    +0.000 A 
ATOM      5  S   UNL     1       0.721  10.344  19.740  0.00  0.00    +0.000 S 
ATOM      6  N   UNL     1      -1.036  12.052  18.704  0.00  0.00    +0.000 N 
ATOM      7  C   UNL     1      -2.453  12.031  18.589  0.00  0.00    +0.000 A 
ATOM      8  C   UNL     1      -3.000  11.411  17.449  0.00  0.00    +0.000 A 
ATOM      9  C   UNL     1      -4.379  11.225  17.321  0.00  0.00    +0.000 A 
ATOM     10  C   UNL     1      -5.244  11.682  18.314  0.00  0.00    +0.000 A 
ATOM     11  C   UNL     1      -4.699  12.304  19.445  0.00  0.00    +0.000 A 
ATOM     12  C   UNL     1      -3.315  12.472  19.616  0.00  0.00    +0.000 A 
ATOM     13  N   UNL     1      -2.928  13.115  20.812  0.00  0.00    +0.000 NA
ATOM     14  C   UNL     1      -1.872  12.808  21.499  0.00  0.00    +0.000 C 
ATOM     15  N   UNL     1      -1.575  13.383  22.716  0.00  0.00    +0.000 N 
ATOM     16  C   UNL     1      -2.548  13.352  23.810  0.00  0.00    +0.000 C 
ATOM     17  C   UNL     1      -3.026  14.755  24.225  0.00  0.00    +0.000 C 
ATOM     18  N   UNL     1      -1.887  15.651  24.523  0.00  0.00    +0.000 NA
ATOM     19  C   UNL     1      -2.354  16.954  24.986  0.00  0.00    +0.000 C 
ATOM     20  C   UNL     1      -1.071  15.771  23.295  0.00  0.00    +0.000 C 
ATOM     21  C   UNL     1      -0.519  14.402  22.827  0.00  0.00    +0.000 C 
ATOM     22  H   UNL     1      -0.586  11.750  17.847  0.00  0.00    +0.000 HD
ENDROOT
BRANCH   1  24
ATOM     23  C   UNL     1       1.455   7.689  20.975  0.00  0.00    +0.000 C 
ATOM     24  C   UNL     1       1.346   8.824  21.986  0.00  0.00    +0.000 C 
ENDBRANCH   1  24
BRANCH  10  25
ATOM     25  S   UNL     1      -7.014  11.444  18.260  0.00  0.00    +0.000 S 
ATOM     26  C   UNL     1      -7.435  11.256  20.014  0.00  0.00    +0.000 C 
ENDBRANCH  10  25
TORSDOF 2
ENDMDL
MODEL 6
REMARK VINA RESULT:      -5.9      2.353      2.934
REMARK  Name = 
REMARK  5 active torsions:
REMARK  status: ('A' for Active; 'I' for Inactive)
REMARK    1  A    between atoms: C_1  and  C_2
REMARK    2  A    between atoms: C_2  and  C_3
REMARK    3  A    between atoms: C_12  and  S_13
REMARK    4  A    between atoms: S_13  and  C_14
REMARK    5  A    between atoms: N_22  and  C_23
REMARK                            x       y       z     vdW  Elec       q    Type
REMARK                         _______ _______ _______ _____ _____    ______ ____
ROOT
ATOM      1  C   UNL     1      -0.571  10.462  18.929  0.00  0.00    +0.000 A 
ATOM      2  C   UNL     1      -0.675  11.512  19.817  0.00  0.00    +0.000 A 
ATOM      3  C   UNL     1      -1.887  12.271  19.649  0.00  0.00    +0.000 A 
ATOM      4  C   UNL     1      -2.633  11.768  18.605  0.00  0.00    +0.000 A 
ATOM      5  S   UNL     1      -1.827  10.511  17.772  0.00  0.00    +0.000 S 
ATOM      6  N   UNL     1      -3.891  12.122  18.242  0.00  0.00    +0.000 N 
ATOM      7  C   UNL     1      -4.865  12.171  19.277  0.00  0.00    +0.000 A 
ATOM      8  C   UNL     1      -6.031  11.400  19.105  0.00  0.00    +0.000 A 
ATOM      9  C   UNL     1      -6.973  11.281  20.128  0.00  0.00    +0.000 A 
ATOM     10  C   UNL     1      -6.790  11.956  21.334  0.00  0.00    +0.000 A 
ATOM     11  C   UNL     1      -5.633  12.728  21.502  0.00  0.00    +0.000 A 
ATOM     12  C   UNL     1      -4.650  12.835  20.503  0.00  0.00    +0.000 A 
ATOM     13  N   UNL     1      -3.544  13.649  20.831  0.00  0.00    +0.000 NA
ATOM     14  C   UNL     1      -2.322  13.399  20.476  0.00  0.00    +0.000 C 
ATOM     15  N   UNL     1      -1.249  14.154  20.895  0.00  0.00    +0.000 N 
ATOM     16  C   UNL     1      -1.007  14.374  22.323  0.00  0.00    +0.000 C 
ATOM     17  C   UNL     1      -1.118  15.855  22.728  0.00  0.00    +0.000 C 
ATOM     18  N   UNL     1      -0.261  16.714  21.884  0.00  0.00    +0.000 NA
ATOM     19  C   UNL     1      -0.319  18.105  22.325  0.00  0.00    +0.000 C 
ATOM     20  C   UNL     1      -0.713  16.570  20.483  0.00  0.00    +0.000 C 
ATOM     21  C   UNL     1      -0.599  15.109  19.983  0.00  0.00    +0.000 C 
ATOM     22  H   UNL     1      -4.245  11.650  17.417  0.00  0.00    +0.000 HD
ENDROOT
BRANCH   1  24
ATOM     23  C   UNL     1       1.674   9.777  18.085  0.00  0.00    +0.000 C 
ATOM     24  C   UNL     1       0.449   9.364  18.892  0.00  0.00    +0.000 C 
ENDBRANCH   1  24
BRANCH  10  25
ATOM     25  S   UNL     1      -7.916  11.824  22.715  0.00  0.00    +0.000 S 
ATOM     26  C   UNL     1      -7.241  13.034  23.885  0.00  0.00    +0.000 C 
ENDBRANCH  10  25
TORSDOF 2
ENDMDL
MODEL 7
REMARK VINA RESULT:      -5.8      2.983      5.681
REMARK  Name = 
REMARK  5 active torsions:
REMARK  status: ('A' for Active; 'I' for Inactive)
REMARK    1  A    between atoms: C_1  and  C_2
REMARK    2  A    between atoms: C_2  and  C_3
REMARK    3  A    between atoms: C_12  and  S_13
REMARK    4  A    between atoms: S_13  and  C_14
REMARK    5  A    between atoms: N_22  and  C_23
REMARK                            x       y       z     vdW  Elec       q    Type
REMARK                         _______ _______ _______ _____ _____    ______ ____
ROOT
ATOM      1  C   UNL     1      -2.713  10.836  17.633  0.00  0.00    +0.000 A 
ATOM      2  C   UNL     1      -2.855  11.884  18.518  0.00  0.00    +0.000 A 
ATOM      3  C   UNL     1      -1.644  12.178  19.240  0.00  0.00    +0.000 A 
ATOM      4  C   UNL     1      -0.643  11.302  18.881  0.00  0.00    +0.000 A 
ATOM      5  S   UNL     1      -1.190  10.084  17.815  0.00  0.00    +0.000 S 
ATOM      6  N   UNL     1       0.667  11.354  19.234  0.00  0.00    +0.000 N 
ATOM      7  C   UNL     1       1.323  12.605  19.069  0.00  0.00    +0.000 A 
ATOM      8  C   UNL     1       2.493  12.623  18.285  0.00  0.00    +0.000 A 
ATOM      9  C   UNL     1       3.123  13.826  17.959  0.00  0.00    +0.000 A 
ATOM     10  C   UNL     1       2.618  15.035  18.436  0.00  0.00    +0.000 A 
ATOM     11  C   UNL     1       1.458  15.015  19.221  0.00  0.00    +0.000 A 
ATOM     12  C   UNL     1       0.783  13.823  19.533  0.00  0.00    +0.000 A 
ATOM     13  N   UNL     1      -0.372  13.975  20.331  0.00  0.00    +0.000 NA
ATOM     14  C   UNL     1      -1.451  13.269  20.197  0.00  0.00    +0.000 C 
ATOM     15  N   UNL     1      -2.599  13.508  20.921  0.00  0.00    +0.000 N 
ATOM     16  C   UNL     1      -3.220  14.835  20.915  0.00  0.00    +0.000 C 
ATOM     17  C   UNL     1      -3.224  15.500  22.303  0.00  0.00    +0.000 C 
ATOM     18  N   UNL     1      -3.822  14.615  23.327  0.00  0.00    +0.000 NA
ATOM     19  C   UNL     1      -3.888  15.285  24.622  0.00  0.00    +0.000 C 
ATOM     20  C   UNL     1      -3.006  13.382  23.393  0.00  0.00    +0.000 C 
ATOM     21  C   UNL     1      -2.978  12.631  22.040  0.00  0.00    +0.000 C 
ATOM     22  H   UNL     1       1.232  10.586  18.887  0.00  0.00    +0.000 HD
ENDROOT
BRANCH   1  24
ATOM     23  C   UNL     1      -3.070  10.382  15.207  0.00  0.00    +0.000 C 
ATOM     24  C   UNL     1      -3.683  10.343  16.602  0.00  0.00    +0.000 C 
ENDBRANCH   1  24
BRANCH  10  25
ATOM     25  S   UNL     1       3.328  16.624  18.030  0.00  0.00    +0.000 S 
ATOM     26  C   UNL     1       4.951  16.542  18.834  0.00  0.00    +0.000 C 
ENDBRANCH  10  25
TORSDOF 2
ENDMDL
MODEL 8
REMARK VINA RESULT:      -5.8      1.632      1.891
REMARK  Name = 
REMARK  5 active torsions:
REMARK  status: ('A' for Active; 'I' for Inactive)
REMARK    1  A    between atoms: C_1  and  C_2
REMARK    2  A    between atoms: C_2  and  C_3
REMARK    3  A    between atoms: C_12  and  S_13
REMARK    4  A    between atoms: S_13  and  C_14
REMARK    5  A    between atoms: N_22  and  C_23
REMARK                            x       y       z     vdW  Elec       q    Type
REMARK                         _______ _______ _______ _____ _____    ______ ____
ROOT
ATOM      1  C   UNL     1       0.260  10.078  19.230  0.00  0.00    +0.000 A 
ATOM      2  C   UNL     1      -0.039  11.045  20.166  0.00  0.00    +0.000 A 
ATOM      3  C   UNL     1      -1.149  11.878  19.779  0.00  0.00    +0.000 A 
ATOM      4  C   UNL     1      -1.617  11.513  18.536  0.00  0.00    +0.000 A 
ATOM      5  S   UNL     1      -0.660  10.298  17.807  0.00  0.00    +0.000 S 
ATOM      6  N   UNL     1      -2.733  11.963  17.908  0.00  0.00    +0.000 N 
ATOM      7  C   UNL     1      -3.935  11.966  18.666  0.00  0.00    +0.000 A 
ATOM      8  C   UNL     1      -5.040  11.275  18.130  0.00  0.00    +0.000 A 
ATOM      9  C   UNL     1      -6.214  11.111  18.868  0.00  0.00    +0.000 A 
ATOM     10  C   UNL     1      -6.325  11.662  20.144  0.00  0.00    +0.000 A 
ATOM     11  C   UNL     1      -5.228  12.354  20.673  0.00  0.00    +0.000 A 
ATOM     12  C   UNL     1      -4.022  12.502  19.969  0.00  0.00    +0.000 A 
ATOM     13  N   UNL     1      -3.014  13.225  20.644  0.00  0.00    +0.000 NA
ATOM     14  C   UNL     1      -1.749  12.946  20.582  0.00  0.00    +0.000 C 
ATOM     15  N   UNL     1      -0.798  13.603  21.332  0.00  0.00    +0.000 N 
ATOM     16  C   UNL     1      -0.921  13.677  22.789  0.00  0.00    +0.000 C 
ATOM     17  C   UNL     1      -1.092  15.118  23.303  0.00  0.00    +0.000 C 
ATOM     18  N   UNL     1      -0.026  16.007  22.792  0.00  0.00    +0.000 NA
ATOM     19  C   UNL     1      -0.157  17.352  23.345  0.00  0.00    +0.000 C 
ATOM     20  C   UNL     1      -0.111  16.016  21.315  0.00  0.00    +0.000 C 
ATOM     21  C   UNL     1       0.087  14.604  20.713  0.00  0.00    +0.000 C 
ATOM     22  H   UNL     1      -2.878  11.588  16.977  0.00  0.00    +0.000 HD
ENDROOT
BRANCH   1  24
ATOM     23  C   UNL     1       1.919   8.676  18.005  0.00  0.00    +0.000 C 
ATOM     24  C   UNL     1       1.225   8.937  19.337  0.00  0.00    +0.000 C 
ENDBRANCH   1  24
BRANCH  10  25
ATOM     25  S   UNL     1      -7.768  11.461  21.178  0.00  0.00    +0.000 S 
ATOM     26  C   UNL     1      -7.917  13.090  21.960  0.00  0.00    +0.000 C 
ENDBRANCH  10  25
TORSDOF 2
ENDMDL
MODEL 9
REMARK VINA RESULT:      -5.7      3.471      5.601
REMARK  Name = 
REMARK  5 active torsions:
REMARK  status: ('A' for Active; 'I' for Inactive)
REMARK    1  A    between atoms: C_1  and  C_2
REMARK    2  A    between atoms: C_2  and  C_3
REMARK    3  A    between atoms: C_12  and  S_13
REMARK    4  A    between atoms: S_13  and  C_14
REMARK    5  A    between atoms: N_22  and  C_23
REMARK                            x       y       z     vdW  Elec       q    Type
REMARK                         _______ _______ _______ _____ _____    ______ ____
ROOT
ATOM      1  C   UNL     1      -2.248  10.668  18.155  0.00  0.00    +0.000 A 
ATOM      2  C   UNL     1      -2.981  11.651  18.788  0.00  0.00    +0.000 A 
ATOM      3  C   UNL     1      -2.172  12.509  19.615  0.00  0.00    +0.000 A 
ATOM      4  C   UNL     1      -0.856  12.106  19.589  0.00  0.00    +0.000 A 
ATOM      5  S   UNL     1      -0.632  10.658  18.708  0.00  0.00    +0.000 S 
ATOM      6  N   UNL     1       0.216  12.747  20.120  0.00  0.00    +0.000 N 
ATOM      7  C   UNL     1       0.346  14.130  19.817  0.00  0.00    +0.000 A 
ATOM      8  C   UNL     1       1.555  14.554  19.232  0.00  0.00    +0.000 A 
ATOM      9  C   UNL     1       1.716  15.865  18.779  0.00  0.00    +0.000 A 
ATOM     10  C   UNL     1       0.686  16.792  18.929  0.00  0.00    +0.000 A 
ATOM     11  C   UNL     1      -0.514  16.371  19.517  0.00  0.00    +0.000 A 
ATOM     12  C   UNL     1      -0.717  15.049  19.948  0.00  0.00    +0.000 A 
ATOM     13  N   UNL     1      -1.982  14.788  20.517  0.00  0.00    +0.000 NA
ATOM     14  C   UNL     1      -2.639  13.681  20.360  0.00  0.00    +0.000 C 
ATOM     15  N   UNL     1      -3.917  13.491  20.840  0.00  0.00    +0.000 N 
ATOM     16  C   UNL     1      -4.991  14.420  20.482  0.00  0.00    +0.000 C 
ATOM     17  C   UNL     1      -5.561  15.173  21.698  0.00  0.00    +0.000 C 
ATOM     18  N   UNL     1      -5.970  14.241  22.771  0.00  0.00    +0.000 NA
ATOM     19  C   UNL     1      -6.576  14.962  23.887  0.00  0.00    +0.000 C 
ATOM     20  C   UNL     1      -4.772  13.486  23.199  0.00  0.00    +0.000 C 
ATOM     21  C   UNL     1      -4.155  12.669  22.037  0.00  0.00    +0.000 C 
ATOM     22  H   UNL     1       1.098  12.257  20.019  0.00  0.00    +0.000 HD
ENDROOT
BRANCH   1  24
ATOM     23  C   UNL     1      -2.770  10.364  15.736  0.00  0.00    +0.000 C 
ATOM     24  C   UNL     1      -2.695   9.698  17.104  0.00  0.00    +0.000 C 
ENDBRANCH   1  24
BRANCH  10  25
ATOM     25  S   UNL     1       0.784  18.474  18.336  0.00  0.00    +0.000 S 
ATOM     26  C   UNL     1      -0.056  18.371  16.732  0.00  0.00    +0.000 C 
ENDBRANCH  10  25
TORSDOF 2
ENDMDL
