MODEL 1
REMARK VINA RESULT:      -9.0      0.000      0.000
REMARK  Name = 
REMARK  6 active torsions:
REMARK  status: ('A' for Active; 'I' for Inactive)
REMARK    1  A    between atoms: C_1  and  C_2
REMARK    2  A    between atoms: N_5  and  C_6
REMARK    3  A    between atoms: C_6  and  C_7
REMARK    4  A    between atoms: C_7  and  N_8
REMARK    5  A    between atoms: C_9  and  C_11
REMARK    6  A    between atoms: C_14  and  N_15
REMARK                            x       y       z     vdW  Elec       q    Type
REMARK                         _______ _______ _______ _____ _____    ______ ____
ROOT
ATOM      1  C   UNL     1       3.241   5.411  18.668  0.00  0.00    +0.000 A 
ATOM      2  C   UNL     1       3.192   6.731  18.230  0.00  0.00    +0.000 A 
ATOM      3  C   UNL     1       2.502   7.694  18.976  0.00  0.00    +0.000 A 
ATOM      4  C   UNL     1       1.792   7.383  20.145  0.00  0.00    +0.000 A 
ATOM      5  C   UNL     1       1.860   6.059  20.599  0.00  0.00    +0.000 A 
ATOM      6  C   UNL     1       2.570   5.082  19.859  0.00  0.00    +0.000 A 
ENDROOT
BRANCH   4   7
ATOM      7  N   UNL     1       1.002   8.365  20.850  0.00  0.00    +0.000 N 
ATOM      8  C   UNL     1       0.745   9.596  20.304  0.00  0.00    +0.000 C 
ATOM      9  O   UNL     1       1.123   9.917  19.174  0.00  0.00    +0.000 OA
ATOM     10  N   UNL     1      -0.019  10.495  20.979  0.00  0.00    +0.000 N 
ATOM     11  C   UNL     1      -0.412  11.650  20.166  0.00  0.00    +0.000 C 
ATOM     12  C   UNL     1      -1.520  12.218  20.968  0.00  0.00    +0.000 A 
ATOM     13  C   UNL     1      -2.794  12.575  20.587  0.00  0.00    +0.000 A 
ATOM     14  C   UNL     1      -3.649  13.059  21.570  0.00  0.00    +0.000 A 
ATOM     15  C   UNL     1      -3.160  13.268  22.865  0.00  0.00    +0.000 A 
ATOM     16  F   UNL     1      -3.921  13.926  23.747  0.00  0.00    +0.000 F 
ATOM     17  C   UNL     1      -1.934  12.735  23.268  0.00  0.00    +0.000 A 
ATOM     18  C   UNL     1      -1.228  12.026  22.313  0.00  0.00    +0.000 A 
ATOM     19  C   UNL     1      -0.525  10.665  22.354  0.00  0.00    +0.000 C 
ATOM     20  H   UNL     1       0.348   8.034  21.537  0.00  0.00    +0.000 HD
ENDBRANCH   4   7
BRANCH   1  22
ATOM     21  N   UNL     1       4.620   4.797  16.731  0.00  0.00    +0.000 N 
ATOM     22  C   UNL     1       3.958   4.363  17.870  0.00  0.00    +0.000 C 
ATOM     23  O   UNL     1       3.954   3.195  18.243  0.00  0.00    +0.000 OA
ATOM     24  H   UNL     1       4.764   5.790  16.621  0.00  0.00    +0.000 HD
BRANCH  21  25
ATOM     25  C   UNL     1       5.417   3.887  15.906  0.00  0.00    +0.000 C 
BRANCH  25  26
ATOM     26  C   UNL     1       6.909   4.185  15.997  0.00  0.00    +0.000 C 
BRANCH  26  31
ATOM     27  C   UNL     1       7.815   8.614  17.705  0.00  0.00    +0.000 C 
ATOM     28  C   UNL     1       7.653   7.151  17.720  0.00  0.00    +0.000 A 
ATOM     29  C   UNL     1       7.847   6.251  18.793  0.00  0.00    +0.000 A 
ATOM     30  C   UNL     1       7.566   5.005  18.280  0.00  0.00    +0.000 A 
ATOM     31  N   UNL     1       7.225   5.212  16.982  0.00  0.00    +0.000 N 
ATOM     32  N   UNL     1       7.268   6.495  16.595  0.00  0.00    +0.000 NA
ENDBRANCH  26  31
ENDBRANCH  25  26
ENDBRANCH  21  25
ENDBRANCH   1  22
TORSDOF 5
ENDMDL
MODEL 2
REMARK VINA RESULT:      -9.0      1.319      1.666
REMARK  Name = 
REMARK  6 active torsions:
REMARK  status: ('A' for Active; 'I' for Inactive)
REMARK    1  A    between atoms: C_1  and  C_2
REMARK    2  A    between atoms: N_5  and  C_6
REMARK    3  A    between atoms: C_6  and  C_7
REMARK    4  A    between atoms: C_7  and  N_8
REMARK    5  A    between atoms: C_9  and  C_11
REMARK    6  A    between atoms: C_14  and  N_15
REMARK                            x       y       z     vdW  Elec       q    Type
REMARK                         _______ _______ _______ _____ _____    ______ ____
ROOT
ATOM      1  C   UNL     1       3.137   6.258  18.388  0.00  0.00    +0.000 A 
ATOM      2  C   UNL     1       2.521   6.282  19.635  0.00  0.00    +0.000 A 
ATOM      3  C   UNL     1       1.831   7.425  20.057  0.00  0.00    +0.000 A 
ATOM      4  C   UNL     1       1.770   8.600  19.292  0.00  0.00    +0.000 A 
ATOM      5  C   UNL     1       2.370   8.567  18.026  0.00  0.00    +0.000 A 
ATOM      6  C   UNL     1       3.056   7.409  17.585  0.00  0.00    +0.000 A 
ENDROOT
BRANCH   4   7
ATOM      7  N   UNL     1       1.141   9.804  19.780  0.00  0.00    +0.000 N 
ATOM      8  C   UNL     1       0.067  10.358  19.132  0.00  0.00    +0.000 C 
ATOM      9  O   UNL     1      -0.451   9.844  18.137  0.00  0.00    +0.000 OA
ATOM     10  N   UNL     1      -0.520  11.482  19.623  0.00  0.00    +0.000 N 
ATOM     11  C   UNL     1      -1.795  11.802  18.975  0.00  0.00    +0.000 C 
ATOM     12  C   UNL     1      -2.386  12.765  19.933  0.00  0.00    +0.000 A 
ATOM     13  C   UNL     1      -3.635  12.781  20.512  0.00  0.00    +0.000 A 
ATOM     14  C   UNL     1      -3.913  13.800  21.415  0.00  0.00    +0.000 A 
ATOM     15  C   UNL     1      -2.973  14.818  21.614  0.00  0.00    +0.000 A 
ATOM     16  F   UNL     1      -3.327  15.899  22.319  0.00  0.00    +0.000 F 
ATOM     17  C   UNL     1      -1.659  14.684  21.163  0.00  0.00    +0.000 A 
ATOM     18  C   UNL     1      -1.357  13.517  20.486  0.00  0.00    +0.000 A 
ATOM     19  C   UNL     1      -0.193  12.526  20.611  0.00  0.00    +0.000 C 
ATOM     20  H   UNL     1       1.233  10.018  20.757  0.00  0.00    +0.000 HD
ENDBRANCH   4   7
BRANCH   1  22
ATOM     21  N   UNL     1       4.521   5.139  16.695  0.00  0.00    +0.000 N 
ATOM     22  C   UNL     1       3.898   5.049  17.931  0.00  0.00    +0.000 C 
ATOM     23  O   UNL     1       3.961   4.054  18.646  0.00  0.00    +0.000 OA
ATOM     24  H   UNL     1       4.610   6.056  16.281  0.00  0.00    +0.000 HD
BRANCH  21  25
ATOM     25  C   UNL     1       5.354   4.056  16.168  0.00  0.00    +0.000 C 
BRANCH  25  26
ATOM     26  C   UNL     1       6.816   4.469  16.035  0.00  0.00    +0.000 C 
BRANCH  26  31
ATOM     27  C   UNL     1       8.047   8.777  17.843  0.00  0.00    +0.000 C 
ATOM     28  C   UNL     1       7.797   7.327  17.820  0.00  0.00    +0.000 A 
ATOM     29  C   UNL     1       7.972   6.382  18.857  0.00  0.00    +0.000 A 
ATOM     30  C   UNL     1       7.598   5.173  18.316  0.00  0.00    +0.000 A 
ATOM     31  N   UNL     1       7.227   5.442  17.039  0.00  0.00    +0.000 N 
ATOM     32  N   UNL     1       7.335   6.732  16.690  0.00  0.00    +0.000 NA
ENDBRANCH  26  31
ENDBRANCH  25  26
ENDBRANCH  21  25
ENDBRANCH   1  22
TORSDOF 5
ENDMDL
MODEL 3
REMARK VINA RESULT:      -8.9      1.413      1.723
REMARK  Name = 
REMARK  6 active torsions:
REMARK  status: ('A' for Active; 'I' for Inactive)
REMARK    1  A    between atoms: C_1  and  C_2
REMARK    2  A    between atoms: N_5  and  C_6
REMARK    3  A    between atoms: C_6  and  C_7
REMARK    4  A    between atoms: C_7  and  N_8
REMARK    5  A    between atoms: C_9  and  C_11
REMARK    6  A    between atoms: C_14  and  N_15
REMARK                            x       y       z     vdW  Elec       q    Type
REMARK                         _______ _______ _______ _____ _____    ______ ____
ROOT
ATOM      1  C   UNL     1       2.702   6.702  18.689  0.00  0.00    +0.000 A 
ATOM      2  C   UNL     1       2.599   7.806  17.849  0.00  0.00    +0.000 A 
ATOM      3  C   UNL     1       2.004   8.988  18.308  0.00  0.00    +0.000 A 
ATOM      4  C   UNL     1       1.441   9.105  19.588  0.00  0.00    +0.000 A 
ATOM      5  C   UNL     1       1.564   8.000  20.442  0.00  0.00    +0.000 A 
ATOM      6  C   UNL     1       2.180   6.808  19.990  0.00  0.00    +0.000 A 
ENDROOT
BRANCH   4   7
ATOM      7  N   UNL     1       0.742  10.294  20.015  0.00  0.00    +0.000 N 
ATOM      8  C   UNL     1      -0.447  10.664  19.441  0.00  0.00    +0.000 C 
ATOM      9  O   UNL     1      -1.009   9.989  18.574  0.00  0.00    +0.000 OA
ATOM     10  N   UNL     1      -1.096  11.777  19.874  0.00  0.00    +0.000 N 
ATOM     11  C   UNL     1      -2.459  11.897  19.349  0.00  0.00    +0.000 C 
ATOM     12  C   UNL     1      -3.045  12.906  20.261  0.00  0.00    +0.000 A 
ATOM     13  C   UNL     1      -4.221  12.872  20.977  0.00  0.00    +0.000 A 
ATOM     14  C   UNL     1      -4.510  13.961  21.792  0.00  0.00    +0.000 A 
ATOM     15  C   UNL     1      -3.668  15.079  21.771  0.00  0.00    +0.000 A 
ATOM     16  F   UNL     1      -4.060  16.197  22.393  0.00  0.00    +0.000 F 
ATOM     17  C   UNL     1      -2.402  15.017  21.186  0.00  0.00    +0.000 A 
ATOM     18  C   UNL     1      -2.050  13.812  20.607  0.00  0.00    +0.000 A 
ATOM     19  C   UNL     1      -0.780  12.957  20.700  0.00  0.00    +0.000 C 
ATOM     20  H   UNL     1       0.914  10.629  20.946  0.00  0.00    +0.000 HD
ENDBRANCH   4   7
BRANCH   1  22
ATOM     21  N   UNL     1       4.109   5.507  17.069  0.00  0.00    +0.000 N 
ATOM     22  C   UNL     1       3.317   5.423  18.205  0.00  0.00    +0.000 C 
ATOM     23  O   UNL     1       3.124   4.377  18.815  0.00  0.00    +0.000 OA
ATOM     24  H   UNL     1       4.398   6.426  16.765  0.00  0.00    +0.000 HD
BRANCH  21  25
ATOM     25  C   UNL     1       4.825   4.345  16.537  0.00  0.00    +0.000 C 
BRANCH  25  26
ATOM     26  C   UNL     1       6.264   4.679  16.161  0.00  0.00    +0.000 C 
BRANCH  26  31
ATOM     27  C   UNL     1       8.023   8.863  17.821  0.00  0.00    +0.000 C 
ATOM     28  C   UNL     1       7.697   7.428  17.809  0.00  0.00    +0.000 A 
ATOM     29  C   UNL     1       8.005   6.442  18.774  0.00  0.00    +0.000 A 
ATOM     30  C   UNL     1       7.477   5.270  18.281  0.00  0.00    +0.000 A 
ATOM     31  N   UNL     1       6.898   5.599  17.098  0.00  0.00    +0.000 N 
ATOM     32  N   UNL     1       7.009   6.892  16.766  0.00  0.00    +0.000 NA
ENDBRANCH  26  31
ENDBRANCH  25  26
ENDBRANCH  21  25
ENDBRANCH   1  22
TORSDOF 5
ENDMDL
MODEL 4
REMARK VINA RESULT:      -8.7      2.490      3.964
REMARK  Name = 
REMARK  6 active torsions:
REMARK  status: ('A' for Active; 'I' for Inactive)
REMARK    1  A    between atoms: C_1  and  C_2
REMARK    2  A    between atoms: N_5  and  C_6
REMARK    3  A    between atoms: C_6  and  C_7
REMARK    4  A    between atoms: C_7  and  N_8
REMARK    5  A    between atoms: C_9  and  C_11
REMARK    6  A    between atoms: C_14  and  N_15
REMARK                            x       y       z     vdW  Elec       q    Type
REMARK                         _______ _______ _______ _____ _____    ______ ____
ROOT
ATOM      1  C   UNL     1       2.584   7.690  18.556  0.00  0.00    +0.000 A 
ATOM      2  C   UNL     1       2.015   8.834  18.005  0.00  0.00    +0.000 A 
ATOM      3  C   UNL     1       1.167   9.638  18.776  0.00  0.00    +0.000 A 
ATOM      4  C   UNL     1       0.805   9.316  20.092  0.00  0.00    +0.000 A 
ATOM      5  C   UNL     1       1.396   8.176  20.654  0.00  0.00    +0.000 A 
ATOM      6  C   UNL     1       2.269   7.366  19.887  0.00  0.00    +0.000 A 
ENDROOT
BRANCH   4   7
ATOM      7  N   UNL     1      -0.149  10.099  20.841  0.00  0.00    +0.000 N 
ATOM      8  C   UNL     1       0.187  11.322  21.361  0.00  0.00    +0.000 C 
ATOM      9  O   UNL     1       1.290  11.845  21.180  0.00  0.00    +0.000 OA
ATOM     10  N   UNL     1      -0.736  12.049  22.045  0.00  0.00    +0.000 N 
ATOM     11  C   UNL     1      -0.310  13.426  22.312  0.00  0.00    +0.000 C 
ATOM     12  C   UNL     1      -1.594  14.073  22.669  0.00  0.00    +0.000 A 
ATOM     13  C   UNL     1      -2.163  15.231  22.187  0.00  0.00    +0.000 A 
ATOM     14  C   UNL     1      -3.411  15.590  22.683  0.00  0.00    +0.000 A 
ATOM     15  C   UNL     1      -3.982  14.838  23.717  0.00  0.00    +0.000 A 
ATOM     16  F   UNL     1      -5.076  15.306  24.330  0.00  0.00    +0.000 F 
ATOM     17  C   UNL     1      -3.479  13.582  24.057  0.00  0.00    +0.000 A 
ATOM     18  C   UNL     1      -2.376  13.146  23.345  0.00  0.00    +0.000 A 
ATOM     19  C   UNL     1      -2.055  11.813  22.661  0.00  0.00    +0.000 C 
ATOM     20  H   UNL     1      -1.125   9.938  20.668  0.00  0.00    +0.000 HD
ENDBRANCH   4   7
BRANCH   1  22
ATOM     21  N   UNL     1       3.447   5.452  18.029  0.00  0.00    +0.000 N 
ATOM     22  C   UNL     1       3.478   6.807  17.737  0.00  0.00    +0.000 C 
ATOM     23  O   UNL     1       4.177   7.289  16.852  0.00  0.00    +0.000 OA
ATOM     24  H   UNL     1       2.690   5.114  18.606  0.00  0.00    +0.000 HD
BRANCH  21  25
ATOM     25  C   UNL     1       4.217   4.475  17.255  0.00  0.00    +0.000 C 
BRANCH  25  26
ATOM     26  C   UNL     1       3.753   3.045  17.509  0.00  0.00    +0.000 C 
BRANCH  26  31
ATOM     27  C   UNL     1       1.791   2.771  21.916  0.00  0.00    +0.000 C 
ATOM     28  C   UNL     1       1.846   2.805  20.446  0.00  0.00    +0.000 A 
ATOM     29  C   UNL     1       0.787   2.683  19.518  0.00  0.00    +0.000 A 
ATOM     30  C   UNL     1       1.375   2.782  18.277  0.00  0.00    +0.000 A 
ATOM     31  N   UNL     1       2.700   2.958  18.513  0.00  0.00    +0.000 N 
ATOM     32  N   UNL     1       3.035   2.974  19.811  0.00  0.00    +0.000 NA
ENDBRANCH  26  31
ENDBRANCH  25  26
ENDBRANCH  21  25
ENDBRANCH   1  22
TORSDOF 5
ENDMDL
MODEL 5
REMARK VINA RESULT:      -8.5      1.280      1.859
REMARK  Name = 
REMARK  6 active torsions:
REMARK  status: ('A' for Active; 'I' for Inactive)
REMARK    1  A    between atoms: C_1  and  C_2
REMARK    2  A    between atoms: N_5  and  C_6
REMARK    3  A    between atoms: C_6  and  C_7
REMARK    4  A    between atoms: C_7  and  N_8
REMARK    5  A    between atoms: C_9  and  C_11
REMARK    6  A    between atoms: C_14  and  N_15
REMARK                            x       y       z     vdW  Elec       q    Type
REMARK                         _______ _______ _______ _____ _____    ______ ____
ROOT
ATOM      1  C   UNL     1       2.924   6.751  18.837  0.00  0.00    +0.000 A 
ATOM      2  C   UNL     1       2.701   7.797  17.947  0.00  0.00    +0.000 A 
ATOM      3  C   UNL     1       1.895   8.880  18.321  0.00  0.00    +0.000 A 
ATOM      4  C   UNL     1       1.237   8.943  19.558  0.00  0.00    +0.000 A 
ATOM      5  C   UNL     1       1.479   7.901  20.463  0.00  0.00    +0.000 A 
ATOM      6  C   UNL     1       2.307   6.811  20.099  0.00  0.00    +0.000 A 
ENDROOT
BRANCH   4   7
ATOM      7  N   UNL     1       0.330  10.015  19.892  0.00  0.00    +0.000 N 
ATOM      8  C   UNL     1      -0.095  10.211  21.181  0.00  0.00    +0.000 C 
ATOM      9  O   UNL     1       0.304   9.528  22.127  0.00  0.00    +0.000 OA
ATOM     10  N   UNL     1      -0.934  11.240  21.473  0.00  0.00    +0.000 N 
ATOM     11  C   UNL     1      -1.091  11.471  22.912  0.00  0.00    +0.000 C 
ATOM     12  C   UNL     1      -1.680  12.831  22.935  0.00  0.00    +0.000 A 
ATOM     13  C   UNL     1      -1.299  13.945  23.648  0.00  0.00    +0.000 A 
ATOM     14  C   UNL     1      -2.022  15.116  23.447  0.00  0.00    +0.000 A 
ATOM     15  C   UNL     1      -3.158  15.091  22.630  0.00  0.00    +0.000 A 
ATOM     16  F   UNL     1      -3.964  16.159  22.608  0.00  0.00    +0.000 F 
ATOM     17  C   UNL     1      -3.415  14.010  21.785  0.00  0.00    +0.000 A 
ATOM     18  C   UNL     1      -2.510  12.966  21.829  0.00  0.00    +0.000 A 
ATOM     19  C   UNL     1      -1.797  12.174  20.726  0.00  0.00    +0.000 C 
ATOM     20  H   UNL     1       0.308  10.816  19.286  0.00  0.00    +0.000 HD
ENDBRANCH   4   7
BRANCH   1  22
ATOM     21  N   UNL     1       4.036   5.429  17.091  0.00  0.00    +0.000 N 
ATOM     22  C   UNL     1       3.767   5.575  18.444  0.00  0.00    +0.000 C 
ATOM     23  O   UNL     1       4.194   4.809  19.302  0.00  0.00    +0.000 OA
ATOM     24  H   UNL     1       3.842   6.215  16.487  0.00  0.00    +0.000 HD
BRANCH  21  25
ATOM     25  C   UNL     1       4.907   4.365  16.585  0.00  0.00    +0.000 C 
BRANCH  25  26
ATOM     26  C   UNL     1       6.237   4.905  16.073  0.00  0.00    +0.000 C 
BRANCH  26  31
ATOM     27  C   UNL     1       8.105   8.996  17.842  0.00  0.00    +0.000 C 
ATOM     28  C   UNL     1       7.749   7.569  17.788  0.00  0.00    +0.000 A 
ATOM     29  C   UNL     1       8.046   6.547  18.718  0.00  0.00    +0.000 A 
ATOM     30  C   UNL     1       7.488   5.403  18.195  0.00  0.00    +0.000 A 
ATOM     31  N   UNL     1       6.902   5.781  17.030  0.00  0.00    +0.000 N 
ATOM     32  N   UNL     1       7.037   7.082  16.738  0.00  0.00    +0.000 NA
ENDBRANCH  26  31
ENDBRANCH  25  26
ENDBRANCH  21  25
ENDBRANCH   1  22
TORSDOF 5
ENDMDL
MODEL 6
REMARK VINA RESULT:      -8.5      2.626      4.285
REMARK  Name = 
REMARK  6 active torsions:
REMARK  status: ('A' for Active; 'I' for Inactive)
REMARK    1  A    between atoms: C_1  and  C_2
REMARK    2  A    between atoms: N_5  and  C_6
REMARK    3  A    between atoms: C_6  and  C_7
REMARK    4  A    between atoms: C_7  and  N_8
REMARK    5  A    between atoms: C_9  and  C_11
REMARK    6  A    between atoms: C_14  and  N_15
REMARK                            x       y       z     vdW  Elec       q    Type
REMARK                         _______ _______ _______ _____ _____    ______ ____
ROOT
ATOM      1  C   UNL     1       2.695   7.904  18.466  0.00  0.00    +0.000 A 
ATOM      2  C   UNL     1       2.315   8.983  17.674  0.00  0.00    +0.000 A 
ATOM      3  C   UNL     1       1.350   9.888  18.134  0.00  0.00    +0.000 A 
ATOM      4  C   UNL     1       0.688   9.732  19.360  0.00  0.00    +0.000 A 
ATOM      5  C   UNL     1       1.086   8.658  20.168  0.00  0.00    +0.000 A 
ATOM      6  C   UNL     1       2.074   7.748  19.718  0.00  0.00    +0.000 A 
ENDROOT
BRANCH   4   7
ATOM      7  N   UNL     1      -0.375  10.615  19.778  0.00  0.00    +0.000 N 
ATOM      8  C   UNL     1      -1.461  10.851  18.975  0.00  0.00    +0.000 C 
ATOM      9  O   UNL     1      -1.620  10.292  17.886  0.00  0.00    +0.000 OA
ATOM     10  N   UNL     1      -2.459  11.670  19.399  0.00  0.00    +0.000 N 
ATOM     11  C   UNL     1      -3.653  11.620  18.551  0.00  0.00    +0.000 C 
ATOM     12  C   UNL     1      -4.671  12.243  19.429  0.00  0.00    +0.000 A 
ATOM     13  C   UNL     1      -5.925  11.798  19.781  0.00  0.00    +0.000 A 
ATOM     14  C   UNL     1      -6.663  12.582  20.661  0.00  0.00    +0.000 A 
ATOM     15  C   UNL     1      -6.161  13.825  21.061  0.00  0.00    +0.000 A 
ATOM     16  F   UNL     1      -6.960  14.661  21.735  0.00  0.00    +0.000 F 
ATOM     17  C   UNL     1      -4.825  14.168  20.842  0.00  0.00    +0.000 A 
ATOM     18  C   UNL     1      -4.050  13.232  20.182  0.00  0.00    +0.000 A 
ATOM     19  C   UNL     1      -2.655  12.666  20.470  0.00  0.00    +0.000 C 
ATOM     20  H   UNL     1      -0.509  10.754  20.764  0.00  0.00    +0.000 HD
ENDBRANCH   4   7
BRANCH   1  22
ATOM     21  N   UNL     1       4.002   5.857  18.828  0.00  0.00    +0.000 N 
ATOM     22  C   UNL     1       3.711   6.914  17.979  0.00  0.00    +0.000 C 
ATOM     23  O   UNL     1       4.226   7.052  16.875  0.00  0.00    +0.000 OA
ATOM     24  H   UNL     1       3.379   5.693  19.606  0.00  0.00    +0.000 HD
BRANCH  21  25
ATOM     25  C   UNL     1       4.921   4.784  18.441  0.00  0.00    +0.000 C 
BRANCH  25  26
ATOM     26  C   UNL     1       4.201   3.628  17.756  0.00  0.00    +0.000 C 
BRANCH  26  31
ATOM     27  C   UNL     1       1.526   2.669  21.665  0.00  0.00    +0.000 C 
ATOM     28  C   UNL     1       1.915   2.680  20.246  0.00  0.00    +0.000 A 
ATOM     29  C   UNL     1       1.257   2.087  19.144  0.00  0.00    +0.000 A 
ATOM     30  C   UNL     1       2.033   2.392  18.048  0.00  0.00    +0.000 A 
ATOM     31  N   UNL     1       3.069   3.127  18.526  0.00  0.00    +0.000 N 
ATOM     32  N   UNL     1       3.044   3.325  19.852  0.00  0.00    +0.000 NA
ENDBRANCH  26  31
ENDBRANCH  25  26
ENDBRANCH  21  25
ENDBRANCH   1  22
TORSDOF 5
ENDMDL
MODEL 7
REMARK VINA RESULT:      -8.5      2.432      4.012
REMARK  Name = 
REMARK  6 active torsions:
REMARK  status: ('A' for Active; 'I' for Inactive)
REMARK    1  A    between atoms: C_1  and  C_2
REMARK    2  A    between atoms: N_5  and  C_6
REMARK    3  A    between atoms: C_6  and  C_7
REMARK    4  A    between atoms: C_7  and  N_8
REMARK    5  A    between atoms: C_9  and  C_11
REMARK    6  A    between atoms: C_14  and  N_15
REMARK                            x       y       z     vdW  Elec       q    Type
REMARK                         _______ _______ _______ _____ _____    ______ ____
ROOT
ATOM      1  C   UNL     1       2.750   7.590  18.334  0.00  0.00    +0.000 A 
ATOM      2  C   UNL     1       2.277   7.343  19.619  0.00  0.00    +0.000 A 
ATOM      3  C   UNL     1       1.406   8.250  20.235  0.00  0.00    +0.000 A 
ATOM      4  C   UNL     1       1.015   9.455  19.631  0.00  0.00    +0.000 A 
ATOM      5  C   UNL     1       1.473   9.692  18.328  0.00  0.00    +0.000 A 
ATOM      6  C   UNL     1       2.341   8.771  17.692  0.00  0.00    +0.000 A 
ENDROOT
BRANCH   4   7
ATOM      7  N   UNL     1       0.197  10.428  20.315  0.00  0.00    +0.000 N 
ATOM      8  C   UNL     1      -0.888  11.000  19.704  0.00  0.00    +0.000 C 
ATOM      9  O   UNL     1      -1.258  10.687  18.570  0.00  0.00    +0.000 OA
ATOM     10  N   UNL     1      -1.654  11.899  20.377  0.00  0.00    +0.000 N 
ATOM     11  C   UNL     1      -2.908  12.224  19.691  0.00  0.00    +0.000 C 
ATOM     12  C   UNL     1      -3.691  12.855  20.779  0.00  0.00    +0.000 A 
ATOM     13  C   UNL     1      -4.971  12.592  21.212  0.00  0.00    +0.000 A 
ATOM     14  C   UNL     1      -5.449  13.326  22.292  0.00  0.00    +0.000 A 
ATOM     15  C   UNL     1      -4.669  14.363  22.817  0.00  0.00    +0.000 A 
ATOM     16  F   UNL     1      -5.215  15.196  23.711  0.00  0.00    +0.000 F 
ATOM     17  C   UNL     1      -3.319  14.488  22.487  0.00  0.00    +0.000 A 
ATOM     18  C   UNL     1      -2.815  13.560  21.594  0.00  0.00    +0.000 A 
ATOM     19  C   UNL     1      -1.543  12.704  21.608  0.00  0.00    +0.000 C 
ATOM     20  H   UNL     1       0.188  10.408  21.320  0.00  0.00    +0.000 HD
ENDBRANCH   4   7
BRANCH   1  22
ATOM     21  N   UNL     1       3.353   5.296  17.697  0.00  0.00    +0.000 N 
ATOM     22  C   UNL     1       3.700   6.638  17.670  0.00  0.00    +0.000 C 
ATOM     23  O   UNL     1       4.714   7.061  17.125  0.00  0.00    +0.000 OA
ATOM     24  H   UNL     1       2.407   5.061  17.960  0.00  0.00    +0.000 HD
BRANCH  21  25
ATOM     25  C   UNL     1       4.158   4.275  17.022  0.00  0.00    +0.000 C 
BRANCH  25  26
ATOM     26  C   UNL     1       3.958   2.891  17.628  0.00  0.00    +0.000 C 
BRANCH  26  31
ATOM     27  C   UNL     1       1.633   2.891  21.864  0.00  0.00    +0.000 C 
ATOM     28  C   UNL     1       1.815   2.798  20.407  0.00  0.00    +0.000 A 
ATOM     29  C   UNL     1       0.850   2.529  19.410  0.00  0.00    +0.000 A 
ATOM     30  C   UNL     1       1.539   2.553  18.218  0.00  0.00    +0.000 A 
ATOM     31  N   UNL     1       2.827   2.830  18.546  0.00  0.00    +0.000 N 
ATOM     32  N   UNL     1       3.045   2.981  19.860  0.00  0.00    +0.000 NA
ENDBRANCH  26  31
ENDBRANCH  25  26
ENDBRANCH  21  25
ENDBRANCH   1  22
TORSDOF 5
ENDMDL
MODEL 8
REMARK VINA RESULT:      -8.4      3.970     11.136
REMARK  Name = 
REMARK  6 active torsions:
REMARK  status: ('A' for Active; 'I' for Inactive)
REMARK    1  A    between atoms: C_1  and  C_2
REMARK    2  A    between atoms: N_5  and  C_6
REMARK    3  A    between atoms: C_6  and  C_7
REMARK    4  A    between atoms: C_7  and  N_8
REMARK    5  A    between atoms: C_9  and  C_11
REMARK    6  A    between atoms: C_14  and  N_15
REMARK                            x       y       z     vdW  Elec       q    Type
REMARK                         _______ _______ _______ _____ _____    ______ ____
ROOT
ATOM      1  C   UNL     1      -1.010  11.212  22.540  0.00  0.00    +0.000 A 
ATOM      2  C   UNL     1      -0.508  10.108  23.221  0.00  0.00    +0.000 A 
ATOM      3  C   UNL     1       0.283   9.168  22.550  0.00  0.00    +0.000 A 
ATOM      4  C   UNL     1       0.563   9.252  21.178  0.00  0.00    +0.000 A 
ATOM      5  C   UNL     1       0.077  10.377  20.497  0.00  0.00    +0.000 A 
ATOM      6  C   UNL     1      -0.711  11.341  21.172  0.00  0.00    +0.000 A 
ENDROOT
BRANCH   4   7
ATOM      7  N   UNL     1       1.296   8.225  20.477  0.00  0.00    +0.000 N 
ATOM      8  C   UNL     1       1.824   8.452  19.232  0.00  0.00    +0.000 C 
ATOM      9  O   UNL     1       1.751   9.545  18.665  0.00  0.00    +0.000 OA
ATOM     10  N   UNL     1       2.528   7.474  18.602  0.00  0.00    +0.000 N 
ATOM     11  C   UNL     1       3.237   7.946  17.409  0.00  0.00    +0.000 C 
ATOM     12  C   UNL     1       4.203   6.846  17.180  0.00  0.00    +0.000 A 
ATOM     13  C   UNL     1       5.565   6.894  16.983  0.00  0.00    +0.000 A 
ATOM     14  C   UNL     1       6.235   5.687  16.824  0.00  0.00    +0.000 A 
ATOM     15  C   UNL     1       5.501   4.496  16.757  0.00  0.00    +0.000 A 
ATOM     16  F   UNL     1       6.126   3.369  16.396  0.00  0.00    +0.000 F 
ATOM     17  C   UNL     1       4.159   4.455  17.138  0.00  0.00    +0.000 A 
ATOM     18  C   UNL     1       3.597   5.651  17.545  0.00  0.00    +0.000 A 
ATOM     19  C   UNL     1       2.733   6.022  18.756  0.00  0.00    +0.000 C 
ATOM     20  H   UNL     1       1.733   7.505  21.025  0.00  0.00    +0.000 HD
ENDBRANCH   4   7
BRANCH   1  22
ATOM     21  N   UNL     1      -3.181  11.829  23.509  0.00  0.00    +0.000 N 
ATOM     22  C   UNL     1      -1.877  12.217  23.239  0.00  0.00    +0.000 C 
ATOM     23  O   UNL     1      -1.420  13.310  23.557  0.00  0.00    +0.000 OA
ATOM     24  H   UNL     1      -3.406  10.848  23.422  0.00  0.00    +0.000 HD
BRANCH  21  25
ATOM     25  C   UNL     1      -4.106  12.688  24.250  0.00  0.00    +0.000 C 
BRANCH  25  26
ATOM     26  C   UNL     1      -4.750  13.744  23.359  0.00  0.00    +0.000 C 
BRANCH  26  31
ATOM     27  C   UNL     1      -7.096  10.899  20.236  0.00  0.00    +0.000 C 
ATOM     28  C   UNL     1      -6.174  11.947  20.701  0.00  0.00    +0.000 A 
ATOM     29  C   UNL     1      -5.306  12.764  19.939  0.00  0.00    +0.000 A 
ATOM     30  C   UNL     1      -4.668  13.571  20.854  0.00  0.00    +0.000 A 
ATOM     31  N   UNL     1      -5.168  13.218  22.065  0.00  0.00    +0.000 N 
ATOM     32  N   UNL     1      -6.079  12.236  22.025  0.00  0.00    +0.000 NA
ENDBRANCH  26  31
ENDBRANCH  25  26
ENDBRANCH  21  25
ENDBRANCH   1  22
TORSDOF 5
ENDMDL
MODEL 9
REMARK VINA RESULT:      -8.4      2.269      3.960
REMARK  Name = 
REMARK  6 active torsions:
REMARK  status: ('A' for Active; 'I' for Inactive)
REMARK    1  A    between atoms: C_1  and  C_2
REMARK    2  A    between atoms: N_5  and  C_6
REMARK    3  A    between atoms: C_6  and  C_7
REMARK    4  A    between atoms: C_7  and  N_8
REMARK    5  A    between atoms: C_9  and  C_11
REMARK    6  A    between atoms: C_14  and  N_15
REMARK                            x       y       z     vdW  Elec       q    Type
REMARK                         _______ _______ _______ _____ _____    ______ ____
ROOT
ATOM      1  C   UNL     1       2.931   7.455  18.430  0.00  0.00    +0.000 A 
ATOM      2  C   UNL     1       2.620   8.573  17.663  0.00  0.00    +0.000 A 
ATOM      3  C   UNL     1       1.724   9.534  18.150  0.00  0.00    +0.000 A 
ATOM      4  C   UNL     1       1.063   9.400  19.379  0.00  0.00    +0.000 A 
ATOM      5  C   UNL     1       1.393   8.285  20.162  0.00  0.00    +0.000 A 
ATOM      6  C   UNL     1       2.311   7.318  19.685  0.00  0.00    +0.000 A 
ENDROOT
BRANCH   4   7
ATOM      7  N   UNL     1       0.067  10.345  19.824  0.00  0.00    +0.000 N 
ATOM      8  C   UNL     1      -0.192  10.531  21.158  0.00  0.00    +0.000 C 
ATOM      9  O   UNL     1       0.435   9.949  22.047  0.00  0.00    +0.000 OA
ATOM     10  N   UNL     1      -1.120  11.442  21.552  0.00  0.00    +0.000 N 
ATOM     11  C   UNL     1      -1.100  11.707  22.993  0.00  0.00    +0.000 C 
ATOM     12  C   UNL     1      -1.871  12.969  23.078  0.00  0.00    +0.000 A 
ATOM     13  C   UNL     1      -1.557  14.154  23.704  0.00  0.00    +0.000 A 
ATOM     14  C   UNL     1      -2.464  15.202  23.592  0.00  0.00    +0.000 A 
ATOM     15  C   UNL     1      -3.691  14.984  22.953  0.00  0.00    +0.000 A 
ATOM     16  F   UNL     1      -4.638  15.926  23.031  0.00  0.00    +0.000 F 
ATOM     17  C   UNL     1      -3.906  13.845  22.176  0.00  0.00    +0.000 A 
ATOM     18  C   UNL     1      -2.862  12.941  22.105  0.00  0.00    +0.000 A 
ATOM     19  C   UNL     1      -2.209  12.214  20.924  0.00  0.00    +0.000 C 
ATOM     20  H   UNL     1      -0.158  11.110  19.213  0.00  0.00    +0.000 HD
ENDBRANCH   4   7
BRANCH   1  22
ATOM     21  N   UNL     1       4.287   5.446  18.824  0.00  0.00    +0.000 N 
ATOM     22  C   UNL     1       3.872   6.407  17.915  0.00  0.00    +0.000 C 
ATOM     23  O   UNL     1       4.223   6.420  16.740  0.00  0.00    +0.000 OA
ATOM     24  H   UNL     1       3.782   5.375  19.695  0.00  0.00    +0.000 HD
BRANCH  21  25
ATOM     25  C   UNL     1       5.147   4.328  18.429  0.00  0.00    +0.000 C 
BRANCH  25  26
ATOM     26  C   UNL     1       4.343   3.127  17.943  0.00  0.00    +0.000 C 
BRANCH  26  31
ATOM     27  C   UNL     1       1.350   2.624  21.703  0.00  0.00    +0.000 C 
ATOM     28  C   UNL     1       1.771   2.716  20.296  0.00  0.00    +0.000 A 
ATOM     29  C   UNL     1       0.984   2.595  19.128  0.00  0.00    +0.000 A 
ATOM     30  C   UNL     1       1.861   2.760  18.079  0.00  0.00    +0.000 A 
ATOM     31  N   UNL     1       3.076   2.969  18.647  0.00  0.00    +0.000 N 
ATOM     32  N   UNL     1       3.074   2.946  19.987  0.00  0.00    +0.000 NA
ENDBRANCH  26  31
ENDBRANCH  25  26
ENDBRANCH  21  25
ENDBRANCH   1  22
TORSDOF 5
ENDMDL
