MODEL 1
REMARK VINA RESULT:      -7.9      0.000      0.000
REMARK  Name = 
REMARK  5 active torsions:
REMARK  status: ('A' for Active; 'I' for Inactive)
REMARK    1  A    between atoms: C_1  and  C_2
REMARK    2  A    between atoms: C_5  and  C_6
REMARK    3  A    between atoms: C_9  and  C_10
REMARK    4  A    between atoms: N_12  and  C_13
REMARK    5  A    between atoms: C_13  and  C_14
REMARK                            x       y       z     vdW  Elec       q    Type
REMARK                         _______ _______ _______ _____ _____    ______ ____
ROOT
ATOM      1  C   UNL     1       3.555   6.480  17.868  0.00  0.00    +0.000 A 
ATOM      2  C   UNL     1       4.356   7.254  17.007  0.00  0.00    +0.000 A 
ATOM      3  C   UNL     1       5.209   6.662  16.062  0.00  0.00    +0.000 A 
ATOM      4  C   UNL     1       5.296   5.269  15.961  0.00  0.00    +0.000 A 
ATOM      5  C   UNL     1       4.521   4.496  16.823  0.00  0.00    +0.000 A 
ATOM      6  F   UNL     1       4.564   3.154  16.780  0.00  0.00    +0.000 F 
ATOM      7  C   UNL     1       3.662   5.083  17.752  0.00  0.00    +0.000 A 
ENDROOT
BRANCH   1  12
ATOM      8  C   UNL     1      -0.018   8.963  21.746  0.00  0.00    +0.000 C 
ATOM      9  C   UNL     1       0.887   8.306  20.747  0.00  0.00    +0.000 A 
ATOM     10  C   UNL     1       1.413   7.034  20.973  0.00  0.00    +0.000 A 
ATOM     11  C   UNL     1       2.272   6.442  20.038  0.00  0.00    +0.000 A 
ATOM     12  C   UNL     1       2.625   7.095  18.845  0.00  0.00    +0.000 A 
ATOM     13  C   UNL     1       2.073   8.371  18.630  0.00  0.00    +0.000 A 
ATOM     14  C   UNL     1       1.225   8.973  19.568  0.00  0.00    +0.000 A 
ENDBRANCH   1  12
BRANCH   4  15
ATOM     15  C   UNL     1       6.193   4.672  14.931  0.00  0.00    +0.000 C 
ATOM     16  O   UNL     1       7.411   4.767  15.040  0.00  0.00    +0.000 OA
ATOM     17  N   UNL     1       5.594   4.065  13.852  0.00  0.00    +0.000 N 
ATOM     18  H   UNL     1       4.587   4.108  13.746  0.00  0.00    +0.000 HD
BRANCH  17  19
ATOM     19  C   UNL     1       6.344   3.422  12.784  0.00  0.00    +0.000 C 
BRANCH  19  20
ATOM     20  C   UNL     1       5.470   2.658  11.788  0.00  0.00    +0.000 C 
ATOM     21  N   UNL     1       5.900   1.411  11.428  0.00  0.00    +0.000 N 
ATOM     22  O   UNL     1       4.382   3.073  11.399  0.00  0.00    +0.000 OA
ATOM     23  H   UNL     1       6.567   0.936  12.025  0.00  0.00    +0.000 HD
ATOM     24  H   UNL     1       5.242   0.843  10.913  0.00  0.00    +0.000 HD
ENDBRANCH  19  20
ENDBRANCH  17  19
ENDBRANCH   4  15
TORSDOF 4
ENDMDL
MODEL 2
REMARK VINA RESULT:      -7.9      0.097      1.051
REMARK  Name = 
REMARK  5 active torsions:
REMARK  status: ('A' for Active; 'I' for Inactive)
REMARK    1  A    between atoms: C_1  and  C_2
REMARK    2  A    between atoms: C_5  and  C_6
REMARK    3  A    between atoms: C_9  and  C_10
REMARK    4  A    between atoms: N_12  and  C_13
REMARK    5  A    between atoms: C_13  and  C_14
REMARK                            x       y       z     vdW  Elec       q    Type
REMARK                         _______ _______ _______ _____ _____    ______ ____
ROOT
ATOM      1  C   UNL     1       3.600   6.447  17.842  0.00  0.00    +0.000 A 
ATOM      2  C   UNL     1       4.354   7.216  16.935  0.00  0.00    +0.000 A 
ATOM      3  C   UNL     1       5.195   6.617  15.983  0.00  0.00    +0.000 A 
ATOM      4  C   UNL     1       5.318   5.225  15.922  0.00  0.00    +0.000 A 
ATOM      5  C   UNL     1       4.590   4.459  16.829  0.00  0.00    +0.000 A 
ATOM      6  F   UNL     1       4.668   3.118  16.826  0.00  0.00    +0.000 F 
ATOM      7  C   UNL     1       3.742   5.051  17.765  0.00  0.00    +0.000 A 
ENDROOT
BRANCH   1  12
ATOM      8  C   UNL     1      -0.091   8.824  21.677  0.00  0.00    +0.000 C 
ATOM      9  C   UNL     1       0.872   8.230  20.693  0.00  0.00    +0.000 A 
ATOM     10  C   UNL     1       1.261   8.929  19.549  0.00  0.00    +0.000 A 
ATOM     11  C   UNL     1       2.148   8.353  18.630  0.00  0.00    +0.000 A 
ATOM     12  C   UNL     1       2.682   7.068  18.827  0.00  0.00    +0.000 A 
ATOM     13  C   UNL     1       2.287   6.387  19.994  0.00  0.00    +0.000 A 
ATOM     14  C   UNL     1       1.390   6.952  20.908  0.00  0.00    +0.000 A 
ENDBRANCH   1  12
BRANCH   4  15
ATOM     15  C   UNL     1       6.201   4.620  14.884  0.00  0.00    +0.000 C 
ATOM     16  O   UNL     1       7.418   4.611  15.036  0.00  0.00    +0.000 OA
ATOM     17  N   UNL     1       5.594   4.129  13.752  0.00  0.00    +0.000 N 
ATOM     18  H   UNL     1       4.598   4.258  13.619  0.00  0.00    +0.000 HD
BRANCH  17  19
ATOM     19  C   UNL     1       6.328   3.492  12.669  0.00  0.00    +0.000 C 
BRANCH  19  20
ATOM     20  C   UNL     1       5.457   2.631  11.753  0.00  0.00    +0.000 C 
ATOM     21  N   UNL     1       5.933   1.387  11.449  0.00  0.00    +0.000 N 
ATOM     22  O   UNL     1       4.336   2.971  11.384  0.00  0.00    +0.000 OA
ATOM     23  H   UNL     1       6.644   0.979  12.045  0.00  0.00    +0.000 HD
ATOM     24  H   UNL     1       5.286   0.759  10.993  0.00  0.00    +0.000 HD
ENDBRANCH  19  20
ENDBRANCH  17  19
ENDBRANCH   4  15
TORSDOF 4
ENDMDL
MODEL 3
REMARK VINA RESULT:      -7.7      2.637      3.933
REMARK  Name = 
REMARK  5 active torsions:
REMARK  status: ('A' for Active; 'I' for Inactive)
REMARK    1  A    between atoms: C_1  and  C_2
REMARK    2  A    between atoms: C_5  and  C_6
REMARK    3  A    between atoms: C_9  and  C_10
REMARK    4  A    between atoms: N_12  and  C_13
REMARK    5  A    between atoms: C_13  and  C_14
REMARK                            x       y       z     vdW  Elec       q    Type
REMARK                         _______ _______ _______ _____ _____    ______ ____
ROOT
ATOM      1  C   UNL     1       1.772   7.850  19.940  0.00  0.00    +0.000 A 
ATOM      2  C   UNL     1       2.246   8.089  18.636  0.00  0.00    +0.000 A 
ATOM      3  C   UNL     1       2.920   7.098  17.904  0.00  0.00    +0.000 A 
ATOM      4  C   UNL     1       3.154   5.838  18.465  0.00  0.00    +0.000 A 
ATOM      5  C   UNL     1       2.705   5.601  19.762  0.00  0.00    +0.000 A 
ATOM      6  F   UNL     1       2.902   4.414  20.360  0.00  0.00    +0.000 F 
ATOM      7  C   UNL     1       2.021   6.579  20.485  0.00  0.00    +0.000 A 
ENDROOT
BRANCH   1  12
ATOM      8  C   UNL     1      -1.244  11.833  22.943  0.00  0.00    +0.000 C 
ATOM      9  C   UNL     1      -0.451  10.823  22.167  0.00  0.00    +0.000 A 
ATOM     10  C   UNL     1      -0.025  11.083  20.864  0.00  0.00    +0.000 A 
ATOM     11  C   UNL     1       0.699  10.123  20.147  0.00  0.00    +0.000 A 
ATOM     12  C   UNL     1       1.029   8.877  20.708  0.00  0.00    +0.000 A 
ATOM     13  C   UNL     1       0.602   8.641  22.028  0.00  0.00    +0.000 A 
ATOM     14  C   UNL     1      -0.135   9.592  22.745  0.00  0.00    +0.000 A 
ENDBRANCH   1  12
BRANCH   4  15
ATOM     15  C   UNL     1       3.851   4.801  17.652  0.00  0.00    +0.000 C 
ATOM     16  O   UNL     1       3.556   3.617  17.774  0.00  0.00    +0.000 OA
ATOM     17  N   UNL     1       4.852   5.229  16.812  0.00  0.00    +0.000 N 
ATOM     18  H   UNL     1       5.138   6.201  16.826  0.00  0.00    +0.000 HD
BRANCH  17  19
ATOM     19  C   UNL     1       5.601   4.333  15.945  0.00  0.00    +0.000 C 
BRANCH  19  20
ATOM     20  C   UNL     1       7.094   4.655  15.864  0.00  0.00    +0.000 C 
ATOM     21  N   UNL     1       7.518   5.314  14.744  0.00  0.00    +0.000 N 
ATOM     22  O   UNL     1       7.874   4.440  16.788  0.00  0.00    +0.000 OA
ATOM     23  H   UNL     1       6.835   5.813  14.186  0.00  0.00    +0.000 HD
ATOM     24  H   UNL     1       8.460   5.677  14.769  0.00  0.00    +0.000 HD
ENDBRANCH  19  20
ENDBRANCH  17  19
ENDBRANCH   4  15
TORSDOF 4
ENDMDL
MODEL 4
REMARK VINA RESULT:      -7.7      2.733      3.952
REMARK  Name = 
REMARK  5 active torsions:
REMARK  status: ('A' for Active; 'I' for Inactive)
REMARK    1  A    between atoms: C_1  and  C_2
REMARK    2  A    between atoms: C_5  and  C_6
REMARK    3  A    between atoms: C_9  and  C_10
REMARK    4  A    between atoms: N_12  and  C_13
REMARK    5  A    between atoms: C_13  and  C_14
REMARK                            x       y       z     vdW  Elec       q    Type
REMARK                         _______ _______ _______ _____ _____    ______ ____
ROOT
ATOM      1  C   UNL     1       1.607   8.023  19.929  0.00  0.00    +0.000 A 
ATOM      2  C   UNL     1       2.065   8.252  18.617  0.00  0.00    +0.000 A 
ATOM      3  C   UNL     1       2.738   7.259  17.887  0.00  0.00    +0.000 A 
ATOM      4  C   UNL     1       2.987   6.006  18.458  0.00  0.00    +0.000 A 
ATOM      5  C   UNL     1       2.555   5.779  19.763  0.00  0.00    +0.000 A 
ATOM      6  F   UNL     1       2.768   4.600  20.370  0.00  0.00    +0.000 F 
ATOM      7  C   UNL     1       1.873   6.760  20.484  0.00  0.00    +0.000 A 
ENDROOT
BRANCH   1  12
ATOM      8  C   UNL     1      -1.217  12.127  22.955  0.00  0.00    +0.000 C 
ATOM      9  C   UNL     1      -0.507  11.056  22.181  0.00  0.00    +0.000 A 
ATOM     10  C   UNL     1      -0.152   9.847  22.778  0.00  0.00    +0.000 A 
ATOM     11  C   UNL     1       0.527   8.864  22.047  0.00  0.00    +0.000 A 
ATOM     12  C   UNL     1       0.865   9.052  20.696  0.00  0.00    +0.000 A 
ATOM     13  C   UNL     1       0.486  10.274  20.109  0.00  0.00    +0.000 A 
ATOM     14  C   UNL     1      -0.180  11.265  20.840  0.00  0.00    +0.000 A 
ENDBRANCH   1  12
BRANCH   4  15
ATOM     15  C   UNL     1       3.682   4.966  17.648  0.00  0.00    +0.000 C 
ATOM     16  O   UNL     1       3.266   3.813  17.631  0.00  0.00    +0.000 OA
ATOM     17  N   UNL     1       4.818   5.351  16.974  0.00  0.00    +0.000 N 
ATOM     18  H   UNL     1       5.189   6.285  17.106  0.00  0.00    +0.000 HD
BRANCH  17  19
ATOM     19  C   UNL     1       5.584   4.449  16.128  0.00  0.00    +0.000 C 
BRANCH  19  20
ATOM     20  C   UNL     1       7.077   4.778  16.066  0.00  0.00    +0.000 C 
ATOM     21  N   UNL     1       7.842   4.346  17.113  0.00  0.00    +0.000 N 
ATOM     22  O   UNL     1       7.605   5.306  15.091  0.00  0.00    +0.000 OA
ATOM     23  H   UNL     1       7.485   3.603  17.703  0.00  0.00    +0.000 HD
ATOM     24  H   UNL     1       8.843   4.409  16.992  0.00  0.00    +0.000 HD
ENDBRANCH  19  20
ENDBRANCH  17  19
ENDBRANCH   4  15
TORSDOF 4
ENDMDL
MODEL 5
REMARK VINA RESULT:      -7.6      2.096      3.279
REMARK  Name = 
REMARK  5 active torsions:
REMARK  status: ('A' for Active; 'I' for Inactive)
REMARK    1  A    between atoms: C_1  and  C_2
REMARK    2  A    between atoms: C_5  and  C_6
REMARK    3  A    between atoms: C_9  and  C_10
REMARK    4  A    between atoms: N_12  and  C_13
REMARK    5  A    between atoms: C_13  and  C_14
REMARK                            x       y       z     vdW  Elec       q    Type
REMARK                         _______ _______ _______ _____ _____    ______ ____
ROOT
ATOM      1  C   UNL     1       2.187   7.724  19.504  0.00  0.00    +0.000 A 
ATOM      2  C   UNL     1       2.706   8.059  18.239  0.00  0.00    +0.000 A 
ATOM      3  C   UNL     1       3.489   7.156  17.500  0.00  0.00    +0.000 A 
ATOM      4  C   UNL     1       3.787   5.890  18.016  0.00  0.00    +0.000 A 
ATOM      5  C   UNL     1       3.292   5.559  19.275  0.00  0.00    +0.000 A 
ATOM      6  F   UNL     1       3.548   4.362  19.829  0.00  0.00    +0.000 F 
ATOM      7  C   UNL     1       2.502   6.449  20.004  0.00  0.00    +0.000 A 
ENDROOT
BRANCH   1  12
ATOM      8  C   UNL     1      -1.258  11.313  22.541  0.00  0.00    +0.000 C 
ATOM      9  C   UNL     1      -0.359  10.407  21.752  0.00  0.00    +0.000 A 
ATOM     10  C   UNL     1      -0.159  10.597  20.385  0.00  0.00    +0.000 A 
ATOM     11  C   UNL     1       0.670   9.732  19.659  0.00  0.00    +0.000 A 
ATOM     12  C   UNL     1       1.331   8.655  20.276  0.00  0.00    +0.000 A 
ATOM     13  C   UNL     1       1.126   8.490  21.658  0.00  0.00    +0.000 A 
ATOM     14  C   UNL     1       0.287   9.344  22.385  0.00  0.00    +0.000 A 
ENDBRANCH   1  12
BRANCH   4  15
ATOM     15  C   UNL     1       4.600   4.947  17.196  0.00  0.00    +0.000 C 
ATOM     16  O   UNL     1       4.069   3.987  16.648  0.00  0.00    +0.000 OA
ATOM     17  N   UNL     1       5.953   5.179  17.129  0.00  0.00    +0.000 N 
ATOM     18  H   UNL     1       6.365   5.917  17.689  0.00  0.00    +0.000 HD
BRANCH  17  19
ATOM     19  C   UNL     1       6.864   4.355  16.350  0.00  0.00    +0.000 C 
BRANCH  19  20
ATOM     20  C   UNL     1       6.933   4.738  14.870  0.00  0.00    +0.000 C 
ATOM     21  N   UNL     1       6.019   4.148  14.043  0.00  0.00    +0.000 N 
ATOM     22  O   UNL     1       7.688   5.605  14.440  0.00  0.00    +0.000 OA
ATOM     23  H   UNL     1       5.182   3.746  14.450  0.00  0.00    +0.000 HD
ATOM     24  H   UNL     1       5.950   4.527  13.109  0.00  0.00    +0.000 HD
ENDBRANCH  19  20
ENDBRANCH  17  19
ENDBRANCH   4  15
TORSDOF 4
ENDMDL
MODEL 6
REMARK VINA RESULT:      -7.6      2.906      4.403
REMARK  Name = 
REMARK  5 active torsions:
REMARK  status: ('A' for Active; 'I' for Inactive)
REMARK    1  A    between atoms: C_1  and  C_2
REMARK    2  A    between atoms: C_5  and  C_6
REMARK    3  A    between atoms: C_9  and  C_10
REMARK    4  A    between atoms: N_12  and  C_13
REMARK    5  A    between atoms: C_13  and  C_14
REMARK                            x       y       z     vdW  Elec       q    Type
REMARK                         _______ _______ _______ _____ _____    ______ ____
ROOT
ATOM      1  C   UNL     1       1.424   8.387  20.055  0.00  0.00    +0.000 A 
ATOM      2  C   UNL     1       1.936   8.680  18.777  0.00  0.00    +0.000 A 
ATOM      3  C   UNL     1       2.664   7.733  18.040  0.00  0.00    +0.000 A 
ATOM      4  C   UNL     1       2.915   6.463  18.570  0.00  0.00    +0.000 A 
ATOM      5  C   UNL     1       2.429   6.172  19.842  0.00  0.00    +0.000 A 
ATOM      6  F   UNL     1       2.641   4.973  20.410  0.00  0.00    +0.000 F 
ATOM      7  C   UNL     1       1.692   7.107  20.570  0.00  0.00    +0.000 A 
ENDROOT
BRANCH   1  12
ATOM      8  C   UNL     1      -1.809  12.176  23.084  0.00  0.00    +0.000 C 
ATOM      9  C   UNL     1      -0.962  11.217  22.299  0.00  0.00    +0.000 A 
ATOM     10  C   UNL     1      -0.667  11.446  20.955  0.00  0.00    +0.000 A 
ATOM     11  C   UNL     1       0.109  10.532  20.231  0.00  0.00    +0.000 A 
ATOM     12  C   UNL     1       0.624   9.368  20.828  0.00  0.00    +0.000 A 
ATOM     13  C   UNL     1       0.326   9.164  22.187  0.00  0.00    +0.000 A 
ATOM     14  C   UNL     1      -0.462  10.067  22.912  0.00  0.00    +0.000 A 
ENDBRANCH   1  12
BRANCH   4  15
ATOM     15  C   UNL     1       3.671   5.472  17.751  0.00  0.00    +0.000 C 
ATOM     16  O   UNL     1       3.410   4.277  17.829  0.00  0.00    +0.000 OA
ATOM     17  N   UNL     1       4.685   5.956  16.958  0.00  0.00    +0.000 N 
ATOM     18  H   UNL     1       4.940   6.935  17.010  0.00  0.00    +0.000 HD
BRANCH  17  19
ATOM     19  C   UNL     1       5.490   5.109  16.091  0.00  0.00    +0.000 C 
BRANCH  19  20
ATOM     20  C   UNL     1       6.792   4.627  16.733  0.00  0.00    +0.000 C 
ATOM     21  N   UNL     1       6.711   4.187  18.025  0.00  0.00    +0.000 N 
ATOM     22  O   UNL     1       7.846   4.528  16.111  0.00  0.00    +0.000 OA
ATOM     23  H   UNL     1       5.805   3.917  18.390  0.00  0.00    +0.000 HD
ATOM     24  H   UNL     1       7.525   3.711  18.387  0.00  0.00    +0.000 HD
ENDBRANCH  19  20
ENDBRANCH  17  19
ENDBRANCH   4  15
TORSDOF 4
ENDMDL
MODEL 7
REMARK VINA RESULT:      -7.5      3.336      5.123
REMARK  Name = 
REMARK  5 active torsions:
REMARK  status: ('A' for Active; 'I' for Inactive)
REMARK    1  A    between atoms: C_1  and  C_2
REMARK    2  A    between atoms: C_5  and  C_6
REMARK    3  A    between atoms: C_9  and  C_10
REMARK    4  A    between atoms: N_12  and  C_13
REMARK    5  A    between atoms: C_13  and  C_14
REMARK                            x       y       z     vdW  Elec       q    Type
REMARK                         _______ _______ _______ _____ _____    ______ ____
ROOT
ATOM      1  C   UNL     1       1.098   8.752  20.311  0.00  0.00    +0.000 A 
ATOM      2  C   UNL     1       1.472   7.497  20.827  0.00  0.00    +0.000 A 
ATOM      3  C   UNL     1       2.237   6.589  20.077  0.00  0.00    +0.000 A 
ATOM      4  C   UNL     1       2.640   6.908  18.775  0.00  0.00    +0.000 A 
ATOM      5  C   UNL     1       2.257   8.141  18.251  0.00  0.00    +0.000 A 
ATOM      6  F   UNL     1       2.606   8.504  17.006  0.00  0.00    +0.000 F 
ATOM      7  C   UNL     1       1.510   9.050  19.001  0.00  0.00    +0.000 A 
ENDROOT
BRANCH   1  12
ATOM      8  C   UNL     1      -2.050  12.548  23.418  0.00  0.00    +0.000 C 
ATOM      9  C   UNL     1      -1.224  11.587  22.617  0.00  0.00    +0.000 A 
ATOM     10  C   UNL     1      -0.771  11.913  21.338  0.00  0.00    +0.000 A 
ATOM     11  C   UNL     1      -0.015  10.997  20.595  0.00  0.00    +0.000 A 
ATOM     12  C   UNL     1       0.321   9.732  21.107  0.00  0.00    +0.000 A 
ATOM     13  C   UNL     1      -0.134   9.429  22.403  0.00  0.00    +0.000 A 
ATOM     14  C   UNL     1      -0.902  10.336  23.145  0.00  0.00    +0.000 A 
ENDBRANCH   1  12
BRANCH   4  15
ATOM     15  C   UNL     1       3.471   5.932  18.015  0.00  0.00    +0.000 C 
ATOM     16  O   UNL     1       3.005   4.848  17.683  0.00  0.00    +0.000 OA
ATOM     17  N   UNL     1       4.774   6.287  17.753  0.00  0.00    +0.000 N 
ATOM     18  H   UNL     1       5.149   7.143  18.143  0.00  0.00    +0.000 HD
BRANCH  17  19
ATOM     19  C   UNL     1       5.692   5.444  17.003  0.00  0.00    +0.000 C 
BRANCH  19  20
ATOM     20  C   UNL     1       6.693   4.688  17.878  0.00  0.00    +0.000 C 
ATOM     21  N   UNL     1       7.881   4.349  17.294  0.00  0.00    +0.000 N 
ATOM     22  O   UNL     1       6.510   4.478  19.074  0.00  0.00    +0.000 OA
ATOM     23  H   UNL     1       8.172   4.845  16.459  0.00  0.00    +0.000 HD
ATOM     24  H   UNL     1       8.604   4.009  17.913  0.00  0.00    +0.000 HD
ENDBRANCH  19  20
ENDBRANCH  17  19
ENDBRANCH   4  15
TORSDOF 4
ENDMDL
MODEL 8
REMARK VINA RESULT:      -7.5      2.651      3.982
REMARK  Name = 
REMARK  5 active torsions:
REMARK  status: ('A' for Active; 'I' for Inactive)
REMARK    1  A    between atoms: C_1  and  C_2
REMARK    2  A    between atoms: C_5  and  C_6
REMARK    3  A    between atoms: C_9  and  C_10
REMARK    4  A    between atoms: N_12  and  C_13
REMARK    5  A    between atoms: C_13  and  C_14
REMARK                            x       y       z     vdW  Elec       q    Type
REMARK                         _______ _______ _______ _____ _____    ______ ____
ROOT
ATOM      1  C   UNL     1       1.805   7.706  19.981  0.00  0.00    +0.000 A 
ATOM      2  C   UNL     1       2.023   6.410  20.486  0.00  0.00    +0.000 A 
ATOM      3  C   UNL     1       2.803   5.470  19.792  0.00  0.00    +0.000 A 
ATOM      4  C   UNL     1       3.378   5.798  18.560  0.00  0.00    +0.000 A 
ATOM      5  C   UNL     1       3.150   7.072  18.045  0.00  0.00    +0.000 A 
ATOM      6  F   UNL     1       3.669   7.447  16.864  0.00  0.00    +0.000 F 
ATOM      7  C   UNL     1       2.389   8.012  18.740  0.00  0.00    +0.000 A 
ENDROOT
BRANCH   1  12
ATOM      8  C   UNL     1      -1.390  11.607  22.905  0.00  0.00    +0.000 C 
ATOM      9  C   UNL     1      -0.556  10.620  22.143  0.00  0.00    +0.000 A 
ATOM     10  C   UNL     1      -0.467  10.669  20.751  0.00  0.00    +0.000 A 
ATOM     11  C   UNL     1       0.302   9.729  20.053  0.00  0.00    +0.000 A 
ATOM     12  C   UNL     1       1.012   8.717  20.721  0.00  0.00    +0.000 A 
ATOM     13  C   UNL     1       0.920   8.694  22.125  0.00  0.00    +0.000 A 
ATOM     14  C   UNL     1       0.141   9.623  22.826  0.00  0.00    +0.000 A 
ENDBRANCH   1  12
BRANCH   4  15
ATOM     15  C   UNL     1       4.220   4.785  17.861  0.00  0.00    +0.000 C 
ATOM     16  O   UNL     1       4.445   3.700  18.385  0.00  0.00    +0.000 OA
ATOM     17  N   UNL     1       4.757   5.145  16.648  0.00  0.00    +0.000 N 
ATOM     18  H   UNL     1       4.637   6.091  16.305  0.00  0.00    +0.000 HD
BRANCH  17  19
ATOM     19  C   UNL     1       5.578   4.251  15.846  0.00  0.00    +0.000 C 
BRANCH  19  20
ATOM     20  C   UNL     1       7.060   4.632  15.816  0.00  0.00    +0.000 C 
ATOM     21  N   UNL     1       7.491   5.329  14.723  0.00  0.00    +0.000 N 
ATOM     22  O   UNL     1       7.820   4.428  16.759  0.00  0.00    +0.000 OA
ATOM     23  H   UNL     1       6.806   5.812  14.154  0.00  0.00    +0.000 HD
ATOM     24  H   UNL     1       8.417   5.727  14.783  0.00  0.00    +0.000 HD
ENDBRANCH  19  20
ENDBRANCH  17  19
ENDBRANCH   4  15
TORSDOF 4
ENDMDL
MODEL 9
REMARK VINA RESULT:      -7.5      2.155      3.450
REMARK  Name = 
REMARK  5 active torsions:
REMARK  status: ('A' for Active; 'I' for Inactive)
REMARK    1  A    between atoms: C_1  and  C_2
REMARK    2  A    between atoms: C_5  and  C_6
REMARK    3  A    between atoms: C_9  and  C_10
REMARK    4  A    between atoms: N_12  and  C_13
REMARK    5  A    between atoms: C_13  and  C_14
REMARK                            x       y       z     vdW  Elec       q    Type
REMARK                         _______ _______ _______ _____ _____    ______ ____
ROOT
ATOM      1  C   UNL     1       2.162   7.582  19.537  0.00  0.00    +0.000 A 
ATOM      2  C   UNL     1       2.408   6.280  20.013  0.00  0.00    +0.000 A 
ATOM      3  C   UNL     1       3.227   5.381  19.312  0.00  0.00    +0.000 A 
ATOM      4  C   UNL     1       3.815   5.756  18.099  0.00  0.00    +0.000 A 
ATOM      5  C   UNL     1       3.561   7.036  17.611  0.00  0.00    +0.000 A 
ATOM      6  F   UNL     1       4.090   7.455  16.450  0.00  0.00    +0.000 F 
ATOM      7  C   UNL     1       2.759   7.936  18.315  0.00  0.00    +0.000 A 
ENDROOT
BRANCH   1  12
ATOM      8  C   UNL     1      -1.203  11.320  22.483  0.00  0.00    +0.000 C 
ATOM      9  C   UNL     1      -0.324  10.375  21.718  0.00  0.00    +0.000 A 
ATOM     10  C   UNL     1      -0.090  10.548  20.354  0.00  0.00    +0.000 A 
ATOM     11  C   UNL     1       0.719   9.647  19.650  0.00  0.00    +0.000 A 
ATOM     12  C   UNL     1       1.327   8.551  20.286  0.00  0.00    +0.000 A 
ATOM     13  C   UNL     1       1.090   8.403  21.665  0.00  0.00    +0.000 A 
ATOM     14  C   UNL     1       0.270   9.293  22.370  0.00  0.00    +0.000 A 
ENDBRANCH   1  12
BRANCH   4  15
ATOM     15  C   UNL     1       4.699   4.786  17.392  0.00  0.00    +0.000 C 
ATOM     16  O   UNL     1       4.279   3.676  17.085  0.00  0.00    +0.000 OA
ATOM     17  N   UNL     1       5.995   5.177  17.150  0.00  0.00    +0.000 N 
ATOM     18  H   UNL     1       6.331   6.059  17.520  0.00  0.00    +0.000 HD
BRANCH  17  19
ATOM     19  C   UNL     1       6.960   4.343  16.451  0.00  0.00    +0.000 C 
BRANCH  19  20
ATOM     20  C   UNL     1       6.984   4.561  14.937  0.00  0.00    +0.000 C 
ATOM     21  N   UNL     1       6.262   3.681  14.181  0.00  0.00    +0.000 N 
ATOM     22  O   UNL     1       7.526   5.529  14.410  0.00  0.00    +0.000 OA
ATOM     23  H   UNL     1       5.532   3.140  14.629  0.00  0.00    +0.000 HD
ATOM     24  H   UNL     1       6.136   3.925  13.208  0.00  0.00    +0.000 HD
ENDBRANCH  19  20
ENDBRANCH  17  19
ENDBRANCH   4  15
TORSDOF 4
ENDMDL
