MODEL 1
REMARK VINA RESULT:      -8.1      0.000      0.000
REMARK  Name = 
REMARK  9 active torsions:
REMARK  status: ('A' for Active; 'I' for Inactive)
REMARK    1  A    between atoms: C_1  and  C_2
REMARK    2  A    between atoms: C_4  and  C_5
REMARK    3  A    between atoms: C_5  and  C_7
REMARK    4  A    between atoms: C_10  and  C_11
REMARK    5  A    between atoms: C_11  and  C_12
REMARK    6  A    between atoms: C_11  and  C_13
REMARK    7  A    between atoms: C_11  and  C_14
REMARK    8  A    between atoms: N_19  and  C_20
REMARK    9  A    between atoms: C_23  and  C_24
REMARK                            x       y       z     vdW  Elec       q    Type
REMARK                         _______ _______ _______ _____ _____    ______ ____
ROOT
ATOM      1  C   UNL     1       8.651   5.659  20.155  0.00  0.00    +0.000 C 
ATOM      2  C   UNL     1       8.007   6.356  18.996  0.00  0.00    +0.000 A 
ATOM      3  C   UNL     1       7.060   5.733  18.213  0.00  0.00    +0.000 A 
ATOM      4  C   UNL     1       6.520   6.481  17.181  0.00  0.00    +0.000 A 
ATOM      5  N   UNL     1       6.951   7.739  16.908  0.00  0.00    +0.000 NA
ATOM      6  C   UNL     1       7.886   8.265  17.710  0.00  0.00    +0.000 A 
ATOM      7  N   UNL     1       8.365   9.529  17.378  0.00  0.00    +0.000 N 
ATOM      8  N   UNL     1       8.409   7.617  18.762  0.00  0.00    +0.000 NA
ATOM      9  H   UNL     1       7.979   9.836  16.497  0.00  0.00    +0.000 HD
ENDROOT
BRANCH   7  10
ATOM     10  C   UNL     1       8.807  10.540  18.241  0.00  0.00    +0.000 A 
ATOM     11  C   UNL     1       8.714  11.876  17.836  0.00  0.00    +0.000 A 
ATOM     12  C   UNL     1       9.195  12.906  18.651  0.00  0.00    +0.000 A 
ATOM     13  C   UNL     1       9.758  12.613  19.896  0.00  0.00    +0.000 A 
ATOM     14  C   UNL     1       9.840  11.284  20.318  0.00  0.00    +0.000 A 
ATOM     15  C   UNL     1       9.374  10.259  19.491  0.00  0.00    +0.000 A 
BRANCH  13  16
ATOM     16  C   UNL     1      10.254  13.666  20.734  0.00  0.00    +0.000 C 
ATOM     17  N   UNL     1      10.656  14.514  21.412  0.00  0.00    +0.000 NA
ENDBRANCH  13  16
ENDBRANCH   7  10
BRANCH   4  18
ATOM     18  C   UNL     1       5.424   5.928  16.287  0.00  0.00    +0.000 C 
ATOM     19 CL   UNL     1       6.138   4.957  14.955  0.00  0.00    +0.000 Cl
BRANCH  18  20
ATOM     20  C   UNL     1       4.309   5.187  17.013  0.00  0.00    +0.000 A 
ATOM     21  C   UNL     1       4.284   3.786  16.984  0.00  0.00    +0.000 A 
ATOM     22  C   UNL     1       3.332   3.063  17.715  0.00  0.00    +0.000 A 
ATOM     23  C   UNL     1       2.363   3.704  18.506  0.00  0.00    +0.000 A 
ATOM     24  C   UNL     1       2.352   5.109  18.476  0.00  0.00    +0.000 A 
ATOM     25  C   UNL     1       3.297   5.835  17.735  0.00  0.00    +0.000 A 
BRANCH  23  26
ATOM     26  C   UNL     1       1.384   2.927  19.407  0.00  0.00    +0.000 C 
ATOM     27  C   UNL     1       0.364   2.098  18.594  0.00  0.00    +0.000 C 
ATOM     28  C   UNL     1       2.168   1.947  20.310  0.00  0.00    +0.000 C 
ATOM     29  C   UNL     1       0.581   3.882  20.315  0.00  0.00    +0.000 C 
ENDBRANCH  23  26
ENDBRANCH  18  20
ENDBRANCH   4  18
TORSDOF 5
ENDMDL
MODEL 2
REMARK VINA RESULT:      -8.0      0.108      1.227
REMARK  Name = 
REMARK  9 active torsions:
REMARK  status: ('A' for Active; 'I' for Inactive)
REMARK    1  A    between atoms: C_1  and  C_2
REMARK    2  A    between atoms: C_4  and  C_5
REMARK    3  A    between atoms: C_5  and  C_7
REMARK    4  A    between atoms: C_10  and  C_11
REMARK    5  A    between atoms: C_11  and  C_12
REMARK    6  A    between atoms: C_11  and  C_13
REMARK    7  A    between atoms: C_11  and  C_14
REMARK    8  A    between atoms: N_19  and  C_20
REMARK    9  A    between atoms: C_23  and  C_24
REMARK                            x       y       z     vdW  Elec       q    Type
REMARK                         _______ _______ _______ _____ _____    ______ ____
ROOT
ATOM      1  C   UNL     1       8.646   5.669  20.162  0.00  0.00    +0.000 C 
ATOM      2  C   UNL     1       8.007   6.360  18.995  0.00  0.00    +0.000 A 
ATOM      3  C   UNL     1       7.058   5.736  18.216  0.00  0.00    +0.000 A 
ATOM      4  C   UNL     1       6.524   6.478  17.177  0.00  0.00    +0.000 A 
ATOM      5  N   UNL     1       6.962   7.732  16.895  0.00  0.00    +0.000 NA
ATOM      6  C   UNL     1       7.899   8.259  17.695  0.00  0.00    +0.000 A 
ATOM      7  N   UNL     1       8.384   9.518  17.353  0.00  0.00    +0.000 N 
ATOM      8  N   UNL     1       8.416   7.617  18.752  0.00  0.00    +0.000 NA
ATOM      9  H   UNL     1       8.001   9.821  16.469  0.00  0.00    +0.000 HD
ENDROOT
BRANCH   7  10
ATOM     10  C   UNL     1       8.830  10.534  18.210  0.00  0.00    +0.000 A 
ATOM     11  C   UNL     1       9.293  10.198  19.487  0.00  0.00    +0.000 A 
ATOM     12  C   UNL     1       9.697  11.191  20.386  0.00  0.00    +0.000 A 
ATOM     13  C   UNL     1       9.662  12.537  20.008  0.00  0.00    +0.000 A 
ATOM     14  C   UNL     1       9.218  12.881  18.731  0.00  0.00    +0.000 A 
ATOM     15  C   UNL     1       8.799  11.885  17.845  0.00  0.00    +0.000 A 
BRANCH  13  16
ATOM     16  C   UNL     1      10.073  13.559  20.927  0.00  0.00    +0.000 C 
ATOM     17  N   UNL     1      10.404  14.385  21.667  0.00  0.00    +0.000 NA
ENDBRANCH  13  16
ENDBRANCH   7  10
BRANCH   4  18
ATOM     18  C   UNL     1       5.427   5.925  16.285  0.00  0.00    +0.000 C 
ATOM     19 CL   UNL     1       6.140   4.951  14.954  0.00  0.00    +0.000 Cl
BRANCH  18  20
ATOM     20  C   UNL     1       4.313   5.184  17.014  0.00  0.00    +0.000 A 
ATOM     21  C   UNL     1       4.295   3.783  16.998  0.00  0.00    +0.000 A 
ATOM     22  C   UNL     1       3.344   3.063  17.732  0.00  0.00    +0.000 A 
ATOM     23  C   UNL     1       2.369   3.706  18.513  0.00  0.00    +0.000 A 
ATOM     24  C   UNL     1       2.350   5.111  18.470  0.00  0.00    +0.000 A 
ATOM     25  C   UNL     1       3.295   5.834  17.726  0.00  0.00    +0.000 A 
BRANCH  23  26
ATOM     26  C   UNL     1       1.390   2.933  19.418  0.00  0.00    +0.000 C 
ATOM     27  C   UNL     1       0.565   3.868  20.331  0.00  0.00    +0.000 C 
ATOM     28  C   UNL     1       0.393   2.133  18.548  0.00  0.00    +0.000 C 
ATOM     29  C   UNL     1       2.137   1.940  20.332  0.00  0.00    +0.000 C 
ENDBRANCH  23  26
ENDBRANCH  18  20
ENDBRANCH   4  18
TORSDOF 5
ENDMDL
MODEL 3
REMARK VINA RESULT:      -7.6      7.627     10.100
REMARK  Name = 
REMARK  9 active torsions:
REMARK  status: ('A' for Active; 'I' for Inactive)
REMARK    1  A    between atoms: C_1  and  C_2
REMARK    2  A    between atoms: C_4  and  C_5
REMARK    3  A    between atoms: C_5  and  C_7
REMARK    4  A    between atoms: C_10  and  C_11
REMARK    5  A    between atoms: C_11  and  C_12
REMARK    6  A    between atoms: C_11  and  C_13
REMARK    7  A    between atoms: C_11  and  C_14
REMARK    8  A    between atoms: N_19  and  C_20
REMARK    9  A    between atoms: C_23  and  C_24
REMARK                            x       y       z     vdW  Elec       q    Type
REMARK                         _______ _______ _______ _____ _____    ______ ____
ROOT
ATOM      1  C   UNL     1       1.171  13.474  18.348  0.00  0.00    +0.000 C 
ATOM      2  C   UNL     1       0.616  12.157  18.798  0.00  0.00    +0.000 A 
ATOM      3  C   UNL     1       1.361  11.278  19.553  0.00  0.00    +0.000 A 
ATOM      4  C   UNL     1       0.738  10.100  19.927  0.00  0.00    +0.000 A 
ATOM      5  N   UNL     1      -0.518   9.793  19.514  0.00  0.00    +0.000 NA
ATOM      6  C   UNL     1      -1.168  10.698  18.770  0.00  0.00    +0.000 A 
ATOM      7  N   UNL     1      -2.429  10.341  18.300  0.00  0.00    +0.000 N 
ATOM      8  N   UNL     1      -0.645  11.882  18.421  0.00  0.00    +0.000 NA
ATOM      9  H   UNL     1      -2.637   9.380  18.530  0.00  0.00    +0.000 HD
ENDROOT
BRANCH   7  10
ATOM     10  C   UNL     1      -3.534  11.172  18.075  0.00  0.00    +0.000 A 
ATOM     11  C   UNL     1      -4.100  11.866  19.150  0.00  0.00    +0.000 A 
ATOM     12  C   UNL     1      -5.235  12.663  18.970  0.00  0.00    +0.000 A 
ATOM     13  C   UNL     1      -5.809  12.792  17.702  0.00  0.00    +0.000 A 
ATOM     14  C   UNL     1      -5.243  12.117  16.619  0.00  0.00    +0.000 A 
ATOM     15  C   UNL     1      -4.119  11.309  16.810  0.00  0.00    +0.000 A 
BRANCH  13  16
ATOM     16  C   UNL     1      -6.975  13.606  17.513  0.00  0.00    +0.000 C 
ATOM     17  N   UNL     1      -7.916  14.262  17.358  0.00  0.00    +0.000 NA
ENDBRANCH  13  16
ENDBRANCH   7  10
BRANCH   4  18
ATOM     18  C   UNL     1       1.432   9.078  20.810  0.00  0.00    +0.000 C 
ATOM     19 CL   UNL     1       0.490   8.817  22.318  0.00  0.00    +0.000 Cl
BRANCH  18  20
ATOM     20  C   UNL     1       1.799   7.770  20.121  0.00  0.00    +0.000 A 
ATOM     21  C   UNL     1       2.362   7.804  18.838  0.00  0.00    +0.000 A 
ATOM     22  C   UNL     1       2.799   6.632  18.208  0.00  0.00    +0.000 A 
ATOM     23  C   UNL     1       2.694   5.375  18.827  0.00  0.00    +0.000 A 
ATOM     24  C   UNL     1       2.067   5.340  20.083  0.00  0.00    +0.000 A 
ATOM     25  C   UNL     1       1.617   6.511  20.712  0.00  0.00    +0.000 A 
BRANCH  23  26
ATOM     26  C   UNL     1       3.274   4.093  18.200  0.00  0.00    +0.000 C 
ATOM     27  C   UNL     1       4.191   3.320  19.176  0.00  0.00    +0.000 C 
ATOM     28  C   UNL     1       2.125   3.143  17.789  0.00  0.00    +0.000 C 
ATOM     29  C   UNL     1       4.110   4.412  16.942  0.00  0.00    +0.000 C 
ENDBRANCH  23  26
ENDBRANCH  18  20
ENDBRANCH   4  18
TORSDOF 5
ENDMDL
MODEL 4
REMARK VINA RESULT:      -7.5      7.573     10.052
REMARK  Name = 
REMARK  9 active torsions:
REMARK  status: ('A' for Active; 'I' for Inactive)
REMARK    1  A    between atoms: C_1  and  C_2
REMARK    2  A    between atoms: C_4  and  C_5
REMARK    3  A    between atoms: C_5  and  C_7
REMARK    4  A    between atoms: C_10  and  C_11
REMARK    5  A    between atoms: C_11  and  C_12
REMARK    6  A    between atoms: C_11  and  C_13
REMARK    7  A    between atoms: C_11  and  C_14
REMARK    8  A    between atoms: N_19  and  C_20
REMARK    9  A    between atoms: C_23  and  C_24
REMARK                            x       y       z     vdW  Elec       q    Type
REMARK                         _______ _______ _______ _____ _____    ______ ____
ROOT
ATOM      1  C   UNL     1       1.110  13.317  18.352  0.00  0.00    +0.000 C 
ATOM      2  C   UNL     1       0.554  12.014  18.840  0.00  0.00    +0.000 A 
ATOM      3  C   UNL     1       1.285  11.176  19.654  0.00  0.00    +0.000 A 
ATOM      4  C   UNL     1       0.662  10.008  20.058  0.00  0.00    +0.000 A 
ATOM      5  N   UNL     1      -0.577   9.670  19.620  0.00  0.00    +0.000 NA
ATOM      6  C   UNL     1      -1.213  10.535  18.819  0.00  0.00    +0.000 A 
ATOM      7  N   UNL     1      -2.454  10.144  18.326  0.00  0.00    +0.000 N 
ATOM      8  N   UNL     1      -0.691  11.710  18.436  0.00  0.00    +0.000 NA
ATOM      9  H   UNL     1      -2.659   9.191  18.590  0.00  0.00    +0.000 HD
ENDROOT
BRANCH   7  10
ATOM     10  C   UNL     1      -3.561  10.952  18.031  0.00  0.00    +0.000 A 
ATOM     11  C   UNL     1      -4.015  11.035  16.710  0.00  0.00    +0.000 A 
ATOM     12  C   UNL     1      -5.084  11.872  16.373  0.00  0.00    +0.000 A 
ATOM     13  C   UNL     1      -5.727  12.624  17.361  0.00  0.00    +0.000 A 
ATOM     14  C   UNL     1      -5.293  12.535  18.684  0.00  0.00    +0.000 A 
ATOM     15  C   UNL     1      -4.213  11.711  19.011  0.00  0.00    +0.000 A 
BRANCH  13  16
ATOM     16  C   UNL     1      -6.822  13.486  17.019  0.00  0.00    +0.000 C 
ATOM     17  N   UNL     1      -7.704  14.183  16.745  0.00  0.00    +0.000 NA
ENDBRANCH  13  16
ENDBRANCH   7  10
BRANCH   4  18
ATOM     18  C   UNL     1       1.339   9.032  21.005  0.00  0.00    +0.000 C 
ATOM     19 CL   UNL     1       0.375   8.858  22.511  0.00  0.00    +0.000 Cl
BRANCH  18  20
ATOM     20  C   UNL     1       1.708   7.687  20.392  0.00  0.00    +0.000 A 
ATOM     21  C   UNL     1       1.453   6.512  21.113  0.00  0.00    +0.000 A 
ATOM     22  C   UNL     1       1.690   5.252  20.549  0.00  0.00    +0.000 A 
ATOM     23  C   UNL     1       2.192   5.107  19.244  0.00  0.00    +0.000 A 
ATOM     24  C   UNL     1       2.509   6.289  18.554  0.00  0.00    +0.000 A 
ATOM     25  C   UNL     1       2.283   7.552  19.121  0.00  0.00    +0.000 A 
BRANCH  23  26
ATOM     26  C   UNL     1       2.349   3.732  18.565  0.00  0.00    +0.000 C 
ATOM     27  C   UNL     1       3.420   2.853  19.252  0.00  0.00    +0.000 C 
ATOM     28  C   UNL     1       1.009   2.963  18.622  0.00  0.00    +0.000 C 
ATOM     29  C   UNL     1       2.758   3.882  17.085  0.00  0.00    +0.000 C 
ENDBRANCH  23  26
ENDBRANCH  18  20
ENDBRANCH   4  18
TORSDOF 5
ENDMDL
MODEL 5
REMARK VINA RESULT:      -7.4      7.444      9.675
REMARK  Name = 
REMARK  9 active torsions:
REMARK  status: ('A' for Active; 'I' for Inactive)
REMARK    1  A    between atoms: C_1  and  C_2
REMARK    2  A    between atoms: C_4  and  C_5
REMARK    3  A    between atoms: C_5  and  C_7
REMARK    4  A    between atoms: C_10  and  C_11
REMARK    5  A    between atoms: C_11  and  C_12
REMARK    6  A    between atoms: C_11  and  C_13
REMARK    7  A    between atoms: C_11  and  C_14
REMARK    8  A    between atoms: N_19  and  C_20
REMARK    9  A    between atoms: C_23  and  C_24
REMARK                            x       y       z     vdW  Elec       q    Type
REMARK                         _______ _______ _______ _____ _____    ______ ____
ROOT
ATOM      1  C   UNL     1       0.970   9.232  23.082  0.00  0.00    +0.000 C 
ATOM      2  C   UNL     1       0.730   9.689  21.676  0.00  0.00    +0.000 A 
ATOM      3  C   UNL     1       0.049  10.854  21.401  0.00  0.00    +0.000 A 
ATOM      4  C   UNL     1      -0.097  11.186  20.065  0.00  0.00    +0.000 A 
ATOM      5  N   UNL     1       0.347  10.372  19.073  0.00  0.00    +0.000 NA
ATOM      6  C   UNL     1       0.987   9.250  19.428  0.00  0.00    +0.000 A 
ATOM      7  N   UNL     1       1.377   8.394  18.402  0.00  0.00    +0.000 N 
ATOM      8  N   UNL     1       1.212   8.898  20.702  0.00  0.00    +0.000 NA
ATOM      9  H   UNL     1       1.029   8.722  17.512  0.00  0.00    +0.000 HD
ENDROOT
BRANCH   7  10
ATOM     10  C   UNL     1       2.502   7.561  18.352  0.00  0.00    +0.000 A 
ATOM     11  C   UNL     1       2.638   6.538  19.299  0.00  0.00    +0.000 A 
ATOM     12  C   UNL     1       3.774   5.721  19.310  0.00  0.00    +0.000 A 
ATOM     13  C   UNL     1       4.781   5.905  18.358  0.00  0.00    +0.000 A 
ATOM     14  C   UNL     1       4.647   6.911  17.400  0.00  0.00    +0.000 A 
ATOM     15  C   UNL     1       3.518   7.734  17.405  0.00  0.00    +0.000 A 
BRANCH  13  16
ATOM     16  C   UNL     1       5.949   5.071  18.368  0.00  0.00    +0.000 C 
ATOM     17  N   UNL     1       6.892   4.400  18.376  0.00  0.00    +0.000 NA
ENDBRANCH  13  16
ENDBRANCH   7  10
BRANCH   4  18
ATOM     18  C   UNL     1      -0.774  12.475  19.634  0.00  0.00    +0.000 C 
ATOM     19 CL   UNL     1       0.014  13.129  18.158  0.00  0.00    +0.000 Cl
BRANCH  18  20
ATOM     20  C   UNL     1      -2.290  12.395  19.496  0.00  0.00    +0.000 A 
ATOM     21  C   UNL     1      -2.844  11.696  18.416  0.00  0.00    +0.000 A 
ATOM     22  C   UNL     1      -4.229  11.518  18.303  0.00  0.00    +0.000 A 
ATOM     23  C   UNL     1      -5.122  12.030  19.260  0.00  0.00    +0.000 A 
ATOM     24  C   UNL     1      -4.564  12.788  20.303  0.00  0.00    +0.000 A 
ATOM     25  C   UNL     1      -3.177  12.977  20.412  0.00  0.00    +0.000 A 
BRANCH  23  26
ATOM     26  C   UNL     1      -6.636  11.747  19.215  0.00  0.00    +0.000 C 
ATOM     27  C   UNL     1      -7.325  11.998  20.576  0.00  0.00    +0.000 C 
ATOM     28  C   UNL     1      -7.311  12.668  18.173  0.00  0.00    +0.000 C 
ATOM     29  C   UNL     1      -6.920  10.282  18.821  0.00  0.00    +0.000 C 
ENDBRANCH  23  26
ENDBRANCH  18  20
ENDBRANCH   4  18
TORSDOF 5
ENDMDL
MODEL 6
REMARK VINA RESULT:      -7.3      6.389      9.877
REMARK  Name = 
REMARK  9 active torsions:
REMARK  status: ('A' for Active; 'I' for Inactive)
REMARK    1  A    between atoms: C_1  and  C_2
REMARK    2  A    between atoms: C_4  and  C_5
REMARK    3  A    between atoms: C_5  and  C_7
REMARK    4  A    between atoms: C_10  and  C_11
REMARK    5  A    between atoms: C_11  and  C_12
REMARK    6  A    between atoms: C_11  and  C_13
REMARK    7  A    between atoms: C_11  and  C_14
REMARK    8  A    between atoms: N_19  and  C_20
REMARK    9  A    between atoms: C_23  and  C_24
REMARK                            x       y       z     vdW  Elec       q    Type
REMARK                         _______ _______ _______ _____ _____    ______ ____
ROOT
ATOM      1  C   UNL     1       1.174   8.985  22.410  0.00  0.00    +0.000 C 
ATOM      2  C   UNL     1       1.008   9.307  20.956  0.00  0.00    +0.000 A 
ATOM      3  C   UNL     1       0.236  10.367  20.534  0.00  0.00    +0.000 A 
ATOM      4  C   UNL     1       0.170  10.581  19.168  0.00  0.00    +0.000 A 
ATOM      5  N   UNL     1       0.777   9.748  18.284  0.00  0.00    +0.000 NA
ATOM      6  C   UNL     1       1.497   8.732  18.779  0.00  0.00    +0.000 A 
ATOM      7  N   UNL     1       2.058   7.850  17.860  0.00  0.00    +0.000 N 
ATOM      8  N   UNL     1       1.649   8.503  20.091  0.00  0.00    +0.000 NA
ATOM      9  H   UNL     1       1.755   8.070  16.922  0.00  0.00    +0.000 HD
ENDROOT
BRANCH   7  10
ATOM     10  C   UNL     1       3.263   7.143  17.965  0.00  0.00    +0.000 A 
ATOM     11  C   UNL     1       4.327   7.472  17.117  0.00  0.00    +0.000 A 
ATOM     12  C   UNL     1       5.526   6.751  17.160  0.00  0.00    +0.000 A 
ATOM     13  C   UNL     1       5.682   5.702  18.070  0.00  0.00    +0.000 A 
ATOM     14  C   UNL     1       4.634   5.377  18.933  0.00  0.00    +0.000 A 
ATOM     15  C   UNL     1       3.433   6.089  18.872  0.00  0.00    +0.000 A 
BRANCH  13  16
ATOM     16  C   UNL     1       6.909   4.959  18.117  0.00  0.00    +0.000 C 
ATOM     17  N   UNL     1       7.899   4.361  18.152  0.00  0.00    +0.000 NA
ENDBRANCH  13  16
ENDBRANCH   7  10
BRANCH   4  18
ATOM     18  C   UNL     1      -0.597  11.752  18.581  0.00  0.00    +0.000 C 
ATOM     19 CL   UNL     1      -2.260  11.808  19.259  0.00  0.00    +0.000 Cl
BRANCH  18  20
ATOM     20  C   UNL     1       0.111  13.098  18.668  0.00  0.00    +0.000 A 
ATOM     21  C   UNL     1       1.486  13.168  18.408  0.00  0.00    +0.000 A 
ATOM     22  C   UNL     1       2.157  14.398  18.385  0.00  0.00    +0.000 A 
ATOM     23  C   UNL     1       1.488  15.611  18.622  0.00  0.00    +0.000 A 
ATOM     24  C   UNL     1       0.124  15.527  18.950  0.00  0.00    +0.000 A 
ATOM     25  C   UNL     1      -0.547  14.295  18.985  0.00  0.00    +0.000 A 
BRANCH  23  26
ATOM     26  C   UNL     1       2.182  16.980  18.487  0.00  0.00    +0.000 C 
ATOM     27  C   UNL     1       3.689  16.849  18.166  0.00  0.00    +0.000 C 
ATOM     28  C   UNL     1       1.530  17.788  17.341  0.00  0.00    +0.000 C 
ATOM     29  C   UNL     1       2.060  17.801  19.787  0.00  0.00    +0.000 C 
ENDBRANCH  23  26
ENDBRANCH  18  20
ENDBRANCH   4  18
TORSDOF 5
ENDMDL
MODEL 7
REMARK VINA RESULT:      -7.3      7.678      9.853
REMARK  Name = 
REMARK  9 active torsions:
REMARK  status: ('A' for Active; 'I' for Inactive)
REMARK    1  A    between atoms: C_1  and  C_2
REMARK    2  A    between atoms: C_4  and  C_5
REMARK    3  A    between atoms: C_5  and  C_7
REMARK    4  A    between atoms: C_10  and  C_11
REMARK    5  A    between atoms: C_11  and  C_12
REMARK    6  A    between atoms: C_11  and  C_13
REMARK    7  A    between atoms: C_11  and  C_14
REMARK    8  A    between atoms: N_19  and  C_20
REMARK    9  A    between atoms: C_23  and  C_24
REMARK                            x       y       z     vdW  Elec       q    Type
REMARK                         _______ _______ _______ _____ _____    ______ ____
ROOT
ATOM      1  C   UNL     1       0.629   9.254  23.220  0.00  0.00    +0.000 C 
ATOM      2  C   UNL     1       0.477   9.750  21.814  0.00  0.00    +0.000 A 
ATOM      3  C   UNL     1      -0.167  10.935  21.531  0.00  0.00    +0.000 A 
ATOM      4  C   UNL     1      -0.231  11.302  20.197  0.00  0.00    +0.000 A 
ATOM      5  N   UNL     1       0.253  10.504  19.212  0.00  0.00    +0.000 NA
ATOM      6  C   UNL     1       0.853   9.361  19.574  0.00  0.00    +0.000 A 
ATOM      7  N   UNL     1       1.285   8.524  18.550  0.00  0.00    +0.000 N 
ATOM      8  N   UNL     1       1.000   8.974  20.849  0.00  0.00    +0.000 NA
ATOM      9  H   UNL     1       0.993   8.879  17.651  0.00  0.00    +0.000 HD
ENDROOT
BRANCH   7  10
ATOM     10  C   UNL     1       2.396   7.670  18.542  0.00  0.00    +0.000 A 
ATOM     11  C   UNL     1       3.375   7.830  17.555  0.00  0.00    +0.000 A 
ATOM     12  C   UNL     1       4.471   6.962  17.487  0.00  0.00    +0.000 A 
ATOM     13  C   UNL     1       4.611   5.932  18.422  0.00  0.00    +0.000 A 
ATOM     14  C   UNL     1       3.648   5.775  19.421  0.00  0.00    +0.000 A 
ATOM     15  C   UNL     1       2.548   6.634  19.472  0.00  0.00    +0.000 A 
BRANCH  13  16
ATOM     16  C   UNL     1       5.731   5.039  18.355  0.00  0.00    +0.000 C 
ATOM     17  N   UNL     1       6.634   4.317  18.298  0.00  0.00    +0.000 NA
ENDBRANCH  13  16
ENDBRANCH   7  10
BRANCH   4  18
ATOM     18  C   UNL     1      -0.860  12.613  19.763  0.00  0.00    +0.000 C 
ATOM     19 CL   UNL     1      -0.128  13.173  18.220  0.00  0.00    +0.000 Cl
BRANCH  18  20
ATOM     20  C   UNL     1      -2.383  12.617  19.718  0.00  0.00    +0.000 A 
ATOM     21  C   UNL     1      -3.041  11.918  18.697  0.00  0.00    +0.000 A 
ATOM     22  C   UNL     1      -4.438  11.817  18.672  0.00  0.00    +0.000 A 
ATOM     23  C   UNL     1      -5.241  12.410  19.663  0.00  0.00    +0.000 A 
ATOM     24  C   UNL     1      -4.578  13.167  20.644  0.00  0.00    +0.000 A 
ATOM     25  C   UNL     1      -3.179  13.279  20.663  0.00  0.00    +0.000 A 
BRANCH  23  26
ATOM     26  C   UNL     1      -6.768  12.214  19.718  0.00  0.00    +0.000 C 
ATOM     27  C   UNL     1      -7.442  12.430  18.343  0.00  0.00    +0.000 C 
ATOM     28  C   UNL     1      -7.095  10.774  20.176  0.00  0.00    +0.000 C 
ATOM     29  C   UNL     1      -7.424  13.197  20.710  0.00  0.00    +0.000 C 
ENDBRANCH  23  26
ENDBRANCH  18  20
ENDBRANCH   4  18
TORSDOF 5
ENDMDL
MODEL 8
REMARK VINA RESULT:      -7.2      8.194     10.894
REMARK  Name = 
REMARK  9 active torsions:
REMARK  status: ('A' for Active; 'I' for Inactive)
REMARK    1  A    between atoms: C_1  and  C_2
REMARK    2  A    between atoms: C_4  and  C_5
REMARK    3  A    between atoms: C_5  and  C_7
REMARK    4  A    between atoms: C_10  and  C_11
REMARK    5  A    between atoms: C_11  and  C_12
REMARK    6  A    between atoms: C_11  and  C_13
REMARK    7  A    between atoms: C_11  and  C_14
REMARK    8  A    between atoms: N_19  and  C_20
REMARK    9  A    between atoms: C_23  and  C_24
REMARK                            x       y       z     vdW  Elec       q    Type
REMARK                         _______ _______ _______ _____ _____    ______ ____
ROOT
ATOM      1  C   UNL     1      -2.280   9.869  17.133  0.00  0.00    +0.000 C 
ATOM      2  C   UNL     1      -1.125  10.415  17.916  0.00  0.00    +0.000 A 
ATOM      3  C   UNL     1      -1.115  11.712  18.381  0.00  0.00    +0.000 A 
ATOM      4  C   UNL     1      -0.004  12.100  19.108  0.00  0.00    +0.000 A 
ATOM      5  N   UNL     1       1.054  11.271  19.295  0.00  0.00    +0.000 NA
ATOM      6  C   UNL     1       0.969  10.030  18.797  0.00  0.00    +0.000 A 
ATOM      7  N   UNL     1       2.088   9.215  18.939  0.00  0.00    +0.000 N 
ATOM      8  N   UNL     1      -0.102   9.571  18.133  0.00  0.00    +0.000 NA
ATOM      9  H   UNL     1       2.858   9.731  19.339  0.00  0.00    +0.000 HD
ENDROOT
BRANCH   7  10
ATOM     10  C   UNL     1       2.128   7.824  19.107  0.00  0.00    +0.000 A 
ATOM     11  C   UNL     1       2.469   7.013  18.018  0.00  0.00    +0.000 A 
ATOM     12  C   UNL     1       2.468   5.619  18.137  0.00  0.00    +0.000 A 
ATOM     13  C   UNL     1       2.144   5.018  19.356  0.00  0.00    +0.000 A 
ATOM     14  C   UNL     1       1.819   5.818  20.453  0.00  0.00    +0.000 A 
ATOM     15  C   UNL     1       1.805   7.209  20.322  0.00  0.00    +0.000 A 
BRANCH  13  16
ATOM     16  C   UNL     1       2.139   3.588  19.482  0.00  0.00    +0.000 C 
ATOM     17  N   UNL     1       2.135   2.436  19.586  0.00  0.00    +0.000 NA
ENDBRANCH  13  16
ENDBRANCH   7  10
BRANCH   4  18
ATOM     18  C   UNL     1       0.099  13.483  19.727  0.00  0.00    +0.000 C 
ATOM     19 CL   UNL     1      -0.096  14.746  18.463  0.00  0.00    +0.000 Cl
BRANCH  18  20
ATOM     20  C   UNL     1      -0.804  13.722  20.930  0.00  0.00    +0.000 A 
ATOM     21  C   UNL     1      -2.033  14.372  20.749  0.00  0.00    +0.000 A 
ATOM     22  C   UNL     1      -2.933  14.528  21.810  0.00  0.00    +0.000 A 
ATOM     23  C   UNL     1      -2.648  14.045  23.100  0.00  0.00    +0.000 A 
ATOM     24  C   UNL     1      -1.387  13.457  23.290  0.00  0.00    +0.000 A 
ATOM     25  C   UNL     1      -0.479  13.310  22.230  0.00  0.00    +0.000 A 
BRANCH  23  26
ATOM     26  C   UNL     1      -3.672  14.103  24.250  0.00  0.00    +0.000 C 
ATOM     27  C   UNL     1      -4.155  12.700  24.683  0.00  0.00    +0.000 C 
ATOM     28  C   UNL     1      -3.034  14.779  25.486  0.00  0.00    +0.000 C 
ATOM     29  C   UNL     1      -4.921  14.915  23.848  0.00  0.00    +0.000 C 
ENDBRANCH  23  26
ENDBRANCH  18  20
ENDBRANCH   4  18
TORSDOF 5
ENDMDL
MODEL 9
REMARK VINA RESULT:      -7.2      6.353      9.887
REMARK  Name = 
REMARK  9 active torsions:
REMARK  status: ('A' for Active; 'I' for Inactive)
REMARK    1  A    between atoms: C_1  and  C_2
REMARK    2  A    between atoms: C_4  and  C_5
REMARK    3  A    between atoms: C_5  and  C_7
REMARK    4  A    between atoms: C_10  and  C_11
REMARK    5  A    between atoms: C_11  and  C_12
REMARK    6  A    between atoms: C_11  and  C_13
REMARK    7  A    between atoms: C_11  and  C_14
REMARK    8  A    between atoms: N_19  and  C_20
REMARK    9  A    between atoms: C_23  and  C_24
REMARK                            x       y       z     vdW  Elec       q    Type
REMARK                         _______ _______ _______ _____ _____    ______ ____
ROOT
ATOM      1  C   UNL     1       1.222   8.933  22.356  0.00  0.00    +0.000 C 
ATOM      2  C   UNL     1       1.039   9.280  20.909  0.00  0.00    +0.000 A 
ATOM      3  C   UNL     1       0.268  10.351  20.514  0.00  0.00    +0.000 A 
ATOM      4  C   UNL     1       0.186  10.587  19.153  0.00  0.00    +0.000 A 
ATOM      5  N   UNL     1       0.778   9.766  18.248  0.00  0.00    +0.000 NA
ATOM      6  C   UNL     1       1.498   8.738  18.717  0.00  0.00    +0.000 A 
ATOM      7  N   UNL     1       2.042   7.868  17.777  0.00  0.00    +0.000 N 
ATOM      8  N   UNL     1       1.665   8.486  20.024  0.00  0.00    +0.000 NA
ATOM      9  H   UNL     1       1.728   8.105  16.847  0.00  0.00    +0.000 HD
ENDROOT
BRANCH   7  10
ATOM     10  C   UNL     1       3.244   7.152  17.856  0.00  0.00    +0.000 A 
ATOM     11  C   UNL     1       3.368   6.124  18.798  0.00  0.00    +0.000 A 
ATOM     12  C   UNL     1       4.572   5.424  18.938  0.00  0.00    +0.000 A 
ATOM     13  C   UNL     1       5.663   5.732  18.122  0.00  0.00    +0.000 A 
ATOM     14  C   UNL     1       5.545   6.744  17.167  0.00  0.00    +0.000 A 
ATOM     15  C   UNL     1       4.345   7.451  17.044  0.00  0.00    +0.000 A 
BRANCH  13  16
ATOM     16  C   UNL     1       6.900   5.019  18.264  0.00  0.00    +0.000 C 
ATOM     17  N   UNL     1       7.899   4.446  18.377  0.00  0.00    +0.000 NA
ENDBRANCH  13  16
ENDBRANCH   7  10
BRANCH   4  18
ATOM     18  C   UNL     1      -0.582  11.772  18.595  0.00  0.00    +0.000 C 
ATOM     19 CL   UNL     1      -2.225  11.843  19.317  0.00  0.00    +0.000 Cl
BRANCH  18  20
ATOM     20  C   UNL     1       0.145  13.109  18.674  0.00  0.00    +0.000 A 
ATOM     21  C   UNL     1       1.523  13.157  18.421  0.00  0.00    +0.000 A 
ATOM     22  C   UNL     1       2.211  14.377  18.390  0.00  0.00    +0.000 A 
ATOM     23  C   UNL     1       1.557  15.602  18.612  0.00  0.00    +0.000 A 
ATOM     24  C   UNL     1       0.191  15.540  18.932  0.00  0.00    +0.000 A 
ATOM     25  C   UNL     1      -0.498  14.318  18.975  0.00  0.00    +0.000 A 
BRANCH  23  26
ATOM     26  C   UNL     1       2.272  16.959  18.468  0.00  0.00    +0.000 C 
ATOM     27  C   UNL     1       1.880  17.698  17.167  0.00  0.00    +0.000 C 
ATOM     28  C   UNL     1       1.900  17.876  19.655  0.00  0.00    +0.000 C 
ATOM     29  C   UNL     1       3.805  16.787  18.453  0.00  0.00    +0.000 C 
ENDBRANCH  23  26
ENDBRANCH  18  20
ENDBRANCH   4  18
TORSDOF 5
ENDMDL
