MODEL 1
REMARK VINA RESULT:      -8.5      0.000      0.000
REMARK  Name = 
REMARK  8 active torsions:
REMARK  status: ('A' for Active; 'I' for Inactive)
REMARK    1  A    between atoms: C_1  and  N_2
REMARK    2  A    between atoms: C_6  and  C_8
REMARK    3  A    between atoms: C_8  and  N_9
REMARK    4  A    between atoms: N_9  and  C_10
REMARK    5  A    between atoms: C_12  and  C_13
REMARK    6  A    between atoms: C_16  and  O_17
REMARK    7  A    between atoms: O_17  and  C_18
REMARK    8  A    between atoms: C_18  and  C_19
REMARK                            x       y       z     vdW  Elec       q    Type
REMARK                         _______ _______ _______ _____ _____    ______ ____
ROOT
ATOM      1  C   UNL     1       1.945   3.804  19.514  0.00  0.00    +0.000 C 
ATOM      2  C   UNL     1       1.437   4.090  20.899  0.00  0.00    +0.000 C 
ATOM      3  C   UNL     1       2.513   4.966  20.301  0.00  0.00    +0.000 C 
ENDROOT
BRANCH   3   4
ATOM      4  C   UNL     1       2.212   6.385  19.862  0.00  0.00    +0.000 A 
ATOM      5  C   UNL     1       2.546   6.867  18.586  0.00  0.00    +0.000 A 
ATOM      6  C   UNL     1       2.243   8.165  18.181  0.00  0.00    +0.000 A 
ATOM      7  C   UNL     1       1.550   9.016  19.032  0.00  0.00    +0.000 A 
ATOM      8  C   UNL     1       1.243   8.590  20.322  0.00  0.00    +0.000 A 
ATOM      9  C   UNL     1       1.569   7.289  20.728  0.00  0.00    +0.000 A 
BRANCH   7  10
ATOM     10  O   UNL     1       1.131  10.275  18.688  0.00  0.00    +0.000 OA
BRANCH  10  11
ATOM     11  C   UNL     1       0.025  10.756  19.457  0.00  0.00    +0.000 C 
BRANCH  11  12
ATOM     12  C   UNL     1      -1.211  10.774  18.597  0.00  0.00    +0.000 A 
ATOM     13  C   UNL     1      -2.294  11.602  18.923  0.00  0.00    +0.000 A 
ATOM     14  C   UNL     1      -3.433  11.616  18.117  0.00  0.00    +0.000 A 
ATOM     15  C   UNL     1      -3.483  10.807  16.988  0.00  0.00    +0.000 A 
ATOM     16  F   UNL     1      -4.573  10.821  16.210  0.00  0.00    +0.000 F 
ATOM     17  C   UNL     1      -2.419   9.980  16.650  0.00  0.00    +0.000 A 
ATOM     18  C   UNL     1      -1.282   9.961  17.454  0.00  0.00    +0.000 A 
ENDBRANCH  11  12
ENDBRANCH  10  11
ENDBRANCH   7  10
ENDBRANCH   3   4
BRANCH   1  19
ATOM     19  N   UNL     1       2.720   2.575  19.313  0.00  0.00    +0.000 NA
ATOM     20  H   UNL     1       2.713   1.998  20.157  0.00  0.00    +0.000 HD
BRANCH  19  21
ATOM     21  C   UNL     1       4.124   2.885  18.974  0.00  0.00    +0.000 C 
BRANCH  21  27
ATOM     22  C   UNL     1       7.657   8.066  17.534  0.00  0.00    +0.000 C 
ATOM     23  N   UNL     1       7.207   6.697  17.293  0.00  0.00    +0.000 NA
ATOM     24  C   UNL     1       5.967   6.686  16.484  0.00  0.00    +0.000 C 
ATOM     25  C   UNL     1       5.439   5.260  16.236  0.00  0.00    +0.000 C 
ATOM     26  N   UNL     1       5.311   4.505  17.483  0.00  0.00    +0.000 N 
ATOM     27  C   UNL     1       4.204   3.697  17.683  0.00  0.00    +0.000 C 
ATOM     28  O   UNL     1       3.293   3.611  16.854  0.00  0.00    +0.000 OA
ATOM     29  C   UNL     1       6.505   4.545  18.333  0.00  0.00    +0.000 C 
ATOM     30  C   UNL     1       6.968   5.994  18.571  0.00  0.00    +0.000 C 
ENDBRANCH  21  27
ENDBRANCH  19  21
ENDBRANCH   1  19
TORSDOF 7
ENDMDL
MODEL 2
REMARK VINA RESULT:      -8.3      0.553      1.055
REMARK  Name = 
REMARK  8 active torsions:
REMARK  status: ('A' for Active; 'I' for Inactive)
REMARK    1  A    between atoms: C_1  and  N_2
REMARK    2  A    between atoms: C_6  and  C_8
REMARK    3  A    between atoms: C_8  and  N_9
REMARK    4  A    between atoms: N_9  and  C_10
REMARK    5  A    between atoms: C_12  and  C_13
REMARK    6  A    between atoms: C_16  and  O_17
REMARK    7  A    between atoms: O_17  and  C_18
REMARK    8  A    between atoms: C_18  and  C_19
REMARK                            x       y       z     vdW  Elec       q    Type
REMARK                         _______ _______ _______ _____ _____    ______ ____
ROOT
ATOM      1  C   UNL     1       1.573   3.954  19.873  0.00  0.00    +0.000 C 
ATOM      2  C   UNL     1       1.950   4.406  21.257  0.00  0.00    +0.000 C 
ATOM      3  C   UNL     1       2.611   5.041  20.056  0.00  0.00    +0.000 C 
ENDROOT
BRANCH   3   4
ATOM      4  C   UNL     1       2.285   6.463  19.644  0.00  0.00    +0.000 A 
ATOM      5  C   UNL     1       2.549   6.955  18.356  0.00  0.00    +0.000 A 
ATOM      6  C   UNL     1       2.223   8.255  17.977  0.00  0.00    +0.000 A 
ATOM      7  C   UNL     1       1.576   9.099  18.871  0.00  0.00    +0.000 A 
ATOM      8  C   UNL     1       1.339   8.663  20.172  0.00  0.00    +0.000 A 
ATOM      9  C   UNL     1       1.689   7.359  20.550  0.00  0.00    +0.000 A 
BRANCH   7  10
ATOM     10  O   UNL     1       1.137  10.360  18.560  0.00  0.00    +0.000 OA
BRANCH  10  11
ATOM     11  C   UNL     1       0.082  10.838  19.399  0.00  0.00    +0.000 C 
BRANCH  11  12
ATOM     12  C   UNL     1      -1.209  10.843  18.624  0.00  0.00    +0.000 A 
ATOM     13  C   UNL     1      -1.342  10.078  17.456  0.00  0.00    +0.000 A 
ATOM     14  C   UNL     1      -2.544  10.084  16.748  0.00  0.00    +0.000 A 
ATOM     15  C   UNL     1      -3.608  10.849  17.211  0.00  0.00    +0.000 A 
ATOM     16  F   UNL     1      -4.765  10.854  16.535  0.00  0.00    +0.000 F 
ATOM     17  C   UNL     1      -3.494  11.613  18.366  0.00  0.00    +0.000 A 
ATOM     18  C   UNL     1      -2.295  11.612  19.074  0.00  0.00    +0.000 A 
ENDBRANCH  11  12
ENDBRANCH  10  11
ENDBRANCH   7  10
ENDBRANCH   3   4
BRANCH   1  19
ATOM     19  N   UNL     1       1.960   2.598  19.471  0.00  0.00    +0.000 NA
ATOM     20  H   UNL     1       1.844   1.940  20.245  0.00  0.00    +0.000 HD
BRANCH  19  21
ATOM     21  C   UNL     1       3.371   2.558  19.036  0.00  0.00    +0.000 C 
BRANCH  21  27
ATOM     22  C   UNL     1       7.078   7.519  17.294  0.00  0.00    +0.000 C 
ATOM     23  N   UNL     1       6.616   6.140  17.164  0.00  0.00    +0.000 NA
ATOM     24  C   UNL     1       5.423   6.065  16.291  0.00  0.00    +0.000 C 
ATOM     25  C   UNL     1       4.882   4.628  16.155  0.00  0.00    +0.000 C 
ATOM     26  N   UNL     1       4.670   4.004  17.461  0.00  0.00    +0.000 N 
ATOM     27  C   UNL     1       3.538   3.235  17.677  0.00  0.00    +0.000 C 
ATOM     28  O   UNL     1       2.673   3.080  16.810  0.00  0.00    +0.000 OA
ATOM     29  C   UNL     1       5.816   4.112  18.371  0.00  0.00    +0.000 C 
ATOM     30  C   UNL     1       6.293   5.571  18.489  0.00  0.00    +0.000 C 
ENDBRANCH  21  27
ENDBRANCH  19  21
ENDBRANCH   1  19
TORSDOF 7
ENDMDL
MODEL 3
REMARK VINA RESULT:      -8.3      2.689      3.382
REMARK  Name = 
REMARK  8 active torsions:
REMARK  status: ('A' for Active; 'I' for Inactive)
REMARK    1  A    between atoms: C_1  and  N_2
REMARK    2  A    between atoms: C_6  and  C_8
REMARK    3  A    between atoms: C_8  and  N_9
REMARK    4  A    between atoms: N_9  and  C_10
REMARK    5  A    between atoms: C_12  and  C_13
REMARK    6  A    between atoms: C_16  and  O_17
REMARK    7  A    between atoms: O_17  and  C_18
REMARK    8  A    between atoms: C_18  and  C_19
REMARK                            x       y       z     vdW  Elec       q    Type
REMARK                         _______ _______ _______ _____ _____    ______ ____
ROOT
ATOM      1  C   UNL     1       1.692   3.732  19.532  0.00  0.00    +0.000 C 
ATOM      2  C   UNL     1       0.855   4.195  20.692  0.00  0.00    +0.000 C 
ATOM      3  C   UNL     1       2.135   4.923  20.356  0.00  0.00    +0.000 C 
ENDROOT
BRANCH   3   4
ATOM      4  C   UNL     1       2.109   6.308  19.742  0.00  0.00    +0.000 A 
ATOM      5  C   UNL     1       2.588   6.569  18.448  0.00  0.00    +0.000 A 
ATOM      6  C   UNL     1       2.537   7.840  17.880  0.00  0.00    +0.000 A 
ATOM      7  C   UNL     1       1.959   8.891  18.580  0.00  0.00    +0.000 A 
ATOM      8  C   UNL     1       1.514   8.683  19.883  0.00  0.00    +0.000 A 
ATOM      9  C   UNL     1       1.588   7.404  20.453  0.00  0.00    +0.000 A 
BRANCH   7  10
ATOM     10  O   UNL     1       1.783  10.152  18.069  0.00  0.00    +0.000 OA
BRANCH  10  11
ATOM     11  C   UNL     1       0.822  10.942  18.773  0.00  0.00    +0.000 C 
BRANCH  11  12
ATOM     12  C   UNL     1       1.217  12.393  18.697  0.00  0.00    +0.000 A 
ATOM     13  C   UNL     1       0.302  13.400  19.036  0.00  0.00    +0.000 A 
ATOM     14  C   UNL     1       0.678  14.742  18.968  0.00  0.00    +0.000 A 
ATOM     15  C   UNL     1       1.967  15.072  18.565  0.00  0.00    +0.000 A 
ATOM     16  F   UNL     1       2.333  16.359  18.502  0.00  0.00    +0.000 F 
ATOM     17  C   UNL     1       2.886  14.088  18.225  0.00  0.00    +0.000 A 
ATOM     18  C   UNL     1       2.513  12.747  18.289  0.00  0.00    +0.000 A 
ENDBRANCH  11  12
ENDBRANCH  10  11
ENDBRANCH   7  10
ENDBRANCH   3   4
BRANCH   1  19
ATOM     19  N   UNL     1       2.366   2.434  19.653  0.00  0.00    +0.000 NA
ATOM     20  H   UNL     1       2.880   2.372  20.535  0.00  0.00    +0.000 HD
BRANCH  19  21
ATOM     21  C   UNL     1       3.320   2.229  18.544  0.00  0.00    +0.000 C 
BRANCH  21  27
ATOM     22  C   UNL     1       7.317   5.019  14.345  0.00  0.00    +0.000 C 
ATOM     23  N   UNL     1       6.434   5.048  15.508  0.00  0.00    +0.000 NA
ATOM     24  C   UNL     1       7.170   4.668  16.735  0.00  0.00    +0.000 C 
ATOM     25  C   UNL     1       6.265   4.653  17.983  0.00  0.00    +0.000 C 
ATOM     26  N   UNL     1       5.062   3.847  17.770  0.00  0.00    +0.000 N 
ATOM     27  C   UNL     1       4.605   3.019  18.781  0.00  0.00    +0.000 C 
ATOM     28  O   UNL     1       5.198   2.906  19.858  0.00  0.00    +0.000 OA
ATOM     29  C   UNL     1       4.342   4.162  16.531  0.00  0.00    +0.000 C 
ATOM     30  C   UNL     1       5.289   4.133  15.318  0.00  0.00    +0.000 C 
ENDBRANCH  21  27
ENDBRANCH  19  21
ENDBRANCH   1  19
TORSDOF 7
ENDMDL
MODEL 4
REMARK VINA RESULT:      -8.2      5.640      9.064
REMARK  Name = 
REMARK  8 active torsions:
REMARK  status: ('A' for Active; 'I' for Inactive)
REMARK    1  A    between atoms: C_1  and  N_2
REMARK    2  A    between atoms: C_6  and  C_8
REMARK    3  A    between atoms: C_8  and  N_9
REMARK    4  A    between atoms: N_9  and  C_10
REMARK    5  A    between atoms: C_12  and  C_13
REMARK    6  A    between atoms: C_16  and  O_17
REMARK    7  A    between atoms: O_17  and  C_18
REMARK    8  A    between atoms: C_18  and  C_19
REMARK                            x       y       z     vdW  Elec       q    Type
REMARK                         _______ _______ _______ _____ _____    ______ ____
ROOT
ATOM      1  C   UNL     1       8.664   9.683  18.923  0.00  0.00    +0.000 C 
ATOM      2  C   UNL     1       7.955  10.129  17.675  0.00  0.00    +0.000 C 
ATOM      3  C   UNL     1       8.517   8.730  17.755  0.00  0.00    +0.000 C 
ENDROOT
BRANCH   3   4
ATOM      4  C   UNL     1       7.606   7.526  17.882  0.00  0.00    +0.000 A 
ATOM      5  C   UNL     1       6.389   7.424  17.188  0.00  0.00    +0.000 A 
ATOM      6  C   UNL     1       5.569   6.302  17.290  0.00  0.00    +0.000 A 
ATOM      7  C   UNL     1       5.967   5.218  18.061  0.00  0.00    +0.000 A 
ATOM      8  C   UNL     1       7.144   5.300  18.801  0.00  0.00    +0.000 A 
ATOM      9  C   UNL     1       7.953   6.441  18.708  0.00  0.00    +0.000 A 
BRANCH   7  10
ATOM     10  O   UNL     1       5.271   4.040  18.149  0.00  0.00    +0.000 OA
BRANCH  10  11
ATOM     11  C   UNL     1       3.880   4.154  17.836  0.00  0.00    +0.000 C 
BRANCH  11  12
ATOM     12  C   UNL     1       3.064   3.735  19.031  0.00  0.00    +0.000 A 
ATOM     13  C   UNL     1       3.633   2.946  20.041  0.00  0.00    +0.000 A 
ATOM     14  C   UNL     1       2.871   2.567  21.146  0.00  0.00    +0.000 A 
ATOM     15  C   UNL     1       1.547   2.981  21.241  0.00  0.00    +0.000 A 
ATOM     16  F   UNL     1       0.814   2.621  22.302  0.00  0.00    +0.000 F 
ATOM     17  C   UNL     1       0.967   3.761  20.249  0.00  0.00    +0.000 A 
ATOM     18  C   UNL     1       1.724   4.139  19.142  0.00  0.00    +0.000 A 
ENDBRANCH  11  12
ENDBRANCH  10  11
ENDBRANCH   7  10
ENDBRANCH   3   4
BRANCH   1  19
ATOM     19  N   UNL     1       9.954  10.308  19.233  0.00  0.00    +0.000 NA
ATOM     20  H   UNL     1      10.562   9.658  19.737  0.00  0.00    +0.000 HD
BRANCH  19  21
ATOM     21  C   UNL     1       9.771  11.513  20.067  0.00  0.00    +0.000 C 
BRANCH  21  27
ATOM     22  C   UNL     1       6.714  17.011  18.718  0.00  0.00    +0.000 C 
ATOM     23  N   UNL     1       7.816  16.252  19.303  0.00  0.00    +0.000 NA
ATOM     24  C   UNL     1       8.870  15.996  18.295  0.00  0.00    +0.000 C 
ATOM     25  C   UNL     1      10.038  15.167  18.864  0.00  0.00    +0.000 C 
ATOM     26  N   UNL     1       9.567  13.945  19.516  0.00  0.00    +0.000 N 
ATOM     27  C   UNL     1      10.261  12.760  19.333  0.00  0.00    +0.000 C 
ATOM     28  O   UNL     1      11.254  12.685  18.604  0.00  0.00    +0.000 OA
ATOM     29  C   UNL     1       8.482  14.160  20.480  0.00  0.00    +0.000 C 
ATOM     30  C   UNL     1       7.333  14.967  19.848  0.00  0.00    +0.000 C 
ENDBRANCH  21  27
ENDBRANCH  19  21
ENDBRANCH   1  19
TORSDOF 7
ENDMDL
MODEL 5
REMARK VINA RESULT:      -8.2      1.123      1.247
REMARK  Name = 
REMARK  8 active torsions:
REMARK  status: ('A' for Active; 'I' for Inactive)
REMARK    1  A    between atoms: C_1  and  N_2
REMARK    2  A    between atoms: C_6  and  C_8
REMARK    3  A    between atoms: C_8  and  N_9
REMARK    4  A    between atoms: N_9  and  C_10
REMARK    5  A    between atoms: C_12  and  C_13
REMARK    6  A    between atoms: C_16  and  O_17
REMARK    7  A    between atoms: O_17  and  C_18
REMARK    8  A    between atoms: C_18  and  C_19
REMARK                            x       y       z     vdW  Elec       q    Type
REMARK                         _______ _______ _______ _____ _____    ______ ____
ROOT
ATOM      1  C   UNL     1       1.183   4.560  20.249  0.00  0.00    +0.000 C 
ATOM      2  C   UNL     1       2.299   4.828  21.220  0.00  0.00    +0.000 C 
ATOM      3  C   UNL     1       2.218   5.619  19.936  0.00  0.00    +0.000 C 
ENDROOT
BRANCH   3   4
ATOM      4  C   UNL     1       1.818   7.081  19.942  0.00  0.00    +0.000 A 
ATOM      5  C   UNL     1       2.002   7.918  18.830  0.00  0.00    +0.000 A 
ATOM      6  C   UNL     1       1.608   9.254  18.833  0.00  0.00    +0.000 A 
ATOM      7  C   UNL     1       0.971   9.788  19.946  0.00  0.00    +0.000 A 
ATOM      8  C   UNL     1       0.813   9.003  21.085  0.00  0.00    +0.000 A 
ATOM      9  C   UNL     1       1.231   7.665  21.079  0.00  0.00    +0.000 A 
BRANCH   7  10
ATOM     10  O   UNL     1       0.469  11.063  20.008  0.00  0.00    +0.000 OA
BRANCH  10  11
ATOM     11  C   UNL     1       0.105  11.613  18.739  0.00  0.00    +0.000 C 
BRANCH  11  12
ATOM     12  C   UNL     1      -1.353  11.340  18.477  0.00  0.00    +0.000 A 
ATOM     13  C   UNL     1      -2.346  12.100  19.111  0.00  0.00    +0.000 A 
ATOM     14  C   UNL     1      -3.694  11.844  18.858  0.00  0.00    +0.000 A 
ATOM     15  C   UNL     1      -4.044  10.833  17.970  0.00  0.00    +0.000 A 
ATOM     16  F   UNL     1      -5.337  10.587  17.722  0.00  0.00    +0.000 F 
ATOM     17  C   UNL     1      -3.074  10.069  17.334  0.00  0.00    +0.000 A 
ATOM     18  C   UNL     1      -1.727  10.321  17.586  0.00  0.00    +0.000 A 
ENDBRANCH  11  12
ENDBRANCH  10  11
ENDBRANCH   7  10
ENDBRANCH   3   4
BRANCH   1  19
ATOM     19  N   UNL     1       1.183   3.271  19.549  0.00  0.00    +0.000 NA
ATOM     20  H   UNL     1       0.628   2.579  20.058  0.00  0.00    +0.000 HD
BRANCH  19  21
ATOM     21  C   UNL     1       2.557   2.747  19.406  0.00  0.00    +0.000 C 
BRANCH  21  27
ATOM     22  C   UNL     1       7.116   6.827  17.414  0.00  0.00    +0.000 C 
ATOM     23  N   UNL     1       6.533   5.493  17.530  0.00  0.00    +0.000 NA
ATOM     24  C   UNL     1       5.559   5.249  16.442  0.00  0.00    +0.000 C 
ATOM     25  C   UNL     1       4.894   3.862  16.549  0.00  0.00    +0.000 C 
ATOM     26  N   UNL     1       4.330   3.633  17.879  0.00  0.00    +0.000 N 
ATOM     27  C   UNL     1       3.096   3.016  18.002  0.00  0.00    +0.000 C 
ATOM     28  O   UNL     1       2.428   2.678  17.020  0.00  0.00    +0.000 OA
ATOM     29  C   UNL     1       5.255   3.921  18.980  0.00  0.00    +0.000 C 
ATOM     30  C   UNL     1       5.864   5.328  18.837  0.00  0.00    +0.000 C 
ENDBRANCH  21  27
ENDBRANCH  19  21
ENDBRANCH   1  19
TORSDOF 7
ENDMDL
MODEL 6
REMARK VINA RESULT:      -8.1      1.554      2.209
REMARK  Name = 
REMARK  8 active torsions:
REMARK  status: ('A' for Active; 'I' for Inactive)
REMARK    1  A    between atoms: C_1  and  N_2
REMARK    2  A    between atoms: C_6  and  C_8
REMARK    3  A    between atoms: C_8  and  N_9
REMARK    4  A    between atoms: N_9  and  C_10
REMARK    5  A    between atoms: C_12  and  C_13
REMARK    6  A    between atoms: C_16  and  O_17
REMARK    7  A    between atoms: O_17  and  C_18
REMARK    8  A    between atoms: C_18  and  C_19
REMARK                            x       y       z     vdW  Elec       q    Type
REMARK                         _______ _______ _______ _____ _____    ______ ____
ROOT
ATOM      1  C   UNL     1       2.441   4.055  19.803  0.00  0.00    +0.000 C 
ATOM      2  C   UNL     1       1.164   4.141  20.592  0.00  0.00    +0.000 C 
ATOM      3  C   UNL     1       2.188   5.246  20.703  0.00  0.00    +0.000 C 
ENDROOT
BRANCH   3   4
ATOM      4  C   UNL     1       1.938   6.609  20.088  0.00  0.00    +0.000 A 
ATOM      5  C   UNL     1       1.335   7.659  20.799  0.00  0.00    +0.000 A 
ATOM      6  C   UNL     1       1.133   8.916  20.235  0.00  0.00    +0.000 A 
ATOM      7  C   UNL     1       1.572   9.178  18.944  0.00  0.00    +0.000 A 
ATOM      8  C   UNL     1       2.133   8.150  18.191  0.00  0.00    +0.000 A 
ATOM      9  C   UNL     1       2.314   6.882  18.760  0.00  0.00    +0.000 A 
BRANCH   7  10
ATOM     10  O   UNL     1       1.498  10.407  18.340  0.00  0.00    +0.000 OA
BRANCH  10  11
ATOM     11  C   UNL     1       1.154  11.477  19.225  0.00  0.00    +0.000 C 
BRANCH  11  12
ATOM     12  C   UNL     1      -0.338  11.680  19.205  0.00  0.00    +0.000 A 
ATOM     13  C   UNL     1      -0.997  12.238  20.310  0.00  0.00    +0.000 A 
ATOM     14  C   UNL     1      -2.378  12.428  20.280  0.00  0.00    +0.000 A 
ATOM     15  C   UNL     1      -3.095  12.065  19.146  0.00  0.00    +0.000 A 
ATOM     16  F   UNL     1      -4.421  12.250  19.113  0.00  0.00    +0.000 F 
ATOM     17  C   UNL     1      -2.460  11.511  18.042  0.00  0.00    +0.000 A 
ATOM     18  C   UNL     1      -1.081  11.317  18.069  0.00  0.00    +0.000 A 
ENDBRANCH  11  12
ENDBRANCH  10  11
ENDBRANCH   7  10
ENDBRANCH   3   4
BRANCH   1  19
ATOM     19  N   UNL     1       3.404   3.014  20.178  0.00  0.00    +0.000 NA
ATOM     20  H   UNL     1       3.889   3.261  21.043  0.00  0.00    +0.000 HD
BRANCH  19  21
ATOM     21  C   UNL     1       4.415   2.823  19.118  0.00  0.00    +0.000 C 
BRANCH  21  27
ATOM     22  C   UNL     1       7.318   5.116  13.854  0.00  0.00    +0.000 C 
ATOM     23  N   UNL     1       6.393   5.234  14.978  0.00  0.00    +0.000 NA
ATOM     24  C   UNL     1       7.099   5.702  16.192  0.00  0.00    +0.000 C 
ATOM     25  C   UNL     1       6.163   5.807  17.413  0.00  0.00    +0.000 C 
ATOM     26  N   UNL     1       5.417   4.567  17.631  0.00  0.00    +0.000 N 
ATOM     27  C   UNL     1       5.240   4.093  18.920  0.00  0.00    +0.000 C 
ATOM     28  O   UNL     1       5.722   4.663  19.903  0.00  0.00    +0.000 OA
ATOM     29  C   UNL     1       4.753   4.048  16.431  0.00  0.00    +0.000 C 
ATOM     30  C   UNL     1       5.741   3.937  15.255  0.00  0.00    +0.000 C 
ENDBRANCH  21  27
ENDBRANCH  19  21
ENDBRANCH   1  19
TORSDOF 7
ENDMDL
MODEL 7
REMARK VINA RESULT:      -8.0      2.904      3.694
REMARK  Name = 
REMARK  8 active torsions:
REMARK  status: ('A' for Active; 'I' for Inactive)
REMARK    1  A    between atoms: C_1  and  N_2
REMARK    2  A    between atoms: C_6  and  C_8
REMARK    3  A    between atoms: C_8  and  N_9
REMARK    4  A    between atoms: N_9  and  C_10
REMARK    5  A    between atoms: C_12  and  C_13
REMARK    6  A    between atoms: C_16  and  O_17
REMARK    7  A    between atoms: O_17  and  C_18
REMARK    8  A    between atoms: C_18  and  C_19
REMARK                            x       y       z     vdW  Elec       q    Type
REMARK                         _______ _______ _______ _____ _____    ______ ____
ROOT
ATOM      1  C   UNL     1       2.079   4.069  19.553  0.00  0.00    +0.000 C 
ATOM      2  C   UNL     1       1.395   4.402  20.849  0.00  0.00    +0.000 C 
ATOM      3  C   UNL     1       2.491   5.302  20.330  0.00  0.00    +0.000 C 
ENDROOT
BRANCH   3   4
ATOM      4  C   UNL     1       2.179   6.677  19.774  0.00  0.00    +0.000 A 
ATOM      5  C   UNL     1       1.484   7.649  20.512  0.00  0.00    +0.000 A 
ATOM      6  C   UNL     1       1.224   8.919  20.004  0.00  0.00    +0.000 A 
ATOM      7  C   UNL     1       1.692   9.275  18.746  0.00  0.00    +0.000 A 
ATOM      8  C   UNL     1       2.344   8.323  17.965  0.00  0.00    +0.000 A 
ATOM      9  C   UNL     1       2.585   7.041  18.478  0.00  0.00    +0.000 A 
BRANCH   7  10
ATOM     10  O   UNL     1       1.562  10.527  18.202  0.00  0.00    +0.000 OA
BRANCH  10  11
ATOM     11  C   UNL     1       0.824  11.446  19.011  0.00  0.00    +0.000 C 
BRANCH  11  12
ATOM     12  C   UNL     1       1.358  12.838  18.800  0.00  0.00    +0.000 A 
ATOM     13  C   UNL     1       0.553  13.957  19.057  0.00  0.00    +0.000 A 
ATOM     14  C   UNL     1       1.058  15.243  18.863  0.00  0.00    +0.000 A 
ATOM     15  C   UNL     1       2.365  15.406  18.419  0.00  0.00    +0.000 A 
ATOM     16  F   UNL     1       2.854  16.639  18.235  0.00  0.00    +0.000 F 
ATOM     17  C   UNL     1       3.176  14.309  18.158  0.00  0.00    +0.000 A 
ATOM     18  C   UNL     1       2.675  13.023  18.347  0.00  0.00    +0.000 A 
ENDBRANCH  11  12
ENDBRANCH  10  11
ENDBRANCH   7  10
ENDBRANCH   3   4
BRANCH   1  19
ATOM     19  N   UNL     1       2.931   2.875  19.519  0.00  0.00    +0.000 NA
ATOM     20  H   UNL     1       3.590   2.875  20.301  0.00  0.00    +0.000 HD
BRANCH  19  21
ATOM     21  C   UNL     1       3.703   2.812  18.261  0.00  0.00    +0.000 C 
BRANCH  21  27
ATOM     22  C   UNL     1       7.520   5.076  13.603  0.00  0.00    +0.000 C 
ATOM     23  N   UNL     1       6.649   5.250  14.763  0.00  0.00    +0.000 NA
ATOM     24  C   UNL     1       7.414   5.105  16.021  0.00  0.00    +0.000 C 
ATOM     25  C   UNL     1       6.524   5.247  17.271  0.00  0.00    +0.000 C 
ATOM     26  N   UNL     1       5.359   4.364  17.209  0.00  0.00    +0.000 N 
ATOM     27  C   UNL     1       4.952   3.687  18.347  0.00  0.00    +0.000 C 
ATOM     28  O   UNL     1       5.560   3.774  19.418  0.00  0.00    +0.000 OA
ATOM     29  C   UNL     1       4.612   4.445  15.950  0.00  0.00    +0.000 C 
ATOM     30  C   UNL     1       5.546   4.266  14.739  0.00  0.00    +0.000 C 
ENDBRANCH  21  27
ENDBRANCH  19  21
ENDBRANCH   1  19
TORSDOF 7
ENDMDL
MODEL 8
REMARK VINA RESULT:      -7.9      5.773      9.003
REMARK  Name = 
REMARK  8 active torsions:
REMARK  status: ('A' for Active; 'I' for Inactive)
REMARK    1  A    between atoms: C_1  and  N_2
REMARK    2  A    between atoms: C_6  and  C_8
REMARK    3  A    between atoms: C_8  and  N_9
REMARK    4  A    between atoms: N_9  and  C_10
REMARK    5  A    between atoms: C_12  and  C_13
REMARK    6  A    between atoms: C_16  and  O_17
REMARK    7  A    between atoms: O_17  and  C_18
REMARK    8  A    between atoms: C_18  and  C_19
REMARK                            x       y       z     vdW  Elec       q    Type
REMARK                         _______ _______ _______ _____ _____    ______ ____
ROOT
ATOM      1  C   UNL     1       8.289   9.252  18.867  0.00  0.00    +0.000 C 
ATOM      2  C   UNL     1       8.111   9.643  17.426  0.00  0.00    +0.000 C 
ATOM      3  C   UNL     1       8.329   8.192  17.786  0.00  0.00    +0.000 C 
ENDROOT
BRANCH   3   4
ATOM      4  C   UNL     1       7.204   7.183  17.685  0.00  0.00    +0.000 A 
ATOM      5  C   UNL     1       7.157   6.024  18.477  0.00  0.00    +0.000 A 
ATOM      6  C   UNL     1       6.105   5.114  18.398  0.00  0.00    +0.000 A 
ATOM      7  C   UNL     1       5.035   5.359  17.547  0.00  0.00    +0.000 A 
ATOM      8  C   UNL     1       5.068   6.473  16.713  0.00  0.00    +0.000 A 
ATOM      9  C   UNL     1       6.140   7.373  16.785  0.00  0.00    +0.000 A 
BRANCH   7  10
ATOM     10  O   UNL     1       3.918   4.569  17.468  0.00  0.00    +0.000 OA
BRANCH  10  11
ATOM     11  C   UNL     1       4.098   3.243  17.975  0.00  0.00    +0.000 C 
BRANCH  11  12
ATOM     12  C   UNL     1       3.189   3.033  19.157  0.00  0.00    +0.000 A 
ATOM     13  C   UNL     1       3.710   2.620  20.392  0.00  0.00    +0.000 A 
ATOM     14  C   UNL     1       2.861   2.433  21.483  0.00  0.00    +0.000 A 
ATOM     15  C   UNL     1       1.498   2.663  21.338  0.00  0.00    +0.000 A 
ATOM     16  F   UNL     1       0.681   2.488  22.384  0.00  0.00    +0.000 F 
ATOM     17  C   UNL     1       0.965   3.072  20.122  0.00  0.00    +0.000 A 
ATOM     18  C   UNL     1       1.809   3.257  19.029  0.00  0.00    +0.000 A 
ENDBRANCH  11  12
ENDBRANCH  10  11
ENDBRANCH   7  10
ENDBRANCH   3   4
BRANCH   1  19
ATOM     19  N   UNL     1       9.514   9.690  19.544  0.00  0.00    +0.000 NA
ATOM     20  H   UNL     1       9.645   9.184  20.423  0.00  0.00    +0.000 HD
BRANCH  19  21
ATOM     21  C   UNL     1       9.465  11.136  19.844  0.00  0.00    +0.000 C 
BRANCH  21  27
ATOM     22  C   UNL     1      10.066  17.018  17.308  0.00  0.00    +0.000 C 
ATOM     23  N   UNL     1      10.426  15.979  18.269  0.00  0.00    +0.000 NA
ATOM     24  C   UNL     1      11.454  15.075  17.706  0.00  0.00    +0.000 C 
ATOM     25  C   UNL     1      11.838  13.943  18.678  0.00  0.00    +0.000 C 
ATOM     26  N   UNL     1      10.659  13.227  19.168  0.00  0.00    +0.000 N 
ATOM     27  C   UNL     1      10.695  11.847  19.283  0.00  0.00    +0.000 C 
ATOM     28  O   UNL     1      11.682  11.185  18.952  0.00  0.00    +0.000 OA
ATOM     29  C   UNL     1       9.598  14.101  19.681  0.00  0.00    +0.000 C 
ATOM     30  C   UNL     1       9.237  15.192  18.657  0.00  0.00    +0.000 C 
ENDBRANCH  21  27
ENDBRANCH  19  21
ENDBRANCH   1  19
TORSDOF 7
ENDMDL
MODEL 9
REMARK VINA RESULT:      -7.9      4.209      8.886
REMARK  Name = 
REMARK  8 active torsions:
REMARK  status: ('A' for Active; 'I' for Inactive)
REMARK    1  A    between atoms: C_1  and  N_2
REMARK    2  A    between atoms: C_6  and  C_8
REMARK    3  A    between atoms: C_8  and  N_9
REMARK    4  A    between atoms: N_9  and  C_10
REMARK    5  A    between atoms: C_12  and  C_13
REMARK    6  A    between atoms: C_16  and  O_17
REMARK    7  A    between atoms: O_17  and  C_18
REMARK    8  A    between atoms: C_18  and  C_19
REMARK                            x       y       z     vdW  Elec       q    Type
REMARK                         _______ _______ _______ _____ _____    ______ ____
ROOT
ATOM      1  C   UNL     1       1.328   9.728  21.046  0.00  0.00    +0.000 C 
ATOM      2  C   UNL     1       1.351   9.019  22.371  0.00  0.00    +0.000 C 
ATOM      3  C   UNL     1       0.789   8.317  21.158  0.00  0.00    +0.000 C 
ENDROOT
BRANCH   3   4
ATOM      4  C   UNL     1       1.536   7.176  20.497  0.00  0.00    +0.000 A 
ATOM      5  C   UNL     1       2.326   7.355  19.350  0.00  0.00    +0.000 A 
ATOM      6  C   UNL     1       3.031   6.306  18.764  0.00  0.00    +0.000 A 
ATOM      7  C   UNL     1       3.002   5.042  19.339  0.00  0.00    +0.000 A 
ATOM      8  C   UNL     1       2.193   4.814  20.449  0.00  0.00    +0.000 A 
ATOM      9  C   UNL     1       1.472   5.872  21.020  0.00  0.00    +0.000 A 
BRANCH   7  10
ATOM     10  O   UNL     1       3.733   3.973  18.886  0.00  0.00    +0.000 OA
BRANCH  10  11
ATOM     11  C   UNL     1       5.149   4.149  18.978  0.00  0.00    +0.000 C 
BRANCH  11  12
ATOM     12  C   UNL     1       5.708   4.423  17.607  0.00  0.00    +0.000 A 
ATOM     13  C   UNL     1       6.827   5.253  17.445  0.00  0.00    +0.000 A 
ATOM     14  C   UNL     1       7.341   5.496  16.172  0.00  0.00    +0.000 A 
ATOM     15  C   UNL     1       6.740   4.906  15.066  0.00  0.00    +0.000 A 
ATOM     16  F   UNL     1       7.233   5.135  13.842  0.00  0.00    +0.000 F 
ATOM     17  C   UNL     1       5.631   4.082  15.207  0.00  0.00    +0.000 A 
ATOM     18  C   UNL     1       5.112   3.839  16.477  0.00  0.00    +0.000 A 
ENDBRANCH  11  12
ENDBRANCH  10  11
ENDBRANCH   7  10
ENDBRANCH   3   4
BRANCH   1  19
ATOM     19  N   UNL     1       0.426  10.875  20.902  0.00  0.00    +0.000 NA
ATOM     20  H   UNL     1      -0.550  10.584  20.992  0.00  0.00    +0.000 HD
BRANCH  19  21
ATOM     21  C   UNL     1       0.598  11.522  19.585  0.00  0.00    +0.000 C 
BRANCH  21  27
ATOM     22  C   UNL     1      -5.683  10.938  18.321  0.00  0.00    +0.000 C 
ATOM     23  N   UNL     1      -4.311  11.270  17.944  0.00  0.00    +0.000 NA
ATOM     24  C   UNL     1      -3.586  10.064  17.485  0.00  0.00    +0.000 C 
ATOM     25  C   UNL     1      -2.122  10.366  17.109  0.00  0.00    +0.000 C 
ATOM     26  N   UNL     1      -1.423  11.075  18.182  0.00  0.00    +0.000 N 
ATOM     27  C   UNL     1      -0.119  10.729  18.494  0.00  0.00    +0.000 C 
ATOM     28  O   UNL     1       0.475   9.812  17.920  0.00  0.00    +0.000 OA
ATOM     29  C   UNL     1      -2.145  12.243  18.697  0.00  0.00    +0.000 C 
ATOM     30  C   UNL     1      -3.590  11.876  19.082  0.00  0.00    +0.000 C 
ENDBRANCH  21  27
ENDBRANCH  19  21
ENDBRANCH   1  19
TORSDOF 7
ENDMDL
