MODEL 1
REMARK VINA RESULT:      -7.6      0.000      0.000
REMARK  Name = 
REMARK  6 active torsions:
REMARK  status: ('A' for Active; 'I' for Inactive)
REMARK    1  A    between atoms: C_1  and  O_2
REMARK    2  A    between atoms: O_2  and  C_3
REMARK    3  A    between atoms: C_3  and  C_5
REMARK    4  A    between atoms: C_9  and  C_10
REMARK    5  A    between atoms: C_13  and  C_14
REMARK    6  A    between atoms: C_21  and  N_22
REMARK                            x       y       z     vdW  Elec       q    Type
REMARK                         _______ _______ _______ _____ _____    ______ ____
ROOT
ATOM      1  C   UNL     1       5.677   5.010  16.998  0.00  0.00    +0.000 A 
ATOM      2  S   UNL     1       5.062   6.490  16.380  0.00  0.00    +0.000 S 
ATOM      3  C   UNL     1       3.986   6.694  17.688  0.00  0.00    +0.000 A 
ATOM      4  C   UNL     1       3.089   7.747  17.905  0.00  0.00    +0.000 A 
ATOM      5  C   UNL     1       2.277   7.720  19.043  0.00  0.00    +0.000 A 
ATOM      6  C   UNL     1       2.450   6.623  19.891  0.00  0.00    +0.000 A 
ATOM      7  N   UNL     1       3.312   5.590  19.725  0.00  0.00    +0.000 NA
ATOM      8  C   UNL     1       4.079   5.648  18.597  0.00  0.00    +0.000 A 
ATOM      9  C   UNL     1       5.060   4.678  18.190  0.00  0.00    +0.000 A 
ENDROOT
BRANCH   5  10
ATOM     10  C   UNL     1       1.295   8.794  19.303  0.00  0.00    +0.000 A 
ATOM     11  C   UNL     1       0.827   9.615  18.258  0.00  0.00    +0.000 A 
ATOM     12  C   UNL     1      -0.098  10.638  18.484  0.00  0.00    +0.000 A 
ATOM     13  C   UNL     1      -0.584  10.862  19.770  0.00  0.00    +0.000 A 
ATOM     14  C   UNL     1      -0.134  10.066  20.826  0.00  0.00    +0.000 A 
ATOM     15  C   UNL     1       0.797   9.047  20.594  0.00  0.00    +0.000 A 
BRANCH  13  16
ATOM     16  C   UNL     1      -1.543  11.900  20.008  0.00  0.00    +0.000 C 
ATOM     17  N   UNL     1      -2.317  12.744  20.203  0.00  0.00    +0.000 NA
ENDBRANCH  13  16
ENDBRANCH   5  10
BRANCH   9  18
ATOM     18  N   UNL     1       5.327   3.574  18.927  0.00  0.00    +0.000 N 
ATOM     19  H   UNL     1       4.762   3.349  19.744  0.00  0.00    +0.000 HD
ATOM     20  H   UNL     1       5.958   2.840  18.615  0.00  0.00    +0.000 HD
ENDBRANCH   9  18
BRANCH   1  21
ATOM     21  C   UNL     1       6.706   4.353  16.218  0.00  0.00    +0.000 C 
ATOM     22  O   UNL     1       7.917   4.493  16.364  0.00  0.00    +0.000 OA
BRANCH  21  24
ATOM     23  C   UNL     1       6.387   3.999  13.934  0.00  0.00    +0.000 C 
ATOM     24  O   UNL     1       6.158   3.540  15.265  0.00  0.00    +0.000 OA
ENDBRANCH  21  24
ENDBRANCH   1  21
TORSDOF 5
ENDMDL
MODEL 2
REMARK VINA RESULT:      -7.6      0.069      1.029
REMARK  Name = 
REMARK  6 active torsions:
REMARK  status: ('A' for Active; 'I' for Inactive)
REMARK    1  A    between atoms: C_1  and  O_2
REMARK    2  A    between atoms: O_2  and  C_3
REMARK    3  A    between atoms: C_3  and  C_5
REMARK    4  A    between atoms: C_9  and  C_10
REMARK    5  A    between atoms: C_13  and  C_14
REMARK    6  A    between atoms: C_21  and  N_22
REMARK                            x       y       z     vdW  Elec       q    Type
REMARK                         _______ _______ _______ _____ _____    ______ ____
ROOT
ATOM      1  C   UNL     1       5.688   5.022  16.931  0.00  0.00    +0.000 A 
ATOM      2  S   UNL     1       5.051   6.486  16.294  0.00  0.00    +0.000 S 
ATOM      3  C   UNL     1       3.989   6.703  17.611  0.00  0.00    +0.000 A 
ATOM      4  C   UNL     1       3.084   7.751  17.820  0.00  0.00    +0.000 A 
ATOM      5  C   UNL     1       2.287   7.736  18.969  0.00  0.00    +0.000 A 
ATOM      6  C   UNL     1       2.481   6.657  19.835  0.00  0.00    +0.000 A 
ATOM      7  N   UNL     1       3.350   5.629  19.676  0.00  0.00    +0.000 NA
ATOM      8  C   UNL     1       4.103   5.674  18.537  0.00  0.00    +0.000 A 
ATOM      9  C   UNL     1       5.088   4.706  18.136  0.00  0.00    +0.000 A 
ENDROOT
BRANCH   5  10
ATOM     10  C   UNL     1       1.298   8.806  19.222  0.00  0.00    +0.000 A 
ATOM     11  C   UNL     1       0.820   9.058  20.523  0.00  0.00    +0.000 A 
ATOM     12  C   UNL     1      -0.117  10.062  20.781  0.00  0.00    +0.000 A 
ATOM     13  C   UNL     1      -0.599  10.847  19.736  0.00  0.00    +0.000 A 
ATOM     14  C   UNL     1      -0.145  10.617  18.435  0.00  0.00    +0.000 A 
ATOM     15  C   UNL     1       0.789   9.606  18.182  0.00  0.00    +0.000 A 
BRANCH  13  16
ATOM     16  C   UNL     1      -1.550  11.887  19.994  0.00  0.00    +0.000 C 
ATOM     17  N   UNL     1      -2.316  12.734  20.204  0.00  0.00    +0.000 NA
ENDBRANCH  13  16
ENDBRANCH   5  10
BRANCH   9  18
ATOM     18  N   UNL     1       5.375   3.618  18.888  0.00  0.00    +0.000 N 
ATOM     19  H   UNL     1       6.082   2.952  18.583  0.00  0.00    +0.000 HD
ATOM     20  H   UNL     1       5.050   3.505  19.845  0.00  0.00    +0.000 HD
ENDBRANCH   9  18
BRANCH   1  21
ATOM     21  C   UNL     1       6.713   4.361  16.149  0.00  0.00    +0.000 C 
ATOM     22  O   UNL     1       7.925   4.496  16.295  0.00  0.00    +0.000 OA
BRANCH  21  24
ATOM     23  C   UNL     1       6.400   4.006  13.865  0.00  0.00    +0.000 C 
ATOM     24  O   UNL     1       6.161   3.551  15.196  0.00  0.00    +0.000 OA
ENDBRANCH  21  24
ENDBRANCH   1  21
TORSDOF 5
ENDMDL
MODEL 3
REMARK VINA RESULT:      -7.3      1.330      1.740
REMARK  Name = 
REMARK  6 active torsions:
REMARK  status: ('A' for Active; 'I' for Inactive)
REMARK    1  A    between atoms: C_1  and  O_2
REMARK    2  A    between atoms: O_2  and  C_3
REMARK    3  A    between atoms: C_3  and  C_5
REMARK    4  A    between atoms: C_9  and  C_10
REMARK    5  A    between atoms: C_13  and  C_14
REMARK    6  A    between atoms: C_21  and  N_22
REMARK                            x       y       z     vdW  Elec       q    Type
REMARK                         _______ _______ _______ _____ _____    ______ ____
ROOT
ATOM      1  C   UNL     1       5.650   5.097  15.849  0.00  0.00    +0.000 A 
ATOM      2  S   UNL     1       5.286   6.773  15.957  0.00  0.00    +0.000 S 
ATOM      3  C   UNL     1       4.183   6.542  17.237  0.00  0.00    +0.000 A 
ATOM      4  C   UNL     1       3.434   7.516  17.910  0.00  0.00    +0.000 A 
ATOM      5  C   UNL     1       2.568   7.115  18.933  0.00  0.00    +0.000 A 
ATOM      6  C   UNL     1       2.537   5.746  19.208  0.00  0.00    +0.000 A 
ATOM      7  N   UNL     1       3.251   4.773  18.589  0.00  0.00    +0.000 NA
ATOM      8  C   UNL     1       4.077   5.203  17.590  0.00  0.00    +0.000 A 
ATOM      9  C   UNL     1       4.930   4.373  16.782  0.00  0.00    +0.000 A 
ENDROOT
BRANCH   5  10
ATOM     10  C   UNL     1       1.736   8.102  19.655  0.00  0.00    +0.000 A 
ATOM     11  C   UNL     1       1.360   7.889  20.996  0.00  0.00    +0.000 A 
ATOM     12  C   UNL     1       0.571   8.807  21.694  0.00  0.00    +0.000 A 
ATOM     13  C   UNL     1       0.142   9.973  21.063  0.00  0.00    +0.000 A 
ATOM     14  C   UNL     1       0.498  10.209  19.733  0.00  0.00    +0.000 A 
ATOM     15  C   UNL     1       1.282   9.282  19.038  0.00  0.00    +0.000 A 
BRANCH  13  16
ATOM     16  C   UNL     1      -0.655  10.927  21.776  0.00  0.00    +0.000 C 
ATOM     17  N   UNL     1      -1.301  11.697  22.358  0.00  0.00    +0.000 NA
ENDBRANCH  13  16
ENDBRANCH   5  10
BRANCH   9  18
ATOM     18  N   UNL     1       4.998   3.032  16.951  0.00  0.00    +0.000 N 
ATOM     19  H   UNL     1       5.885   2.543  16.845  0.00  0.00    +0.000 HD
ATOM     20  H   UNL     1       4.242   2.487  17.357  0.00  0.00    +0.000 HD
ENDBRANCH   9  18
BRANCH   1  21
ATOM     21  C   UNL     1       6.615   4.701  14.843  0.00  0.00    +0.000 C 
ATOM     22  O   UNL     1       7.611   5.339  14.514  0.00  0.00    +0.000 OA
BRANCH  21  24
ATOM     23  C   UNL     1       5.994   3.599  12.883  0.00  0.00    +0.000 C 
ATOM     24  O   UNL     1       6.275   3.503  14.278  0.00  0.00    +0.000 OA
ENDBRANCH  21  24
ENDBRANCH   1  21
TORSDOF 5
ENDMDL
MODEL 4
REMARK VINA RESULT:      -7.3      1.236      1.315
REMARK  Name = 
REMARK  6 active torsions:
REMARK  status: ('A' for Active; 'I' for Inactive)
REMARK    1  A    between atoms: C_1  and  O_2
REMARK    2  A    between atoms: O_2  and  C_3
REMARK    3  A    between atoms: C_3  and  C_5
REMARK    4  A    between atoms: C_9  and  C_10
REMARK    5  A    between atoms: C_13  and  C_14
REMARK    6  A    between atoms: C_21  and  N_22
REMARK                            x       y       z     vdW  Elec       q    Type
REMARK                         _______ _______ _______ _____ _____    ______ ____
ROOT
ATOM      1  C   UNL     1       5.606   5.090  16.023  0.00  0.00    +0.000 A 
ATOM      2  S   UNL     1       5.240   6.768  16.103  0.00  0.00    +0.000 S 
ATOM      3  C   UNL     1       4.128   6.556  17.379  0.00  0.00    +0.000 A 
ATOM      4  C   UNL     1       3.374   7.539  18.032  0.00  0.00    +0.000 A 
ATOM      5  C   UNL     1       2.501   7.153  19.054  0.00  0.00    +0.000 A 
ATOM      6  C   UNL     1       2.469   5.788  19.349  0.00  0.00    +0.000 A 
ATOM      7  N   UNL     1       3.188   4.807  18.750  0.00  0.00    +0.000 NA
ATOM      8  C   UNL     1       4.020   5.222  17.751  0.00  0.00    +0.000 A 
ATOM      9  C   UNL     1       4.879   4.381  16.961  0.00  0.00    +0.000 A 
ENDROOT
BRANCH   5  10
ATOM     10  C   UNL     1       1.663   8.150  19.755  0.00  0.00    +0.000 A 
ATOM     11  C   UNL     1       1.225   9.318  19.099  0.00  0.00    +0.000 A 
ATOM     12  C   UNL     1       0.437  10.273  19.747  0.00  0.00    +0.000 A 
ATOM     13  C   UNL     1       0.061  10.078  21.074  0.00  0.00    +0.000 A 
ATOM     14  C   UNL     1       0.484   8.932  21.750  0.00  0.00    +0.000 A 
ATOM     15  C   UNL     1       1.279   7.982  21.098  0.00  0.00    +0.000 A 
BRANCH  13  16
ATOM     16  C   UNL     1      -0.758  11.046  21.740  0.00  0.00    +0.000 C 
ATOM     17  N   UNL     1      -1.423  11.828  22.285  0.00  0.00    +0.000 NA
ENDBRANCH  13  16
ENDBRANCH   5  10
BRANCH   9  18
ATOM     18  N   UNL     1       4.947   3.042  17.151  0.00  0.00    +0.000 N 
ATOM     19  H   UNL     1       4.679   2.401  16.406  0.00  0.00    +0.000 HD
ATOM     20  H   UNL     1       5.423   2.619  17.944  0.00  0.00    +0.000 HD
ENDBRANCH   9  18
BRANCH   1  21
ATOM     21  C   UNL     1       6.578   4.681  15.029  0.00  0.00    +0.000 C 
ATOM     22  O   UNL     1       7.620   5.271  14.758  0.00  0.00    +0.000 OA
BRANCH  21  24
ATOM     23  C   UNL     1       6.133   3.652  12.983  0.00  0.00    +0.000 C 
ATOM     24  O   UNL     1       6.188   3.529  14.404  0.00  0.00    +0.000 OA
ENDBRANCH  21  24
ENDBRANCH   1  21
TORSDOF 5
ENDMDL
MODEL 5
REMARK VINA RESULT:      -6.9      2.731      3.426
REMARK  Name = 
REMARK  6 active torsions:
REMARK  status: ('A' for Active; 'I' for Inactive)
REMARK    1  A    between atoms: C_1  and  O_2
REMARK    2  A    between atoms: O_2  and  C_3
REMARK    3  A    between atoms: C_3  and  C_5
REMARK    4  A    between atoms: C_9  and  C_10
REMARK    5  A    between atoms: C_13  and  C_14
REMARK    6  A    between atoms: C_21  and  N_22
REMARK                            x       y       z     vdW  Elec       q    Type
REMARK                         _______ _______ _______ _____ _____    ______ ____
ROOT
ATOM      1  C   UNL     1       3.529   4.420  19.235  0.00  0.00    +0.000 A 
ATOM      2  S   UNL     1       2.600   4.693  20.655  0.00  0.00    +0.000 S 
ATOM      3  C   UNL     1       2.187   6.281  20.187  0.00  0.00    +0.000 A 
ATOM      4  C   UNL     1       1.390   7.199  20.881  0.00  0.00    +0.000 A 
ATOM      5  C   UNL     1       1.181   8.466  20.327  0.00  0.00    +0.000 A 
ATOM      6  C   UNL     1       1.790   8.703  19.093  0.00  0.00    +0.000 A 
ATOM      7  N   UNL     1       2.559   7.840  18.384  0.00  0.00    +0.000 NA
ATOM      8  C   UNL     1       2.748   6.618  18.962  0.00  0.00    +0.000 A 
ATOM      9  C   UNL     1       3.523   5.535  18.418  0.00  0.00    +0.000 A 
ENDROOT
BRANCH   5  10
ATOM     10  C   UNL     1       0.369   9.481  21.034  0.00  0.00    +0.000 A 
ATOM     11  C   UNL     1      -0.024   9.289  22.374  0.00  0.00    +0.000 A 
ATOM     12  C   UNL     1      -0.794  10.234  23.057  0.00  0.00    +0.000 A 
ATOM     13  C   UNL     1      -1.188  11.404  22.412  0.00  0.00    +0.000 A 
ATOM     14  C   UNL     1      -0.816  11.619  21.083  0.00  0.00    +0.000 A 
ATOM     15  C   UNL     1      -0.050  10.666  20.403  0.00  0.00    +0.000 A 
BRANCH  13  16
ATOM     16  C   UNL     1      -1.966  12.385  23.110  0.00  0.00    +0.000 C 
ATOM     17  N   UNL     1      -2.600  13.176  23.677  0.00  0.00    +0.000 NA
ENDBRANCH  13  16
ENDBRANCH   5  10
BRANCH   9  18
ATOM     18  N   UNL     1       4.158   5.634  17.227  0.00  0.00    +0.000 N 
ATOM     19  H   UNL     1       3.638   5.862  16.382  0.00  0.00    +0.000 HD
ATOM     20  H   UNL     1       5.171   5.668  17.141  0.00  0.00    +0.000 HD
ENDBRANCH   9  18
BRANCH   1  21
ATOM     21  C   UNL     1       4.156   3.120  19.105  0.00  0.00    +0.000 C 
ATOM     22  O   UNL     1       4.845   2.567  19.958  0.00  0.00    +0.000 OA
BRANCH  21  24
ATOM     23  C   UNL     1       2.543   2.118  17.750  0.00  0.00    +0.000 C 
ATOM     24  O   UNL     1       3.892   2.565  17.884  0.00  0.00    +0.000 OA
ENDBRANCH  21  24
ENDBRANCH   1  21
TORSDOF 5
ENDMDL
MODEL 6
REMARK VINA RESULT:      -6.8      1.483      1.830
REMARK  Name = 
REMARK  6 active torsions:
REMARK  status: ('A' for Active; 'I' for Inactive)
REMARK    1  A    between atoms: C_1  and  O_2
REMARK    2  A    between atoms: O_2  and  C_3
REMARK    3  A    between atoms: C_3  and  C_5
REMARK    4  A    between atoms: C_9  and  C_10
REMARK    5  A    between atoms: C_13  and  C_14
REMARK    6  A    between atoms: C_21  and  N_22
REMARK                            x       y       z     vdW  Elec       q    Type
REMARK                         _______ _______ _______ _____ _____    ______ ____
ROOT
ATOM      1  C   UNL     1       5.623   4.984  15.488  0.00  0.00    +0.000 A 
ATOM      2  S   UNL     1       5.271   6.660  15.625  0.00  0.00    +0.000 S 
ATOM      3  C   UNL     1       4.243   6.427  16.965  0.00  0.00    +0.000 A 
ATOM      4  C   UNL     1       3.537   7.399  17.685  0.00  0.00    +0.000 A 
ATOM      5  C   UNL     1       2.730   6.996  18.754  0.00  0.00    +0.000 A 
ATOM      6  C   UNL     1       2.711   5.626  19.023  0.00  0.00    +0.000 A 
ATOM      7  N   UNL     1       3.385   4.654  18.360  0.00  0.00    +0.000 NA
ATOM      8  C   UNL     1       4.153   5.086  17.317  0.00  0.00    +0.000 A 
ATOM      9  C   UNL     1       4.956   4.258  16.457  0.00  0.00    +0.000 A 
ENDROOT
BRANCH   5  10
ATOM     10  C   UNL     1       1.945   7.982  19.527  0.00  0.00    +0.000 A 
ATOM     11  C   UNL     1       1.501   9.181  18.934  0.00  0.00    +0.000 A 
ATOM     12  C   UNL     1       0.761  10.126  19.650  0.00  0.00    +0.000 A 
ATOM     13  C   UNL     1       0.442   9.889  20.985  0.00  0.00    +0.000 A 
ATOM     14  C   UNL     1       0.872   8.711  21.600  0.00  0.00    +0.000 A 
ATOM     15  C   UNL     1       1.618   7.772  20.879  0.00  0.00    +0.000 A 
BRANCH  13  16
ATOM     16  C   UNL     1      -0.328  10.847  21.722  0.00  0.00    +0.000 C 
ATOM     17  N   UNL     1      -0.953  11.627  22.315  0.00  0.00    +0.000 NA
ENDBRANCH  13  16
ENDBRANCH   5  10
BRANCH   9  18
ATOM     18  N   UNL     1       5.029   2.916  16.616  0.00  0.00    +0.000 N 
ATOM     19  H   UNL     1       4.523   2.294  15.988  0.00  0.00    +0.000 HD
ATOM     20  H   UNL     1       5.708   2.467  17.225  0.00  0.00    +0.000 HD
ENDBRANCH   9  18
BRANCH   1  21
ATOM     21  C   UNL     1       6.527   4.591  14.426  0.00  0.00    +0.000 C 
ATOM     22  O   UNL     1       6.388   3.621  13.687  0.00  0.00    +0.000 OA
BRANCH  21  24
ATOM     23  C   UNL     1       8.110   5.571  13.019  0.00  0.00    +0.000 C 
ATOM     24  O   UNL     1       7.591   5.446  14.342  0.00  0.00    +0.000 OA
ENDBRANCH  21  24
ENDBRANCH   1  21
TORSDOF 5
ENDMDL
MODEL 7
REMARK VINA RESULT:      -6.8      0.989      1.457
REMARK  Name = 
REMARK  6 active torsions:
REMARK  status: ('A' for Active; 'I' for Inactive)
REMARK    1  A    between atoms: C_1  and  O_2
REMARK    2  A    between atoms: O_2  and  C_3
REMARK    3  A    between atoms: C_3  and  C_5
REMARK    4  A    between atoms: C_9  and  C_10
REMARK    5  A    between atoms: C_13  and  C_14
REMARK    6  A    between atoms: C_21  and  N_22
REMARK                            x       y       z     vdW  Elec       q    Type
REMARK                         _______ _______ _______ _____ _____    ______ ____
ROOT
ATOM      1  C   UNL     1       5.306   4.824  16.801  0.00  0.00    +0.000 A 
ATOM      2  S   UNL     1       4.936   6.495  16.640  0.00  0.00    +0.000 S 
ATOM      3  C   UNL     1       3.829   6.467  17.938  0.00  0.00    +0.000 A 
ATOM      4  C   UNL     1       3.075   7.532  18.446  0.00  0.00    +0.000 A 
ATOM      5  C   UNL     1       2.207   7.296  19.516  0.00  0.00    +0.000 A 
ATOM      6  C   UNL     1       2.180   5.987  20.005  0.00  0.00    +0.000 A 
ATOM      7  N   UNL     1       2.899   4.932  19.551  0.00  0.00    +0.000 NA
ATOM      8  C   UNL     1       3.727   5.200  18.499  0.00  0.00    +0.000 A 
ATOM      9  C   UNL     1       4.585   4.256  17.835  0.00  0.00    +0.000 A 
ENDROOT
BRANCH   5  10
ATOM     10  C   UNL     1       1.370   8.381  20.070  0.00  0.00    +0.000 A 
ATOM     11  C   UNL     1       1.022   9.500  19.286  0.00  0.00    +0.000 A 
ATOM     12  C   UNL     1       0.235  10.537  19.793  0.00  0.00    +0.000 A 
ATOM     13  C   UNL     1      -0.230  10.477  21.105  0.00  0.00    +0.000 A 
ATOM     14  C   UNL     1       0.101   9.382  21.906  0.00  0.00    +0.000 A 
ATOM     15  C   UNL     1       0.895   8.350  21.394  0.00  0.00    +0.000 A 
BRANCH  13  16
ATOM     16  C   UNL     1      -1.049  11.531  21.628  0.00  0.00    +0.000 C 
ATOM     17  N   UNL     1      -1.710  12.388  22.049  0.00  0.00    +0.000 NA
ENDBRANCH  13  16
ENDBRANCH   5  10
BRANCH   9  18
ATOM     18  N   UNL     1       4.657   2.959  18.216  0.00  0.00    +0.000 N 
ATOM     19  H   UNL     1       4.199   2.234  17.667  0.00  0.00    +0.000 HD
ATOM     20  H   UNL     1       5.297   2.627  18.933  0.00  0.00    +0.000 HD
ENDBRANCH   9  18
BRANCH   1  21
ATOM     21  C   UNL     1       6.276   4.278  15.873  0.00  0.00    +0.000 C 
ATOM     22  O   UNL     1       6.023   3.555  14.914  0.00  0.00    +0.000 OA
BRANCH  21  24
ATOM     23  C   UNL     1       7.837   4.514  17.592  0.00  0.00    +0.000 C 
ATOM     24  O   UNL     1       7.546   4.664  16.203  0.00  0.00    +0.000 OA
ENDBRANCH  21  24
ENDBRANCH   1  21
TORSDOF 5
ENDMDL
MODEL 8
REMARK VINA RESULT:      -6.8      1.017      1.797
REMARK  Name = 
REMARK  6 active torsions:
REMARK  status: ('A' for Active; 'I' for Inactive)
REMARK    1  A    between atoms: C_1  and  O_2
REMARK    2  A    between atoms: O_2  and  C_3
REMARK    3  A    between atoms: C_3  and  C_5
REMARK    4  A    between atoms: C_9  and  C_10
REMARK    5  A    between atoms: C_13  and  C_14
REMARK    6  A    between atoms: C_21  and  N_22
REMARK                            x       y       z     vdW  Elec       q    Type
REMARK                         _______ _______ _______ _____ _____    ______ ____
ROOT
ATOM      1  C   UNL     1       5.270   4.822  16.902  0.00  0.00    +0.000 A 
ATOM      2  S   UNL     1       4.894   6.489  16.719  0.00  0.00    +0.000 S 
ATOM      3  C   UNL     1       3.790   6.474  18.020  0.00  0.00    +0.000 A 
ATOM      4  C   UNL     1       3.033   7.543  18.515  0.00  0.00    +0.000 A 
ATOM      5  C   UNL     1       2.168   7.318  19.590  0.00  0.00    +0.000 A 
ATOM      6  C   UNL     1       2.147   6.016  20.097  0.00  0.00    +0.000 A 
ATOM      7  N   UNL     1       2.869   4.957  19.655  0.00  0.00    +0.000 NA
ATOM      8  C   UNL     1       3.693   5.214  18.598  0.00  0.00    +0.000 A 
ATOM      9  C   UNL     1       4.554   4.265  17.945  0.00  0.00    +0.000 A 
ENDROOT
BRANCH   5  10
ATOM     10  C   UNL     1       1.329   8.408  20.132  0.00  0.00    +0.000 A 
ATOM     11  C   UNL     1       0.870   8.376  21.464  0.00  0.00    +0.000 A 
ATOM     12  C   UNL     1       0.073   9.395  21.992  0.00  0.00    +0.000 A 
ATOM     13  C   UNL     1      -0.284  10.481  21.195  0.00  0.00    +0.000 A 
ATOM     14  C   UNL     1       0.154  10.537  19.870  0.00  0.00    +0.000 A 
ATOM     15  C   UNL     1       0.947   9.511  19.345  0.00  0.00    +0.000 A 
BRANCH  13  16
ATOM     16  C   UNL     1      -1.089  11.536  21.734  0.00  0.00    +0.000 C 
ATOM     17  N   UNL     1      -1.744  12.393  22.165  0.00  0.00    +0.000 NA
ENDBRANCH  13  16
ENDBRANCH   5  10
BRANCH   9  18
ATOM     18  N   UNL     1       4.631   2.973  18.342  0.00  0.00    +0.000 N 
ATOM     19  H   UNL     1       4.251   2.230  17.758  0.00  0.00    +0.000 HD
ATOM     20  H   UNL     1       5.210   2.667  19.120  0.00  0.00    +0.000 HD
ENDBRANCH   9  18
BRANCH   1  21
ATOM     21  C   UNL     1       6.240   4.267  15.979  0.00  0.00    +0.000 C 
ATOM     22  O   UNL     1       5.991   3.502  15.051  0.00  0.00    +0.000 OA
BRANCH  21  24
ATOM     23  C   UNL     1       7.858   4.510  17.642  0.00  0.00    +0.000 C 
ATOM     24  O   UNL     1       7.504   4.699  16.273  0.00  0.00    +0.000 OA
ENDBRANCH  21  24
ENDBRANCH   1  21
TORSDOF 5
ENDMDL
MODEL 9
REMARK VINA RESULT:      -6.7      2.510      3.234
REMARK  Name = 
REMARK  6 active torsions:
REMARK  status: ('A' for Active; 'I' for Inactive)
REMARK    1  A    between atoms: C_1  and  O_2
REMARK    2  A    between atoms: O_2  and  C_3
REMARK    3  A    between atoms: C_3  and  C_5
REMARK    4  A    between atoms: C_9  and  C_10
REMARK    5  A    between atoms: C_13  and  C_14
REMARK    6  A    between atoms: C_21  and  N_22
REMARK                            x       y       z     vdW  Elec       q    Type
REMARK                         _______ _______ _______ _____ _____    ______ ____
ROOT
ATOM      1  C   UNL     1       3.734   5.229  18.855  0.00  0.00    +0.000 A 
ATOM      2  S   UNL     1       2.843   5.333  20.321  0.00  0.00    +0.000 S 
ATOM      3  C   UNL     1       2.240   6.885  19.949  0.00  0.00    +0.000 A 
ATOM      4  C   UNL     1       1.379   7.677  20.718  0.00  0.00    +0.000 A 
ATOM      5  C   UNL     1       1.010   8.937  20.237  0.00  0.00    +0.000 A 
ATOM      6  C   UNL     1       1.536   9.295  18.993  0.00  0.00    +0.000 A 
ATOM      7  N   UNL     1       2.363   8.556  18.213  0.00  0.00    +0.000 NA
ATOM      8  C   UNL     1       2.708   7.337  18.722  0.00  0.00    +0.000 A 
ATOM      9  C   UNL     1       3.572   6.373  18.095  0.00  0.00    +0.000 A 
ENDROOT
BRANCH   5  10
ATOM     10  C   UNL     1       0.124   9.822  21.024  0.00  0.00    +0.000 A 
ATOM     11  C   UNL     1      -0.494  10.941  20.431  0.00  0.00    +0.000 A 
ATOM     12  C   UNL     1      -1.331  11.791  21.159  0.00  0.00    +0.000 A 
ATOM     13  C   UNL     1      -1.575  11.536  22.507  0.00  0.00    +0.000 A 
ATOM     14  C   UNL     1      -0.972  10.436  23.121  0.00  0.00    +0.000 A 
ATOM     15  C   UNL     1      -0.130   9.593  22.388  0.00  0.00    +0.000 A 
BRANCH  13  16
ATOM     16  C   UNL     1      -2.442  12.395  23.257  0.00  0.00    +0.000 C 
ATOM     17  N   UNL     1      -3.149  13.092  23.860  0.00  0.00    +0.000 NA
ENDBRANCH  13  16
ENDBRANCH   5  10
BRANCH   9  18
ATOM     18  N   UNL     1       4.141   6.595  16.887  0.00  0.00    +0.000 N 
ATOM     19  H   UNL     1       3.647   7.132  16.176  0.00  0.00    +0.000 HD
ATOM     20  H   UNL     1       5.121   6.408  16.695  0.00  0.00    +0.000 HD
ENDBRANCH   9  18
BRANCH   1  21
ATOM     21  C   UNL     1       4.493   4.014  18.636  0.00  0.00    +0.000 C 
ATOM     22  O   UNL     1       5.359   3.564  19.381  0.00  0.00    +0.000 OA
BRANCH  21  24
ATOM     23  C   UNL     1       2.839   2.799  17.526  0.00  0.00    +0.000 C 
ATOM     24  O   UNL     1       4.127   3.409  17.465  0.00  0.00    +0.000 OA
ENDBRANCH  21  24
ENDBRANCH   1  21
TORSDOF 5
ENDMDL
