MODEL 1
REMARK VINA RESULT:      -7.4      0.000      0.000
REMARK  Name = 
REMARK  11 active torsions:
REMARK  status: ('A' for Active; 'I' for Inactive)
REMARK    1  A    between atoms: C_1  and  C_2
REMARK    2  A    between atoms: C_5  and  C_6
REMARK    3  A    between atoms: C_6  and  C_7
REMARK    4  A    between atoms: C_6  and  C_8
REMARK    5  A    between atoms: C_9  and  O_10
REMARK    6  A    between atoms: O_10  and  C_11
REMARK    7  A    between atoms: C_11  and  C_12
REMARK    8  A    between atoms: C_12  and  O_14
REMARK    9  A    between atoms: O_14  and  C_15
REMARK   10  A    between atoms: C_15  and  C_16
REMARK   11  A    between atoms: N_18  and  C_19
REMARK                            x       y       z     vdW  Elec       q    Type
REMARK                         _______ _______ _______ _____ _____    ______ ____
ROOT
ATOM      1  C   UNL     1       6.590   4.695  18.883  0.00  0.00    +0.000 C 
ENDROOT
BRANCH   1   2
ATOM      2  C   UNL     1       7.467   5.583  18.020  0.00  0.00    +0.000 C 
ATOM      3  O   UNL     1       7.768   6.744  18.274  0.00  0.00    +0.000 OA
BRANCH   2   4
ATOM      4  O   UNL     1       7.816   4.958  16.862  0.00  0.00    +0.000 OA
BRANCH   4   5
ATOM      5  C   UNL     1       6.725   4.223  16.286  0.00  0.00    +0.000 C 
BRANCH   5   6
ATOM      6  C   UNL     1       6.761   4.436  14.777  0.00  0.00    +0.000 C 
ATOM      7  O   UNL     1       7.359   5.400  14.278  0.00  0.00    +0.000 OA
ATOM      8  N   UNL     1       6.094   3.501  14.006  0.00  0.00    +0.000 N 
ATOM      9  H   UNL     1       5.719   2.662  14.435  0.00  0.00    +0.000 HD
BRANCH   8  10
ATOM     10  C   UNL     1       6.163   3.574  12.577  0.00  0.00    +0.000 C 
ATOM     11  C   UNL     1       6.120   2.293  11.797  0.00  0.00    +0.000 C 
ATOM     12  C   UNL     1       5.019   3.285  11.646  0.00  0.00    +0.000 C 
ENDBRANCH   8  10
ENDBRANCH   5   6
ENDBRANCH   4   5
ENDBRANCH   2   4
ENDBRANCH   1   2
BRANCH   1  13
ATOM     13  O   UNL     1       5.446   5.449  19.279  0.00  0.00    +0.000 OA
BRANCH  13  19
ATOM     14  C   UNL     1       1.841   2.084  19.725  0.00  0.00    +0.000 C 
ATOM     15  C   UNL     1       2.366   3.390  19.208  0.00  0.00    +0.000 A 
ATOM     16  C   UNL     1       1.552   4.222  18.440  0.00  0.00    +0.000 A 
ATOM     17  C   UNL     1       2.037   5.436  17.971  0.00  0.00    +0.000 A 
ATOM     18  C   UNL     1       3.356   5.841  18.240  0.00  0.00    +0.000 A 
ATOM     19  C   UNL     1       4.192   4.990  18.998  0.00  0.00    +0.000 A 
ATOM     20  C   UNL     1       3.681   3.786  19.495  0.00  0.00    +0.000 A 
BRANCH  18  21
ATOM     21  C   UNL     1       3.762   7.219  17.745  0.00  0.00    +0.000 C 
ATOM     22  C   UNL     1       4.498   7.106  16.420  0.00  0.00    +0.000 C 
ATOM     23  C   UNL     1       2.611   8.224  17.676  0.00  0.00    +0.000 C 
ENDBRANCH  18  21
ENDBRANCH  13  19
ENDBRANCH   1  13
TORSDOF 8
ENDMDL
MODEL 2
REMARK VINA RESULT:      -7.1      1.667      3.069
REMARK  Name = 
REMARK  11 active torsions:
REMARK  status: ('A' for Active; 'I' for Inactive)
REMARK    1  A    between atoms: C_1  and  C_2
REMARK    2  A    between atoms: C_5  and  C_6
REMARK    3  A    between atoms: C_6  and  C_7
REMARK    4  A    between atoms: C_6  and  C_8
REMARK    5  A    between atoms: C_9  and  O_10
REMARK    6  A    between atoms: O_10  and  C_11
REMARK    7  A    between atoms: C_11  and  C_12
REMARK    8  A    between atoms: C_12  and  O_14
REMARK    9  A    between atoms: O_14  and  C_15
REMARK   10  A    between atoms: C_15  and  C_16
REMARK   11  A    between atoms: N_18  and  C_19
REMARK                            x       y       z     vdW  Elec       q    Type
REMARK                         _______ _______ _______ _____ _____    ______ ____
ROOT
ATOM      1  C   UNL     1       5.087   5.954  17.408  0.00  0.00    +0.000 C 
ENDROOT
BRANCH   1   2
ATOM      2  C   UNL     1       5.934   4.700  17.533  0.00  0.00    +0.000 C 
ATOM      3  O   UNL     1       6.471   4.307  18.562  0.00  0.00    +0.000 OA
BRANCH   2   4
ATOM      4  O   UNL     1       6.104   4.097  16.323  0.00  0.00    +0.000 OA
BRANCH   4   5
ATOM      5  C   UNL     1       7.302   4.531  15.660  0.00  0.00    +0.000 C 
BRANCH   5   6
ATOM      6  C   UNL     1       7.017   4.578  14.163  0.00  0.00    +0.000 C 
ATOM      7  O   UNL     1       7.515   5.453  13.440  0.00  0.00    +0.000 OA
ATOM      8  N   UNL     1       6.177   3.598  13.664  0.00  0.00    +0.000 N 
ATOM      9  H   UNL     1       5.884   2.830  14.258  0.00  0.00    +0.000 HD
BRANCH   8  10
ATOM     10  C   UNL     1       5.937   3.513  12.255  0.00  0.00    +0.000 C 
ATOM     11  C   UNL     1       5.703   2.159  11.654  0.00  0.00    +0.000 C 
ATOM     12  C   UNL     1       4.614   3.174  11.628  0.00  0.00    +0.000 C 
ENDBRANCH   8  10
ENDBRANCH   5   6
ENDBRANCH   4   5
ENDBRANCH   2   4
ENDBRANCH   1   2
BRANCH   1  13
ATOM     13  O   UNL     1       3.714   5.570  17.455  0.00  0.00    +0.000 OA
BRANCH  13  19
ATOM     14  C   UNL     1       1.366   8.376  20.791  0.00  0.00    +0.000 C 
ATOM     15  C   UNL     1       1.799   7.040  20.266  0.00  0.00    +0.000 A 
ATOM     16  C   UNL     1       1.437   5.871  20.933  0.00  0.00    +0.000 A 
ATOM     17  C   UNL     1       1.829   4.633  20.438  0.00  0.00    +0.000 A 
ATOM     18  C   UNL     1       2.612   4.534  19.276  0.00  0.00    +0.000 A 
ATOM     19  C   UNL     1       3.001   5.718  18.609  0.00  0.00    +0.000 A 
ATOM     20  C   UNL     1       2.570   6.956  19.097  0.00  0.00    +0.000 A 
BRANCH  18  21
ATOM     21  C   UNL     1       2.923   3.132  18.779  0.00  0.00    +0.000 C 
ATOM     22  C   UNL     1       3.751   2.380  19.809  0.00  0.00    +0.000 C 
ATOM     23  C   UNL     1       1.693   2.335  18.343  0.00  0.00    +0.000 C 
ENDBRANCH  18  21
ENDBRANCH  13  19
ENDBRANCH   1  13
TORSDOF 8
ENDMDL
MODEL 3
REMARK VINA RESULT:      -7.1      1.598      3.050
REMARK  Name = 
REMARK  11 active torsions:
REMARK  status: ('A' for Active; 'I' for Inactive)
REMARK    1  A    between atoms: C_1  and  C_2
REMARK    2  A    between atoms: C_5  and  C_6
REMARK    3  A    between atoms: C_6  and  C_7
REMARK    4  A    between atoms: C_6  and  C_8
REMARK    5  A    between atoms: C_9  and  O_10
REMARK    6  A    between atoms: O_10  and  C_11
REMARK    7  A    between atoms: C_11  and  C_12
REMARK    8  A    between atoms: C_12  and  O_14
REMARK    9  A    between atoms: O_14  and  C_15
REMARK   10  A    between atoms: C_15  and  C_16
REMARK   11  A    between atoms: N_18  and  C_19
REMARK                            x       y       z     vdW  Elec       q    Type
REMARK                         _______ _______ _______ _____ _____    ______ ____
ROOT
ATOM      1  C   UNL     1       5.707   6.224  17.830  0.00  0.00    +0.000 C 
ENDROOT
BRANCH   1   2
ATOM      2  C   UNL     1       6.054   6.410  16.364  0.00  0.00    +0.000 C 
ATOM      3  O   UNL     1       5.328   6.929  15.524  0.00  0.00    +0.000 OA
BRANCH   2   4
ATOM      4  O   UNL     1       7.255   5.841  16.065  0.00  0.00    +0.000 OA
BRANCH   4   5
ATOM      5  C   UNL     1       7.121   4.480  15.625  0.00  0.00    +0.000 C 
BRANCH   5   6
ATOM      6  C   UNL     1       6.916   4.495  14.115  0.00  0.00    +0.000 C 
ATOM      7  O   UNL     1       7.381   5.403  13.411  0.00  0.00    +0.000 OA
ATOM      8  N   UNL     1       6.188   3.447  13.580  0.00  0.00    +0.000 N 
ATOM      9  H   UNL     1       5.926   2.660  14.165  0.00  0.00    +0.000 HD
BRANCH   8  10
ATOM     10  C   UNL     1       6.034   3.334  12.161  0.00  0.00    +0.000 C 
ATOM     11  C   UNL     1       5.655   2.000  11.591  0.00  0.00    +0.000 C 
ATOM     12  C   UNL     1       4.722   3.152  11.451  0.00  0.00    +0.000 C 
ENDBRANCH   8  10
ENDBRANCH   5   6
ENDBRANCH   4   5
ENDBRANCH   2   4
ENDBRANCH   1   2
BRANCH   1  13
ATOM     13  O   UNL     1       4.702   5.216  17.925  0.00  0.00    +0.000 OA
BRANCH  13  19
ATOM     14  C   UNL     1       1.491   7.858  20.614  0.00  0.00    +0.000 C 
ATOM     15  C   UNL     1       2.097   6.551  20.197  0.00  0.00    +0.000 A 
ATOM     16  C   UNL     1       1.634   5.355  20.744  0.00  0.00    +0.000 A 
ATOM     17  C   UNL     1       2.189   4.144  20.347  0.00  0.00    +0.000 A 
ATOM     18  C   UNL     1       3.235   4.100  19.410  0.00  0.00    +0.000 A 
ATOM     19  C   UNL     1       3.723   5.312  18.871  0.00  0.00    +0.000 A 
ATOM     20  C   UNL     1       3.132   6.522  19.251  0.00  0.00    +0.000 A 
BRANCH  18  21
ATOM     21  C   UNL     1       3.719   2.722  18.990  0.00  0.00    +0.000 C 
ATOM     22  C   UNL     1       4.365   2.010  20.168  0.00  0.00    +0.000 C 
ATOM     23  C   UNL     1       2.649   1.861  18.319  0.00  0.00    +0.000 C 
ENDBRANCH  18  21
ENDBRANCH  13  19
ENDBRANCH   1  13
TORSDOF 8
ENDMDL
MODEL 4
REMARK VINA RESULT:      -6.8      1.143      1.427
REMARK  Name = 
REMARK  11 active torsions:
REMARK  status: ('A' for Active; 'I' for Inactive)
REMARK    1  A    between atoms: C_1  and  C_2
REMARK    2  A    between atoms: C_5  and  C_6
REMARK    3  A    between atoms: C_6  and  C_7
REMARK    4  A    between atoms: C_6  and  C_8
REMARK    5  A    between atoms: C_9  and  O_10
REMARK    6  A    between atoms: O_10  and  C_11
REMARK    7  A    between atoms: C_11  and  C_12
REMARK    8  A    between atoms: C_12  and  O_14
REMARK    9  A    between atoms: O_14  and  C_15
REMARK   10  A    between atoms: C_15  and  C_16
REMARK   11  A    between atoms: N_18  and  C_19
REMARK                            x       y       z     vdW  Elec       q    Type
REMARK                         _______ _______ _______ _____ _____    ______ ____
ROOT
ATOM      1  C   UNL     1       5.712   6.550  17.530  0.00  0.00    +0.000 C 
ENDROOT
BRANCH   1   2
ATOM      2  C   UNL     1       7.109   5.970  17.656  0.00  0.00    +0.000 C 
ATOM      3  O   UNL     1       7.764   5.916  18.690  0.00  0.00    +0.000 OA
BRANCH   2   4
ATOM      4  O   UNL     1       7.598   5.591  16.441  0.00  0.00    +0.000 OA
BRANCH   4   5
ATOM      5  C   UNL     1       6.996   4.377  15.964  0.00  0.00    +0.000 C 
BRANCH   5   6
ATOM      6  C   UNL     1       6.849   4.491  14.452  0.00  0.00    +0.000 C 
ATOM      7  O   UNL     1       7.322   5.453  13.830  0.00  0.00    +0.000 OA
ATOM      8  N   UNL     1       6.163   3.469  13.820  0.00  0.00    +0.000 N 
ATOM      9  H   UNL     1       5.894   2.641  14.339  0.00  0.00    +0.000 HD
BRANCH   8  10
ATOM     10  C   UNL     1       6.065   3.451  12.391  0.00  0.00    +0.000 C 
ATOM     11  C   UNL     1       5.737   2.152  11.718  0.00  0.00    +0.000 C 
ATOM     12  C   UNL     1       4.785   3.293  11.619  0.00  0.00    +0.000 C 
ENDBRANCH   8  10
ENDBRANCH   5   6
ENDBRANCH   4   5
ENDBRANCH   2   4
ENDBRANCH   1   2
BRANCH   1  13
ATOM     13  O   UNL     1       4.926   6.051  18.611  0.00  0.00    +0.000 OA
BRANCH  13  19
ATOM     14  C   UNL     1       3.659   1.293  18.080  0.00  0.00    +0.000 C 
ATOM     15  C   UNL     1       3.307   2.749  18.156  0.00  0.00    +0.000 A 
ATOM     16  C   UNL     1       1.978   3.157  18.046  0.00  0.00    +0.000 A 
ATOM     17  C   UNL     1       1.653   4.506  18.128  0.00  0.00    +0.000 A 
ATOM     18  C   UNL     1       2.649   5.481  18.301  0.00  0.00    +0.000 A 
ATOM     19  C   UNL     1       3.999   5.073  18.389  0.00  0.00    +0.000 A 
ATOM     20  C   UNL     1       4.311   3.710  18.341  0.00  0.00    +0.000 A 
BRANCH  18  21
ATOM     21  C   UNL     1       2.179   6.918  18.453  0.00  0.00    +0.000 C 
ATOM     22  C   UNL     1       2.246   7.343  19.911  0.00  0.00    +0.000 C 
ATOM     23  C   UNL     1       2.894   7.911  17.536  0.00  0.00    +0.000 C 
ENDBRANCH  18  21
ENDBRANCH  13  19
ENDBRANCH   1  13
TORSDOF 8
ENDMDL
MODEL 5
REMARK VINA RESULT:      -6.8      1.371      3.077
REMARK  Name = 
REMARK  11 active torsions:
REMARK  status: ('A' for Active; 'I' for Inactive)
REMARK    1  A    between atoms: C_1  and  C_2
REMARK    2  A    between atoms: C_5  and  C_6
REMARK    3  A    between atoms: C_6  and  C_7
REMARK    4  A    between atoms: C_6  and  C_8
REMARK    5  A    between atoms: C_9  and  O_10
REMARK    6  A    between atoms: O_10  and  C_11
REMARK    7  A    between atoms: C_11  and  C_12
REMARK    8  A    between atoms: C_12  and  O_14
REMARK    9  A    between atoms: O_14  and  C_15
REMARK   10  A    between atoms: C_15  and  C_16
REMARK   11  A    between atoms: N_18  and  C_19
REMARK                            x       y       z     vdW  Elec       q    Type
REMARK                         _______ _______ _______ _____ _____    ______ ____
ROOT
ATOM      1  C   UNL     1       5.881   5.811  18.095  0.00  0.00    +0.000 C 
ENDROOT
BRANCH   1   2
ATOM      2  C   UNL     1       7.218   5.118  17.906  0.00  0.00    +0.000 C 
ATOM      3  O   UNL     1       8.003   4.834  18.804  0.00  0.00    +0.000 OA
BRANCH   2   4
ATOM      4  O   UNL     1       7.492   4.923  16.586  0.00  0.00    +0.000 OA
BRANCH   4   5
ATOM      5  C   UNL     1       6.646   3.927  15.992  0.00  0.00    +0.000 C 
BRANCH   5   6
ATOM      6  C   UNL     1       6.565   4.212  14.497  0.00  0.00    +0.000 C 
ATOM      7  O   UNL     1       7.098   5.216  14.004  0.00  0.00    +0.000 OA
ATOM      8  N   UNL     1       5.870   3.293  13.730  0.00  0.00    +0.000 N 
ATOM      9  H   UNL     1       5.551   2.424  14.144  0.00  0.00    +0.000 HD
BRANCH   8  10
ATOM     10  C   UNL     1       5.831   3.435  12.306  0.00  0.00    +0.000 C 
ATOM     11  C   UNL     1       5.693   2.197  11.472  0.00  0.00    +0.000 C 
ATOM     12  C   UNL     1       4.612   3.221  11.454  0.00  0.00    +0.000 C 
ENDBRANCH   8  10
ENDBRANCH   5   6
ENDBRANCH   4   5
ENDBRANCH   2   4
ENDBRANCH   1   2
BRANCH   1  13
ATOM     13  O   UNL     1       5.002   4.907  18.761  0.00  0.00    +0.000 OA
BRANCH  13  19
ATOM     14  C   UNL     1       1.700   8.493  19.631  0.00  0.00    +0.000 C 
ATOM     15  C   UNL     1       2.182   7.081  19.786  0.00  0.00    +0.000 A 
ATOM     16  C   UNL     1       1.436   6.160  20.519  0.00  0.00    +0.000 A 
ATOM     17  C   UNL     1       1.879   4.849  20.652  0.00  0.00    +0.000 A 
ATOM     18  C   UNL     1       3.090   4.433  20.074  0.00  0.00    +0.000 A 
ATOM     19  C   UNL     1       3.861   5.370  19.350  0.00  0.00    +0.000 A 
ATOM     20  C   UNL     1       3.387   6.677  19.193  0.00  0.00    +0.000 A 
BRANCH  18  21
ATOM     21  C   UNL     1       3.445   2.962  20.216  0.00  0.00    +0.000 C 
ATOM     22  C   UNL     1       2.808   2.386  21.470  0.00  0.00    +0.000 C 
ATOM     23  C   UNL     1       3.134   2.121  18.978  0.00  0.00    +0.000 C 
ENDBRANCH  18  21
ENDBRANCH  13  19
ENDBRANCH   1  13
TORSDOF 8
ENDMDL
MODEL 6
REMARK VINA RESULT:      -6.8      1.476      1.864
REMARK  Name = 
REMARK  11 active torsions:
REMARK  status: ('A' for Active; 'I' for Inactive)
REMARK    1  A    between atoms: C_1  and  C_2
REMARK    2  A    between atoms: C_5  and  C_6
REMARK    3  A    between atoms: C_6  and  C_7
REMARK    4  A    between atoms: C_6  and  C_8
REMARK    5  A    between atoms: C_9  and  O_10
REMARK    6  A    between atoms: O_10  and  C_11
REMARK    7  A    between atoms: C_11  and  C_12
REMARK    8  A    between atoms: C_12  and  O_14
REMARK    9  A    between atoms: O_14  and  C_15
REMARK   10  A    between atoms: C_15  and  C_16
REMARK   11  A    between atoms: N_18  and  C_19
REMARK                            x       y       z     vdW  Elec       q    Type
REMARK                         _______ _______ _______ _____ _____    ______ ____
ROOT
ATOM      1  C   UNL     1       4.580   5.078  16.730  0.00  0.00    +0.000 C 
ENDROOT
BRANCH   1   2
ATOM      2  C   UNL     1       5.389   6.158  16.034  0.00  0.00    +0.000 C 
ATOM      3  O   UNL     1       4.923   7.068  15.357  0.00  0.00    +0.000 OA
BRANCH   2   4
ATOM      4  O   UNL     1       6.726   5.943  16.177  0.00  0.00    +0.000 OA
BRANCH   4   5
ATOM      5  C   UNL     1       7.124   4.642  15.717  0.00  0.00    +0.000 C 
BRANCH   5   6
ATOM      6  C   UNL     1       6.975   4.615  14.201  0.00  0.00    +0.000 C 
ATOM      7  O   UNL     1       7.589   5.415  13.480  0.00  0.00    +0.000 OA
ATOM      8  N   UNL     1       6.123   3.657  13.681  0.00  0.00    +0.000 N 
ATOM      9  H   UNL     1       5.731   2.944  14.286  0.00  0.00    +0.000 HD
BRANCH   8  10
ATOM     10  C   UNL     1       6.003   3.502  12.262  0.00  0.00    +0.000 C 
ATOM     11  C   UNL     1       5.735   2.130  11.718  0.00  0.00    +0.000 C 
ATOM     12  C   UNL     1       4.721   3.206  11.536  0.00  0.00    +0.000 C 
ENDBRANCH   8  10
ENDBRANCH   5   6
ENDBRANCH   4   5
ENDBRANCH   2   4
ENDBRANCH   1   2
BRANCH   1  13
ATOM     13  O   UNL     1       4.282   5.528  18.050  0.00  0.00    +0.000 OA
BRANCH  13  19
ATOM     14  C   UNL     1       1.772   1.643  19.819  0.00  0.00    +0.000 C 
ATOM     15  C   UNL     1       1.972   3.122  19.664  0.00  0.00    +0.000 A 
ATOM     16  C   UNL     1       1.095   4.018  20.272  0.00  0.00    +0.000 A 
ATOM     17  C   UNL     1       1.289   5.387  20.137  0.00  0.00    +0.000 A 
ATOM     18  C   UNL     1       2.353   5.895  19.373  0.00  0.00    +0.000 A 
ATOM     19  C   UNL     1       3.232   4.989  18.736  0.00  0.00    +0.000 A 
ATOM     20  C   UNL     1       3.047   3.613  18.909  0.00  0.00    +0.000 A 
BRANCH  18  21
ATOM     21  C   UNL     1       2.520   7.405  19.351  0.00  0.00    +0.000 C 
ATOM     22  C   UNL     1       2.212   7.948  17.965  0.00  0.00    +0.000 C 
ATOM     23  C   UNL     1       1.734   8.137  20.440  0.00  0.00    +0.000 C 
ENDBRANCH  18  21
ENDBRANCH  13  19
ENDBRANCH   1  13
TORSDOF 8
ENDMDL
MODEL 7
REMARK VINA RESULT:      -6.8      0.897      2.914
REMARK  Name = 
REMARK  11 active torsions:
REMARK  status: ('A' for Active; 'I' for Inactive)
REMARK    1  A    between atoms: C_1  and  C_2
REMARK    2  A    between atoms: C_5  and  C_6
REMARK    3  A    between atoms: C_6  and  C_7
REMARK    4  A    between atoms: C_6  and  C_8
REMARK    5  A    between atoms: C_9  and  O_10
REMARK    6  A    between atoms: O_10  and  C_11
REMARK    7  A    between atoms: C_11  and  C_12
REMARK    8  A    between atoms: C_12  and  O_14
REMARK    9  A    between atoms: O_14  and  C_15
REMARK   10  A    between atoms: C_15  and  C_16
REMARK   11  A    between atoms: N_18  and  C_19
REMARK                            x       y       z     vdW  Elec       q    Type
REMARK                         _______ _______ _______ _____ _____    ______ ____
ROOT
ATOM      1  C   UNL     1       7.025   5.586  19.000  0.00  0.00    +0.000 C 
ENDROOT
BRANCH   1   2
ATOM      2  C   UNL     1       7.424   5.890  17.568  0.00  0.00    +0.000 C 
ATOM      3  O   UNL     1       7.408   6.999  17.047  0.00  0.00    +0.000 OA
BRANCH   2   4
ATOM      4  O   UNL     1       7.725   4.749  16.886  0.00  0.00    +0.000 OA
BRANCH   4   5
ATOM      5  C   UNL     1       6.572   4.167  16.258  0.00  0.00    +0.000 C 
BRANCH   5   6
ATOM      6  C   UNL     1       6.722   4.341  14.751  0.00  0.00    +0.000 C 
ATOM      7  O   UNL     1       7.466   5.211  14.275  0.00  0.00    +0.000 OA
ATOM      8  N   UNL     1       5.987   3.481  13.954  0.00  0.00    +0.000 N 
ATOM      9  H   UNL     1       5.484   2.707  14.373  0.00  0.00    +0.000 HD
BRANCH   8  10
ATOM     10  C   UNL     1       6.146   3.514  12.532  0.00  0.00    +0.000 C 
ATOM     11  C   UNL     1       5.934   2.244  11.763  0.00  0.00    +0.000 C 
ATOM     12  C   UNL     1       5.024   3.402  11.539  0.00  0.00    +0.000 C 
ENDBRANCH   8  10
ENDBRANCH   5   6
ENDBRANCH   4   5
ENDBRANCH   2   4
ENDBRANCH   1   2
BRANCH   1  13
ATOM     13  O   UNL     1       5.943   4.656  18.972  0.00  0.00    +0.000 OA
BRANCH  13  19
ATOM     14  C   UNL     1       2.612   8.105  17.736  0.00  0.00    +0.000 C 
ATOM     15  C   UNL     1       2.967   6.746  18.261  0.00  0.00    +0.000 A 
ATOM     16  C   UNL     1       1.964   5.854  18.638  0.00  0.00    +0.000 A 
ATOM     17  C   UNL     1       2.296   4.590  19.113  0.00  0.00    +0.000 A 
ATOM     18  C   UNL     1       3.637   4.194  19.241  0.00  0.00    +0.000 A 
ATOM     19  C   UNL     1       4.657   5.104  18.882  0.00  0.00    +0.000 A 
ATOM     20  C   UNL     1       4.311   6.360  18.372  0.00  0.00    +0.000 A 
BRANCH  18  21
ATOM     21  C   UNL     1       3.888   2.767  19.699  0.00  0.00    +0.000 C 
ATOM     22  C   UNL     1       3.109   2.478  20.972  0.00  0.00    +0.000 C 
ATOM     23  C   UNL     1       3.635   1.711  18.622  0.00  0.00    +0.000 C 
ENDBRANCH  18  21
ENDBRANCH  13  19
ENDBRANCH   1  13
TORSDOF 8
ENDMDL
MODEL 8
REMARK VINA RESULT:      -6.7      1.697      3.296
REMARK  Name = 
REMARK  11 active torsions:
REMARK  status: ('A' for Active; 'I' for Inactive)
REMARK    1  A    between atoms: C_1  and  C_2
REMARK    2  A    between atoms: C_5  and  C_6
REMARK    3  A    between atoms: C_6  and  C_7
REMARK    4  A    between atoms: C_6  and  C_8
REMARK    5  A    between atoms: C_9  and  O_10
REMARK    6  A    between atoms: O_10  and  C_11
REMARK    7  A    between atoms: C_11  and  C_12
REMARK    8  A    between atoms: C_12  and  O_14
REMARK    9  A    between atoms: O_14  and  C_15
REMARK   10  A    between atoms: C_15  and  C_16
REMARK   11  A    between atoms: N_18  and  C_19
REMARK                            x       y       z     vdW  Elec       q    Type
REMARK                         _______ _______ _______ _____ _____    ______ ____
ROOT
ATOM      1  C   UNL     1       4.761   4.814  17.428  0.00  0.00    +0.000 C 
ENDROOT
BRANCH   1   2
ATOM      2  C   UNL     1       5.443   5.939  16.671  0.00  0.00    +0.000 C 
ATOM      3  O   UNL     1       4.876   6.904  16.171  0.00  0.00    +0.000 OA
BRANCH   2   4
ATOM      4  O   UNL     1       6.778   5.702  16.531  0.00  0.00    +0.000 OA
BRANCH   4   5
ATOM      5  C   UNL     1       7.048   4.410  15.964  0.00  0.00    +0.000 C 
BRANCH   5   6
ATOM      6  C   UNL     1       6.883   4.519  14.453  0.00  0.00    +0.000 C 
ATOM      7  O   UNL     1       7.335   5.486  13.824  0.00  0.00    +0.000 OA
ATOM      8  N   UNL     1       6.205   3.486  13.830  0.00  0.00    +0.000 N 
ATOM      9  H   UNL     1       5.954   2.655  14.355  0.00  0.00    +0.000 HD
BRANCH   8  10
ATOM     10  C   UNL     1       6.092   3.463  12.403  0.00  0.00    +0.000 C 
ATOM     11  C   UNL     1       5.787   2.155  11.735  0.00  0.00    +0.000 C 
ATOM     12  C   UNL     1       4.808   3.274  11.646  0.00  0.00    +0.000 C 
ENDBRANCH   8  10
ENDBRANCH   5   6
ENDBRANCH   4   5
ENDBRANCH   2   4
ENDBRANCH   1   2
BRANCH   1  13
ATOM     13  O   UNL     1       3.358   5.068  17.432  0.00  0.00    +0.000 OA
BRANCH  13  19
ATOM     14  C   UNL     1       1.671   9.153  19.666  0.00  0.00    +0.000 C 
ATOM     15  C   UNL     1       1.899   7.671  19.629  0.00  0.00    +0.000 A 
ATOM     16  C   UNL     1       1.473   6.868  20.686  0.00  0.00    +0.000 A 
ATOM     17  C   UNL     1       1.675   5.494  20.644  0.00  0.00    +0.000 A 
ATOM     18  C   UNL     1       2.326   4.890  19.555  0.00  0.00    +0.000 A 
ATOM     19  C   UNL     1       2.780   5.704  18.493  0.00  0.00    +0.000 A 
ATOM     20  C   UNL     1       2.539   7.082  18.529  0.00  0.00    +0.000 A 
BRANCH  18  21
ATOM     21  C   UNL     1       2.429   3.375  19.574  0.00  0.00    +0.000 C 
ATOM     22  C   UNL     1       2.596   2.876  21.001  0.00  0.00    +0.000 C 
ATOM     23  C   UNL     1       1.287   2.661  18.850  0.00  0.00    +0.000 C 
ENDBRANCH  18  21
ENDBRANCH  13  19
ENDBRANCH   1  13
TORSDOF 8
ENDMDL
MODEL 9
REMARK VINA RESULT:      -6.6      1.660      3.505
REMARK  Name = 
REMARK  11 active torsions:
REMARK  status: ('A' for Active; 'I' for Inactive)
REMARK    1  A    between atoms: C_1  and  C_2
REMARK    2  A    between atoms: C_5  and  C_6
REMARK    3  A    between atoms: C_6  and  C_7
REMARK    4  A    between atoms: C_6  and  C_8
REMARK    5  A    between atoms: C_9  and  O_10
REMARK    6  A    between atoms: O_10  and  C_11
REMARK    7  A    between atoms: C_11  and  C_12
REMARK    8  A    between atoms: C_12  and  O_14
REMARK    9  A    between atoms: O_14  and  C_15
REMARK   10  A    between atoms: C_15  and  C_16
REMARK   11  A    between atoms: N_18  and  C_19
REMARK                            x       y       z     vdW  Elec       q    Type
REMARK                         _______ _______ _______ _____ _____    ______ ____
ROOT
ATOM      1  C   UNL     1       3.987   4.106  17.324  0.00  0.00    +0.000 C 
ENDROOT
BRANCH   1   2
ATOM      2  C   UNL     1       5.277   4.160  18.122  0.00  0.00    +0.000 C 
ATOM      3  O   UNL     1       5.485   3.568  19.175  0.00  0.00    +0.000 OA
BRANCH   2   4
ATOM      4  O   UNL     1       6.166   5.031  17.567  0.00  0.00    +0.000 OA
BRANCH   4   5
ATOM      5  C   UNL     1       7.033   4.395  16.614  0.00  0.00    +0.000 C 
BRANCH   5   6
ATOM      6  C   UNL     1       6.510   4.716  15.219  0.00  0.00    +0.000 C 
ATOM      7  O   UNL     1       6.263   5.881  14.877  0.00  0.00    +0.000 OA
ATOM      8  N   UNL     1       6.328   3.642  14.366  0.00  0.00    +0.000 N 
ATOM      9  H   UNL     1       6.653   2.719  14.635  0.00  0.00    +0.000 HD
BRANCH   8  10
ATOM     10  C   UNL     1       5.934   3.866  13.008  0.00  0.00    +0.000 C 
ATOM     11  C   UNL     1       6.923   3.563  11.922  0.00  0.00    +0.000 C 
ATOM     12  C   UNL     1       5.657   2.783  12.004  0.00  0.00    +0.000 C 
ENDBRANCH   8  10
ENDBRANCH   5   6
ENDBRANCH   4   5
ENDBRANCH   2   4
ENDBRANCH   1   2
BRANCH   1  13
ATOM     13  O   UNL     1       2.895   4.178  18.239  0.00  0.00    +0.000 OA
BRANCH  13  19
ATOM     14  C   UNL     1       2.458   9.107  18.050  0.00  0.00    +0.000 C 
ATOM     15  C   UNL     1       2.273   7.794  18.752  0.00  0.00    +0.000 A 
ATOM     16  C   UNL     1       1.680   7.749  20.013  0.00  0.00    +0.000 A 
ATOM     17  C   UNL     1       1.499   6.531  20.657  0.00  0.00    +0.000 A 
ATOM     18  C   UNL     1       1.925   5.330  20.066  0.00  0.00    +0.000 A 
ATOM     19  C   UNL     1       2.548   5.374  18.798  0.00  0.00    +0.000 A 
ATOM     20  C   UNL     1       2.692   6.602  18.144  0.00  0.00    +0.000 A 
BRANCH  18  21
ATOM     21  C   UNL     1       1.613   4.048  20.820  0.00  0.00    +0.000 C 
ATOM     22  C   UNL     1       0.714   3.151  19.984  0.00  0.00    +0.000 C 
ATOM     23  C   UNL     1       2.848   3.304  21.328  0.00  0.00    +0.000 C 
ENDBRANCH  18  21
ENDBRANCH  13  19
ENDBRANCH   1  13
TORSDOF 8
ENDMDL
