MODEL 1
REMARK VINA RESULT:      -7.2      0.000      0.000
REMARK  Name = 
REMARK  8 active torsions:
REMARK  status: ('A' for Active; 'I' for Inactive)
REMARK    1  A    between atoms: N_6  and  O_7
REMARK    2  A    between atoms: O_7  and  C_8
REMARK    3  A    between atoms: C_8  and  C_9
REMARK    4  A    between atoms: C_9  and  O_10
REMARK    5  A    between atoms: C_11  and  S_12
REMARK    6  A    between atoms: S_12  and  C_13
REMARK    7  A    between atoms: C_19  and  C_20
REMARK    8  A    between atoms: C_20  and  C_21
REMARK                            x       y       z     vdW  Elec       q    Type
REMARK                         _______ _______ _______ _____ _____    ______ ____
ROOT
ATOM      1  O   UNL     1       7.249   4.852  20.211  0.00  0.00    +0.000 OA
ATOM      2  C   UNL     1       6.731   5.530  19.332  0.00  0.00    +0.000 A 
ATOM      3  N   UNL     1       7.478   6.412  18.617  0.00  0.00    +0.000 N 
ATOM      4  C   UNL     1       7.115   6.862  17.371  0.00  0.00    +0.000 A 
ATOM      5  O   UNL     1       7.961   7.386  16.636  0.00  0.00    +0.000 OA
ATOM      6  N   UNL     1       5.780   6.677  17.043  0.00  0.00    +0.000 N 
ATOM      7  C   UNL     1       4.876   5.970  17.818  0.00  0.00    +0.000 A 
ATOM      8  C   UNL     1       5.281   5.456  19.005  0.00  0.00    +0.000 A 
ATOM      9  H   UNL     1       8.464   6.448  18.831  0.00  0.00    +0.000 HD
ENDROOT
BRANCH   6  10
ATOM     10  O   UNL     1       5.530   6.873  15.657  0.00  0.00    +0.000 OA
BRANCH  10  11
ATOM     11  C   UNL     1       5.387   5.655  14.909  0.00  0.00    +0.000 C 
BRANCH  11  12
ATOM     12  C   UNL     1       6.522   4.639  14.975  0.00  0.00    +0.000 C 
BRANCH  12  13
ATOM     13  O   UNL     1       6.159   3.482  15.716  0.00  0.00    +0.000 OA
ATOM     14  H   UNL     1       6.099   3.735  16.660  0.00  0.00    +0.000 HD
ENDBRANCH  12  13
ENDBRANCH  11  12
ENDBRANCH  10  11
ENDBRANCH   6  10
BRANCH   7  15
ATOM     15  S   UNL     1       3.155   5.979  17.436  0.00  0.00    +0.000 S 
BRANCH  15  16
ATOM     16  C   UNL     1       2.441   7.376  18.288  0.00  0.00    +0.000 A 
ATOM     17  C   UNL     1       2.088   7.363  19.647  0.00  0.00    +0.000 A 
ATOM     18  C   UNL     1       1.477   8.479  20.223  0.00  0.00    +0.000 A 
ATOM     19  C   UNL     1       1.253   9.635  19.479  0.00  0.00    +0.000 A 
ATOM     20  C   UNL     1       1.661   9.689  18.151  0.00  0.00    +0.000 A 
ATOM     21  C   UNL     1       2.257   8.568  17.562  0.00  0.00    +0.000 A 
ENDBRANCH  15  16
ENDBRANCH   7  15
BRANCH   8  22
ATOM     22  C   UNL     1       4.423   4.939  20.142  0.00  0.00    +0.000 C 
BRANCH  22  23
ATOM     23  C   UNL     1       3.456   3.826  19.811  0.00  0.00    +0.000 A 
ATOM     24  C   UNL     1       2.123   3.864  20.243  0.00  0.00    +0.000 A 
ATOM     25  C   UNL     1       1.235   2.840  19.908  0.00  0.00    +0.000 A 
ATOM     26  C   UNL     1       1.661   1.774  19.122  0.00  0.00    +0.000 A 
ATOM     27  C   UNL     1       2.971   1.743  18.651  0.00  0.00    +0.000 A 
ATOM     28  C   UNL     1       3.862   2.762  18.991  0.00  0.00    +0.000 A 
ENDBRANCH  22  23
ENDBRANCH   8  22
TORSDOF 8
ENDMDL
MODEL 2
REMARK VINA RESULT:      -7.0      2.246      4.695
REMARK  Name = 
REMARK  8 active torsions:
REMARK  status: ('A' for Active; 'I' for Inactive)
REMARK    1  A    between atoms: N_6  and  O_7
REMARK    2  A    between atoms: O_7  and  C_8
REMARK    3  A    between atoms: C_8  and  C_9
REMARK    4  A    between atoms: C_9  and  O_10
REMARK    5  A    between atoms: C_11  and  S_12
REMARK    6  A    between atoms: S_12  and  C_13
REMARK    7  A    between atoms: C_19  and  C_20
REMARK    8  A    between atoms: C_20  and  C_21
REMARK                            x       y       z     vdW  Elec       q    Type
REMARK                         _______ _______ _______ _____ _____    ______ ____
ROOT
ATOM      1  O   UNL     1       7.102   4.723  18.944  0.00  0.00    +0.000 OA
ATOM      2  C   UNL     1       5.906   4.461  18.946  0.00  0.00    +0.000 A 
ATOM      3  N   UNL     1       5.453   3.329  19.548  0.00  0.00    +0.000 N 
ATOM      4  C   UNL     1       4.159   3.180  19.984  0.00  0.00    +0.000 A 
ATOM      5  O   UNL     1       3.884   2.294  20.803  0.00  0.00    +0.000 OA
ATOM      6  N   UNL     1       3.248   4.074  19.442  0.00  0.00    +0.000 N 
ATOM      7  C   UNL     1       3.590   5.144  18.632  0.00  0.00    +0.000 A 
ATOM      8  C   UNL     1       4.889   5.325  18.288  0.00  0.00    +0.000 A 
ATOM      9  H   UNL     1       6.144   2.754  20.008  0.00  0.00    +0.000 HD
ENDROOT
BRANCH   6  10
ATOM     10  O   UNL     1       2.011   4.079  20.142  0.00  0.00    +0.000 OA
BRANCH  10  11
ATOM     11  C   UNL     1       0.909   3.550  19.389  0.00  0.00    +0.000 C 
BRANCH  11  12
ATOM     12  C   UNL     1       0.988   2.097  18.931  0.00  0.00    +0.000 C 
BRANCH  12  13
ATOM     13  O   UNL     1       1.702   1.961  17.709  0.00  0.00    +0.000 OA
ATOM     14  H   UNL     1       2.052   2.842  17.465  0.00  0.00    +0.000 HD
ENDBRANCH  12  13
ENDBRANCH  11  12
ENDBRANCH  10  11
ENDBRANCH   6  10
BRANCH   7  15
ATOM     15  S   UNL     1       2.351   6.089  17.807  0.00  0.00    +0.000 S 
BRANCH  15  16
ATOM     16  C   UNL     1       1.914   7.435  18.895  0.00  0.00    +0.000 A 
ATOM     17  C   UNL     1       1.804   7.307  20.289  0.00  0.00    +0.000 A 
ATOM     18  C   UNL     1       1.397   8.395  21.063  0.00  0.00    +0.000 A 
ATOM     19  C   UNL     1       1.141   9.634  20.477  0.00  0.00    +0.000 A 
ATOM     20  C   UNL     1       1.314   9.795  19.107  0.00  0.00    +0.000 A 
ATOM     21  C   UNL     1       1.703   8.704  18.323  0.00  0.00    +0.000 A 
ENDBRANCH  15  16
ENDBRANCH   7  15
BRANCH   8  22
ATOM     22  C   UNL     1       5.451   6.202  17.188  0.00  0.00    +0.000 C 
BRANCH  22  23
ATOM     23  C   UNL     1       5.837   5.512  15.899  0.00  0.00    +0.000 A 
ATOM     24  C   UNL     1       7.114   5.662  15.344  0.00  0.00    +0.000 A 
ATOM     25  C   UNL     1       7.464   4.999  14.166  0.00  0.00    +0.000 A 
ATOM     26  C   UNL     1       6.547   4.162  13.538  0.00  0.00    +0.000 A 
ATOM     27  C   UNL     1       5.288   3.970  14.099  0.00  0.00    +0.000 A 
ATOM     28  C   UNL     1       4.935   4.639  15.272  0.00  0.00    +0.000 A 
ENDBRANCH  22  23
ENDBRANCH   8  22
TORSDOF 8
ENDMDL
MODEL 3
REMARK VINA RESULT:      -7.0      2.493      4.951
REMARK  Name = 
REMARK  8 active torsions:
REMARK  status: ('A' for Active; 'I' for Inactive)
REMARK    1  A    between atoms: N_6  and  O_7
REMARK    2  A    between atoms: O_7  and  C_8
REMARK    3  A    between atoms: C_8  and  C_9
REMARK    4  A    between atoms: C_9  and  O_10
REMARK    5  A    between atoms: C_11  and  S_12
REMARK    6  A    between atoms: S_12  and  C_13
REMARK    7  A    between atoms: C_19  and  C_20
REMARK    8  A    between atoms: C_20  and  C_21
REMARK                            x       y       z     vdW  Elec       q    Type
REMARK                         _______ _______ _______ _____ _____    ______ ____
ROOT
ATOM      1  O   UNL     1       5.149   2.723  19.342  0.00  0.00    +0.000 OA
ATOM      2  C   UNL     1       5.501   3.825  18.942  0.00  0.00    +0.000 A 
ATOM      3  N   UNL     1       6.312   4.605  19.706  0.00  0.00    +0.000 N 
ATOM      4  C   UNL     1       7.096   5.605  19.185  0.00  0.00    +0.000 A 
ATOM      5  O   UNL     1       8.041   6.053  19.846  0.00  0.00    +0.000 OA
ATOM      6  N   UNL     1       6.738   6.033  17.915  0.00  0.00    +0.000 N 
ATOM      7  C   UNL     1       5.766   5.433  17.133  0.00  0.00    +0.000 A 
ATOM      8  C   UNL     1       5.065   4.387  17.636  0.00  0.00    +0.000 A 
ATOM      9  H   UNL     1       6.619   4.213  20.585  0.00  0.00    +0.000 HD
ENDROOT
BRANCH   6  10
ATOM     10  O   UNL     1       7.745   6.834  17.310  0.00  0.00    +0.000 OA
BRANCH  10  11
ATOM     11  C   UNL     1       7.472   8.243  17.342  0.00  0.00    +0.000 C 
BRANCH  11  12
ATOM     12  C   UNL     1       8.487   9.151  18.028  0.00  0.00    +0.000 C 
BRANCH  12  13
ATOM     13  O   UNL     1       8.933   8.614  19.266  0.00  0.00    +0.000 OA
ATOM     14  H   UNL     1       8.183   8.136  19.675  0.00  0.00    +0.000 HD
ENDBRANCH  12  13
ENDBRANCH  11  12
ENDBRANCH  10  11
ENDBRANCH   6  10
BRANCH   7  15
ATOM     15  S   UNL     1       5.222   6.181  15.632  0.00  0.00    +0.000 S 
BRANCH  15  16
ATOM     16  C   UNL     1       5.853   5.180  14.295  0.00  0.00    +0.000 A 
ATOM     17  C   UNL     1       5.114   4.167  13.664  0.00  0.00    +0.000 A 
ATOM     18  C   UNL     1       5.702   3.387  12.666  0.00  0.00    +0.000 A 
ATOM     19  C   UNL     1       7.009   3.630  12.247  0.00  0.00    +0.000 A 
ATOM     20  C   UNL     1       7.730   4.675  12.813  0.00  0.00    +0.000 A 
ATOM     21  C   UNL     1       7.153   5.448  13.826  0.00  0.00    +0.000 A 
ENDBRANCH  15  16
ENDBRANCH   7  15
BRANCH   8  22
ATOM     22  C   UNL     1       3.773   3.791  17.114  0.00  0.00    +0.000 C 
BRANCH  22  23
ATOM     23  C   UNL     1       2.654   3.612  18.115  0.00  0.00    +0.000 A 
ATOM     24  C   UNL     1       2.298   4.636  19.003  0.00  0.00    +0.000 A 
ATOM     25  C   UNL     1       1.245   4.466  19.904  0.00  0.00    +0.000 A 
ATOM     26  C   UNL     1       0.522   3.277  19.916  0.00  0.00    +0.000 A 
ATOM     27  C   UNL     1       0.838   2.265  19.012  0.00  0.00    +0.000 A 
ATOM     28  C   UNL     1       1.895   2.432  18.116  0.00  0.00    +0.000 A 
ENDBRANCH  22  23
ENDBRANCH   8  22
TORSDOF 8
ENDMDL
MODEL 4
REMARK VINA RESULT:      -7.0      2.364      4.693
REMARK  Name = 
REMARK  8 active torsions:
REMARK  status: ('A' for Active; 'I' for Inactive)
REMARK    1  A    between atoms: N_6  and  O_7
REMARK    2  A    between atoms: O_7  and  C_8
REMARK    3  A    between atoms: C_8  and  C_9
REMARK    4  A    between atoms: C_9  and  O_10
REMARK    5  A    between atoms: C_11  and  S_12
REMARK    6  A    between atoms: S_12  and  C_13
REMARK    7  A    between atoms: C_19  and  C_20
REMARK    8  A    between atoms: C_20  and  C_21
REMARK                            x       y       z     vdW  Elec       q    Type
REMARK                         _______ _______ _______ _____ _____    ______ ____
ROOT
ATOM      1  O   UNL     1       6.892   4.681  19.250  0.00  0.00    +0.000 OA
ATOM      2  C   UNL     1       5.683   4.492  19.216  0.00  0.00    +0.000 A 
ATOM      3  N   UNL     1       5.142   3.403  19.825  0.00  0.00    +0.000 N 
ATOM      4  C   UNL     1       3.828   3.342  20.220  0.00  0.00    +0.000 A 
ATOM      5  O   UNL     1       3.473   2.492  21.045  0.00  0.00    +0.000 OA
ATOM      6  N   UNL     1       2.992   4.280  19.631  0.00  0.00    +0.000 N 
ATOM      7  C   UNL     1       3.425   5.309  18.813  0.00  0.00    +0.000 A 
ATOM      8  C   UNL     1       4.743   5.403  18.509  0.00  0.00    +0.000 A 
ATOM      9  H   UNL     1       5.781   2.796  20.317  0.00  0.00    +0.000 HD
ENDROOT
BRANCH   6  10
ATOM     10  O   UNL     1       1.735   4.374  20.289  0.00  0.00    +0.000 OA
BRANCH  10  11
ATOM     11  C   UNL     1       0.866   3.255  20.056  0.00  0.00    +0.000 C 
BRANCH  11  12
ATOM     12  C   UNL     1       0.813   2.672  18.648  0.00  0.00    +0.000 C 
BRANCH  12  13
ATOM     13  O   UNL     1       1.562   1.468  18.542  0.00  0.00    +0.000 OA
ATOM     14  H   UNL     1       1.187   0.944  17.805  0.00  0.00    +0.000 HD
ENDBRANCH  12  13
ENDBRANCH  11  12
ENDBRANCH  10  11
ENDBRANCH   6  10
BRANCH   7  15
ATOM     15  S   UNL     1       2.274   6.311  17.931  0.00  0.00    +0.000 S 
BRANCH  15  16
ATOM     16  C   UNL     1       1.825   7.661  19.010  0.00  0.00    +0.000 A 
ATOM     17  C   UNL     1       1.739   7.546  20.406  0.00  0.00    +0.000 A 
ATOM     18  C   UNL     1       1.321   8.635  21.174  0.00  0.00    +0.000 A 
ATOM     19  C   UNL     1       1.030   9.861  20.578  0.00  0.00    +0.000 A 
ATOM     20  C   UNL     1       1.178  10.010  19.204  0.00  0.00    +0.000 A 
ATOM     21  C   UNL     1       1.579   8.918  18.426  0.00  0.00    +0.000 A 
ENDBRANCH  15  16
ENDBRANCH   7  15
BRANCH   8  22
ATOM     22  C   UNL     1       5.393   6.222  17.413  0.00  0.00    +0.000 C 
BRANCH  22  23
ATOM     23  C   UNL     1       5.795   5.480  16.158  0.00  0.00    +0.000 A 
ATOM     24  C   UNL     1       4.888   4.662  15.472  0.00  0.00    +0.000 A 
ATOM     25  C   UNL     1       5.266   4.003  14.300  0.00  0.00    +0.000 A 
ATOM     26  C   UNL     1       6.549   4.170  13.788  0.00  0.00    +0.000 A 
ATOM     27  C   UNL     1       7.449   5.012  14.436  0.00  0.00    +0.000 A 
ATOM     28  C   UNL     1       7.074   5.665  15.612  0.00  0.00    +0.000 A 
ENDBRANCH  22  23
ENDBRANCH   8  22
TORSDOF 8
ENDMDL
MODEL 5
REMARK VINA RESULT:      -6.9      2.457      5.028
REMARK  Name = 
REMARK  8 active torsions:
REMARK  status: ('A' for Active; 'I' for Inactive)
REMARK    1  A    between atoms: N_6  and  O_7
REMARK    2  A    between atoms: O_7  and  C_8
REMARK    3  A    between atoms: C_8  and  C_9
REMARK    4  A    between atoms: C_9  and  O_10
REMARK    5  A    between atoms: C_11  and  S_12
REMARK    6  A    between atoms: S_12  and  C_13
REMARK    7  A    between atoms: C_19  and  C_20
REMARK    8  A    between atoms: C_20  and  C_21
REMARK                            x       y       z     vdW  Elec       q    Type
REMARK                         _______ _______ _______ _____ _____    ______ ____
ROOT
ATOM      1  O   UNL     1       5.082   2.830  19.409  0.00  0.00    +0.000 OA
ATOM      2  C   UNL     1       5.478   3.910  18.989  0.00  0.00    +0.000 A 
ATOM      3  N   UNL     1       6.317   4.671  19.740  0.00  0.00    +0.000 N 
ATOM      4  C   UNL     1       7.141   5.630  19.203  0.00  0.00    +0.000 A 
ATOM      5  O   UNL     1       8.101   6.054  19.858  0.00  0.00    +0.000 OA
ATOM      6  N   UNL     1       6.802   6.048  17.924  0.00  0.00    +0.000 N 
ATOM      7  C   UNL     1       5.808   5.473  17.151  0.00  0.00    +0.000 A 
ATOM      8  C   UNL     1       5.066   4.464  17.671  0.00  0.00    +0.000 A 
ATOM      9  H   UNL     1       6.607   4.285  20.627  0.00  0.00    +0.000 HD
ENDROOT
BRANCH   6  10
ATOM     10  O   UNL     1       7.841   6.797  17.306  0.00  0.00    +0.000 OA
BRANCH  10  11
ATOM     11  C   UNL     1       7.656   8.220  17.370  0.00  0.00    +0.000 C 
BRANCH  11  12
ATOM     12  C   UNL     1       8.456   8.998  18.409  0.00  0.00    +0.000 C 
BRANCH  12  13
ATOM     13  O   UNL     1       9.067  10.155  17.853  0.00  0.00    +0.000 OA
ATOM     14  H   UNL     1       9.534  10.625  18.573  0.00  0.00    +0.000 HD
ENDBRANCH  12  13
ENDBRANCH  11  12
ENDBRANCH  10  11
ENDBRANCH   6  10
BRANCH   7  15
ATOM     15  S   UNL     1       5.297   6.212  15.635  0.00  0.00    +0.000 S 
BRANCH  15  16
ATOM     16  C   UNL     1       5.947   5.199  14.317  0.00  0.00    +0.000 A 
ATOM     17  C   UNL     1       7.254   5.312  13.818  0.00  0.00    +0.000 A 
ATOM     18  C   UNL     1       7.665   4.522  12.743  0.00  0.00    +0.000 A 
ATOM     19  C   UNL     1       6.808   3.578  12.180  0.00  0.00    +0.000 A 
ATOM     20  C   UNL     1       5.534   3.405  12.708  0.00  0.00    +0.000 A 
ATOM     21  C   UNL     1       5.109   4.206  13.774  0.00  0.00    +0.000 A 
ENDBRANCH  15  16
ENDBRANCH   7  15
BRANCH   8  22
ATOM     22  C   UNL     1       3.753   3.909  17.158  0.00  0.00    +0.000 C 
BRANCH  22  23
ATOM     23  C   UNL     1       2.638   3.758  18.167  0.00  0.00    +0.000 A 
ATOM     24  C   UNL     1       2.322   4.786  19.066  0.00  0.00    +0.000 A 
ATOM     25  C   UNL     1       1.273   4.642  19.975  0.00  0.00    +0.000 A 
ATOM     26  C   UNL     1       0.512   3.476  19.985  0.00  0.00    +0.000 A 
ATOM     27  C   UNL     1       0.786   2.463  19.070  0.00  0.00    +0.000 A 
ATOM     28  C   UNL     1       1.841   2.604  18.165  0.00  0.00    +0.000 A 
ENDBRANCH  22  23
ENDBRANCH   8  22
TORSDOF 8
ENDMDL
MODEL 6
REMARK VINA RESULT:      -6.9      1.735      4.301
REMARK  Name = 
REMARK  8 active torsions:
REMARK  status: ('A' for Active; 'I' for Inactive)
REMARK    1  A    between atoms: N_6  and  O_7
REMARK    2  A    between atoms: O_7  and  C_8
REMARK    3  A    between atoms: C_8  and  C_9
REMARK    4  A    between atoms: C_9  and  O_10
REMARK    5  A    between atoms: C_11  and  S_12
REMARK    6  A    between atoms: S_12  and  C_13
REMARK    7  A    between atoms: C_19  and  C_20
REMARK    8  A    between atoms: C_20  and  C_21
REMARK                            x       y       z     vdW  Elec       q    Type
REMARK                         _______ _______ _______ _____ _____    ______ ____
ROOT
ATOM      1  O   UNL     1       7.119   6.509  18.900  0.00  0.00    +0.000 OA
ATOM      2  C   UNL     1       6.628   6.011  17.895  0.00  0.00    +0.000 A 
ATOM      3  N   UNL     1       7.238   6.158  16.689  0.00  0.00    +0.000 N 
ATOM      4  C   UNL     1       7.030   5.302  15.635  0.00  0.00    +0.000 A 
ATOM      5  O   UNL     1       7.834   5.276  14.696  0.00  0.00    +0.000 OA
ATOM      6  N   UNL     1       5.891   4.515  15.732  0.00  0.00    +0.000 N 
ATOM      7  C   UNL     1       5.074   4.457  16.848  0.00  0.00    +0.000 A 
ATOM      8  C   UNL     1       5.352   5.247  17.914  0.00  0.00    +0.000 A 
ATOM      9  H   UNL     1       8.112   6.663  16.682  0.00  0.00    +0.000 HD
ENDROOT
BRANCH   6  10
ATOM     10  O   UNL     1       5.887   3.451  14.789  0.00  0.00    +0.000 OA
BRANCH  10  11
ATOM     11  C   UNL     1       5.407   3.823  13.488  0.00  0.00    +0.000 C 
BRANCH  11  12
ATOM     12  C   UNL     1       6.226   3.392  12.275  0.00  0.00    +0.000 C 
BRANCH  12  13
ATOM     13  O   UNL     1       5.960   2.046  11.904  0.00  0.00    +0.000 OA
ATOM     14  H   UNL     1       5.972   1.994  10.926  0.00  0.00    +0.000 HD
ENDBRANCH  12  13
ENDBRANCH  11  12
ENDBRANCH  10  11
ENDBRANCH   6  10
BRANCH   7  15
ATOM     15  S   UNL     1       3.530   3.607  16.796  0.00  0.00    +0.000 S 
BRANCH  15  16
ATOM     16  C   UNL     1       3.084   3.238  18.485  0.00  0.00    +0.000 A 
ATOM     17  C   UNL     1       3.946   2.616  19.401  0.00  0.00    +0.000 A 
ATOM     18  C   UNL     1       3.498   2.307  20.687  0.00  0.00    +0.000 A 
ATOM     19  C   UNL     1       2.212   2.651  21.098  0.00  0.00    +0.000 A 
ATOM     20  C   UNL     1       1.369   3.330  20.225  0.00  0.00    +0.000 A 
ATOM     21  C   UNL     1       1.806   3.627  18.929  0.00  0.00    +0.000 A 
ENDBRANCH  15  16
ENDBRANCH   7  15
BRANCH   8  22
ATOM     22  C   UNL     1       4.452   5.589  19.084  0.00  0.00    +0.000 C 
BRANCH  22  23
ATOM     23  C   UNL     1       3.495   6.743  18.892  0.00  0.00    +0.000 A 
ATOM     24  C   UNL     1       3.468   7.479  17.700  0.00  0.00    +0.000 A 
ATOM     25  C   UNL     1       2.561   8.526  17.527  0.00  0.00    +0.000 A 
ATOM     26  C   UNL     1       1.656   8.839  18.536  0.00  0.00    +0.000 A 
ATOM     27  C   UNL     1       1.642   8.090  19.710  0.00  0.00    +0.000 A 
ATOM     28  C   UNL     1       2.554   7.048  19.886  0.00  0.00    +0.000 A 
ENDBRANCH  22  23
ENDBRANCH   8  22
TORSDOF 8
ENDMDL
MODEL 7
REMARK VINA RESULT:      -6.9      1.606      4.261
REMARK  Name = 
REMARK  8 active torsions:
REMARK  status: ('A' for Active; 'I' for Inactive)
REMARK    1  A    between atoms: N_6  and  O_7
REMARK    2  A    between atoms: O_7  and  C_8
REMARK    3  A    between atoms: C_8  and  C_9
REMARK    4  A    between atoms: C_9  and  O_10
REMARK    5  A    between atoms: C_11  and  S_12
REMARK    6  A    between atoms: S_12  and  C_13
REMARK    7  A    between atoms: C_19  and  C_20
REMARK    8  A    between atoms: C_20  and  C_21
REMARK                            x       y       z     vdW  Elec       q    Type
REMARK                         _______ _______ _______ _____ _____    ______ ____
ROOT
ATOM      1  O   UNL     1       6.844   5.812  19.813  0.00  0.00    +0.000 OA
ATOM      2  C   UNL     1       6.444   5.516  18.695  0.00  0.00    +0.000 A 
ATOM      3  N   UNL     1       7.263   5.644  17.617  0.00  0.00    +0.000 N 
ATOM      4  C   UNL     1       7.078   4.945  16.449  0.00  0.00    +0.000 A 
ATOM      5  O   UNL     1       8.009   4.841  15.641  0.00  0.00    +0.000 OA
ATOM      6  N   UNL     1       5.813   4.401  16.283  0.00  0.00    +0.000 N 
ATOM      7  C   UNL     1       4.824   4.411  17.252  0.00  0.00    +0.000 A 
ATOM      8  C   UNL     1       5.062   5.029  18.434  0.00  0.00    +0.000 A 
ATOM      9  H   UNL     1       8.205   5.959  17.800  0.00  0.00    +0.000 HD
ENDROOT
BRANCH   6  10
ATOM     10  O   UNL     1       5.767   3.449  15.228  0.00  0.00    +0.000 OA
BRANCH  10  11
ATOM     11  C   UNL     1       5.504   4.017  13.935  0.00  0.00    +0.000 C 
BRANCH  11  12
ATOM     12  C   UNL     1       6.064   3.299  12.712  0.00  0.00    +0.000 C 
BRANCH  12  13
ATOM     13  O   UNL     1       5.060   3.042  11.739  0.00  0.00    +0.000 OA
ATOM     14  H   UNL     1       4.420   2.411  12.127  0.00  0.00    +0.000 HD
ENDBRANCH  12  13
ENDBRANCH  11  12
ENDBRANCH  10  11
ENDBRANCH   6  10
BRANCH   7  15
ATOM     15  S   UNL     1       3.180   3.900  16.873  0.00  0.00    +0.000 S 
BRANCH  15  16
ATOM     16  C   UNL     1       2.436   3.364  18.404  0.00  0.00    +0.000 A 
ATOM     17  C   UNL     1       1.202   3.837  18.879  0.00  0.00    +0.000 A 
ATOM     18  C   UNL     1       0.719   3.412  20.118  0.00  0.00    +0.000 A 
ATOM     19  C   UNL     1       1.423   2.481  20.880  0.00  0.00    +0.000 A 
ATOM     20  C   UNL     1       2.612   1.950  20.391  0.00  0.00    +0.000 A 
ATOM     21  C   UNL     1       3.111   2.385  19.158  0.00  0.00    +0.000 A 
ENDBRANCH  15  16
ENDBRANCH   7  15
BRANCH   8  22
ATOM     22  C   UNL     1       4.059   5.440  19.492  0.00  0.00    +0.000 C 
BRANCH  22  23
ATOM     23  C   UNL     1       3.234   6.674  19.205  0.00  0.00    +0.000 A 
ATOM     24  C   UNL     1       3.333   7.350  17.982  0.00  0.00    +0.000 A 
ATOM     25  C   UNL     1       2.546   8.473  17.721  0.00  0.00    +0.000 A 
ATOM     26  C   UNL     1       1.636   8.925  18.672  0.00  0.00    +0.000 A 
ATOM     27  C   UNL     1       1.497   8.239  19.877  0.00  0.00    +0.000 A 
ATOM     28  C   UNL     1       2.289   7.121  20.141  0.00  0.00    +0.000 A 
ENDBRANCH  22  23
ENDBRANCH   8  22
TORSDOF 8
ENDMDL
MODEL 8
REMARK VINA RESULT:      -6.8      2.370      4.805
REMARK  Name = 
REMARK  8 active torsions:
REMARK  status: ('A' for Active; 'I' for Inactive)
REMARK    1  A    between atoms: N_6  and  O_7
REMARK    2  A    between atoms: O_7  and  C_8
REMARK    3  A    between atoms: C_8  and  C_9
REMARK    4  A    between atoms: C_9  and  O_10
REMARK    5  A    between atoms: C_11  and  S_12
REMARK    6  A    between atoms: S_12  and  C_13
REMARK    7  A    between atoms: C_19  and  C_20
REMARK    8  A    between atoms: C_20  and  C_21
REMARK                            x       y       z     vdW  Elec       q    Type
REMARK                         _______ _______ _______ _____ _____    ______ ____
ROOT
ATOM      1  O   UNL     1       6.876   4.827  19.293  0.00  0.00    +0.000 OA
ATOM      2  C   UNL     1       5.673   4.607  19.255  0.00  0.00    +0.000 A 
ATOM      3  N   UNL     1       5.161   3.489  19.835  0.00  0.00    +0.000 N 
ATOM      4  C   UNL     1       3.849   3.384  20.228  0.00  0.00    +0.000 A 
ATOM      5  O   UNL     1       3.517   2.504  21.032  0.00  0.00    +0.000 OA
ATOM      6  N   UNL     1       2.988   4.313  19.663  0.00  0.00    +0.000 N 
ATOM      7  C   UNL     1       3.394   5.374  18.871  0.00  0.00    +0.000 A 
ATOM      8  C   UNL     1       4.709   5.510  18.570  0.00  0.00    +0.000 A 
ATOM      9  H   UNL     1       5.816   2.887  20.313  0.00  0.00    +0.000 HD
ENDROOT
BRANCH   6  10
ATOM     10  O   UNL     1       1.730   4.357  20.323  0.00  0.00    +0.000 OA
BRANCH  10  11
ATOM     11  C   UNL     1       0.780   3.395  19.840  0.00  0.00    +0.000 C 
BRANCH  11  12
ATOM     12  C   UNL     1       1.085   2.688  18.524  0.00  0.00    +0.000 C 
BRANCH  12  13
ATOM     13  O   UNL     1       1.628   1.390  18.729  0.00  0.00    +0.000 OA
ATOM     14  H   UNL     1       2.207   1.181  17.968  0.00  0.00    +0.000 HD
ENDBRANCH  12  13
ENDBRANCH  11  12
ENDBRANCH  10  11
ENDBRANCH   6  10
BRANCH   7  15
ATOM     15  S   UNL     1       2.216   6.367  18.014  0.00  0.00    +0.000 S 
BRANCH  15  16
ATOM     16  C   UNL     1       1.768   7.704  19.109  0.00  0.00    +0.000 A 
ATOM     17  C   UNL     1       1.458   9.001  18.669  0.00  0.00    +0.000 A 
ATOM     18  C   UNL     1       1.178  10.007  19.596  0.00  0.00    +0.000 A 
ATOM     19  C   UNL     1       1.152   9.734  20.962  0.00  0.00    +0.000 A 
ATOM     20  C   UNL     1       1.388   8.438  21.409  0.00  0.00    +0.000 A 
ATOM     21  C   UNL     1       1.688   7.430  20.487  0.00  0.00    +0.000 A 
ENDBRANCH  15  16
ENDBRANCH   7  15
BRANCH   8  22
ATOM     22  C   UNL     1       5.337   6.373  17.495  0.00  0.00    +0.000 C 
BRANCH  22  23
ATOM     23  C   UNL     1       5.775   5.671  16.230  0.00  0.00    +0.000 A 
ATOM     24  C   UNL     1       7.102   5.728  15.785  0.00  0.00    +0.000 A 
ATOM     25  C   UNL     1       7.497   5.053  14.628  0.00  0.00    +0.000 A 
ATOM     26  C   UNL     1       6.575   4.297  13.911  0.00  0.00    +0.000 A 
ATOM     27  C   UNL     1       5.261   4.197  14.364  0.00  0.00    +0.000 A 
ATOM     28  C   UNL     1       4.864   4.877  15.516  0.00  0.00    +0.000 A 
ENDBRANCH  22  23
ENDBRANCH   8  22
TORSDOF 8
ENDMDL
MODEL 9
REMARK VINA RESULT:      -6.7      2.289      5.334
REMARK  Name = 
REMARK  8 active torsions:
REMARK  status: ('A' for Active; 'I' for Inactive)
REMARK    1  A    between atoms: N_6  and  O_7
REMARK    2  A    between atoms: O_7  and  C_8
REMARK    3  A    between atoms: C_8  and  C_9
REMARK    4  A    between atoms: C_9  and  O_10
REMARK    5  A    between atoms: C_11  and  S_12
REMARK    6  A    between atoms: S_12  and  C_13
REMARK    7  A    between atoms: C_19  and  C_20
REMARK    8  A    between atoms: C_20  and  C_21
REMARK                            x       y       z     vdW  Elec       q    Type
REMARK                         _______ _______ _______ _____ _____    ______ ____
ROOT
ATOM      1  O   UNL     1       7.165   7.849  16.772  0.00  0.00    +0.000 OA
ATOM      2  C   UNL     1       6.837   6.788  17.286  0.00  0.00    +0.000 A 
ATOM      3  N   UNL     1       7.560   6.270  18.314  0.00  0.00    +0.000 N 
ATOM      4  C   UNL     1       7.044   5.370  19.214  0.00  0.00    +0.000 A 
ATOM      5  O   UNL     1       7.615   5.188  20.297  0.00  0.00    +0.000 OA
ATOM      6  N   UNL     1       5.885   4.727  18.805  0.00  0.00    +0.000 N 
ATOM      7  C   UNL     1       5.184   5.038  17.652  0.00  0.00    +0.000 A 
ATOM      8  C   UNL     1       5.666   5.995  16.822  0.00  0.00    +0.000 A 
ATOM      9  H   UNL     1       8.344   6.819  18.636  0.00  0.00    +0.000 HD
ENDROOT
BRANCH   6  10
ATOM     10  O   UNL     1       5.235   4.052  19.874  0.00  0.00    +0.000 OA
BRANCH  10  11
ATOM     11  C   UNL     1       5.262   2.620  19.766  0.00  0.00    +0.000 C 
BRANCH  11  12
ATOM     12  C   UNL     1       4.604   1.807  20.876  0.00  0.00    +0.000 C 
BRANCH  12  13
ATOM     13  O   UNL     1       5.562   1.155  21.698  0.00  0.00    +0.000 OA
ATOM     14  H   UNL     1       6.265   1.801  21.913  0.00  0.00    +0.000 HD
ENDBRANCH  12  13
ENDBRANCH  11  12
ENDBRANCH  10  11
ENDBRANCH   6  10
BRANCH   7  15
ATOM     15  S   UNL     1       3.855   4.020  17.099  0.00  0.00    +0.000 S 
BRANCH  15  16
ATOM     16  C   UNL     1       2.609   4.053  18.377  0.00  0.00    +0.000 A 
ATOM     17  C   UNL     1       2.359   5.167  19.194  0.00  0.00    +0.000 A 
ATOM     18  C   UNL     1       1.407   5.090  20.212  0.00  0.00    +0.000 A 
ATOM     19  C   UNL     1       0.658   3.931  20.405  0.00  0.00    +0.000 A 
ATOM     20  C   UNL     1       0.844   2.843  19.559  0.00  0.00    +0.000 A 
ATOM     21  C   UNL     1       1.809   2.907  18.548  0.00  0.00    +0.000 A 
ENDBRANCH  15  16
ENDBRANCH   7  15
BRANCH   8  22
ATOM     22  C   UNL     1       5.265   6.277  15.389  0.00  0.00    +0.000 C 
BRANCH  22  23
ATOM     23  C   UNL     1       5.881   5.398  14.325  0.00  0.00    +0.000 A 
ATOM     24  C   UNL     1       7.215   5.555  13.929  0.00  0.00    +0.000 A 
ATOM     25  C   UNL     1       7.778   4.718  12.963  0.00  0.00    +0.000 A 
ATOM     26  C   UNL     1       7.018   3.701  12.394  0.00  0.00    +0.000 A 
ATOM     27  C   UNL     1       5.703   3.505  12.806  0.00  0.00    +0.000 A 
ATOM     28  C   UNL     1       5.138   4.346  13.767  0.00  0.00    +0.000 A 
ENDBRANCH  22  23
ENDBRANCH   8  22
TORSDOF 8
ENDMDL
