MODEL 1
REMARK VINA RESULT:      -8.5      0.000      0.000
REMARK  Name = 
REMARK  7 active torsions:
REMARK  status: ('A' for Active; 'I' for Inactive)
REMARK    1  A    between atoms: C_1  and  O_2
REMARK    2  A    between atoms: O_2  and  C_3
REMARK    3  A    between atoms: C_9  and  C_10
REMARK    4  A    between atoms: C_10  and  C_11
REMARK    5  A    between atoms: C_11  and  C_12
REMARK    6  A    between atoms: CA_13  and  C_14
REMARK    7  A    between atoms: C_14  and  OXT_16
REMARK                            x       y       z     vdW  Elec       q    Type
REMARK                         _______ _______ _______ _____ _____    ______ ____
ROOT
ATOM      1  C   UNL     1       2.823   5.729  18.201  0.00  0.00    +0.000 C 
ENDROOT
BRANCH   1   2
ATOM      2  C   UNL     1       4.186   5.176  17.880  0.00  0.00    +0.000 A 
ATOM      3  CA  UNL     1       4.781   4.057  18.340  0.00  0.00    +0.000 A 
ATOM      4  N   UNL     1       6.114   3.828  18.059  0.00  0.00    +0.000 N 
ATOM      5  C   UNL     1       6.931   4.671  17.376  0.00  0.00    +0.000 A 
ATOM      6  O   UNL     1       8.121   4.442  17.213  0.00  0.00    +0.000 OA
ATOM      7  N   UNL     1       6.331   5.785  16.883  0.00  0.00    +0.000 N 
ATOM      8  C   UNL     1       5.011   6.085  17.015  0.00  0.00    +0.000 A 
ATOM      9  O   UNL     1       4.521   7.062  16.461  0.00  0.00    +0.000 OA
ATOM     10  H   UNL     1       6.552   3.007  18.475  0.00  0.00    +0.000 HD
ATOM     11  H   UNL     1       6.905   6.414  16.339  0.00  0.00    +0.000 HD
BRANCH   3  12
ATOM     12  C   UNL     1       4.206   2.994  19.229  0.00  0.00    +0.000 C 
ATOM     13  O   UNL     1       2.989   2.868  19.326  0.00  0.00    +0.000 OA
BRANCH  12  14
ATOM     14  OXT UNL     1       5.043   2.249  19.964  0.00  0.00    +0.000 OA
ATOM     15  HXT UNL     1       5.170   2.489  20.893  0.00  0.00    +0.000 HD
ENDBRANCH  12  14
ENDBRANCH   3  12
ENDBRANCH   1   2
BRANCH   1  16
ATOM     16  C   UNL     1       2.765   6.449  19.558  0.00  0.00    +0.000 C 
BRANCH  16  23
ATOM     17  C   UNL     1      -0.438  11.289  21.900  0.00  0.00    +0.000 A 
ATOM     18  C   UNL     1      -0.546  12.001  20.708  0.00  0.00    +0.000 A 
ATOM     19  C   UNL     1       0.008  11.490  19.530  0.00  0.00    +0.000 A 
ATOM     20  C   UNL     1       0.673  10.254  19.526  0.00  0.00    +0.000 A 
ATOM     21  C   UNL     1       1.259   9.731  18.364  0.00  0.00    +0.000 A 
ATOM     22  C   UNL     1       1.919   8.500  18.391  0.00  0.00    +0.000 A 
ATOM     23  C   UNL     1       2.001   7.755  19.575  0.00  0.00    +0.000 A 
ATOM     24  C   UNL     1       1.416   8.282  20.735  0.00  0.00    +0.000 A 
ATOM     25  C   UNL     1       0.762   9.523  20.726  0.00  0.00    +0.000 A 
ATOM     26  C   UNL     1       0.207  10.052  21.901  0.00  0.00    +0.000 A 
BRANCH  17  28
ATOM     27  C   UNL     1      -1.348  13.030  23.231  0.00  0.00    +0.000 C 
ATOM     28  O   UNL     1      -0.914  11.681  23.121  0.00  0.00    +0.000 OA
ENDBRANCH  17  28
ENDBRANCH  16  23
ENDBRANCH   1  16
TORSDOF 6
ENDMDL
MODEL 2
REMARK VINA RESULT:      -8.5      1.814      2.696
REMARK  Name = 
REMARK  7 active torsions:
REMARK  status: ('A' for Active; 'I' for Inactive)
REMARK    1  A    between atoms: C_1  and  O_2
REMARK    2  A    between atoms: O_2  and  C_3
REMARK    3  A    between atoms: C_9  and  C_10
REMARK    4  A    between atoms: C_10  and  C_11
REMARK    5  A    between atoms: C_11  and  C_12
REMARK    6  A    between atoms: CA_13  and  C_14
REMARK    7  A    between atoms: C_14  and  OXT_16
REMARK                            x       y       z     vdW  Elec       q    Type
REMARK                         _______ _______ _______ _____ _____    ______ ____
ROOT
ATOM      1  C   UNL     1       4.670   4.563  19.276  0.00  0.00    +0.000 C 
ENDROOT
BRANCH   1   2
ATOM      2  C   UNL     1       5.621   4.665  18.113  0.00  0.00    +0.000 A 
ATOM      3  CA  UNL     1       6.841   5.237  18.057  0.00  0.00    +0.000 A 
ATOM      4  N   UNL     1       7.471   5.383  16.837  0.00  0.00    +0.000 N 
ATOM      5  C   UNL     1       6.948   5.033  15.633  0.00  0.00    +0.000 A 
ATOM      6  O   UNL     1       7.529   5.245  14.579  0.00  0.00    +0.000 OA
ATOM      7  N   UNL     1       5.733   4.428  15.685  0.00  0.00    +0.000 N 
ATOM      8  C   UNL     1       5.047   4.149  16.825  0.00  0.00    +0.000 A 
ATOM      9  O   UNL     1       3.999   3.515  16.799  0.00  0.00    +0.000 OA
ATOM     10  H   UNL     1       8.363   5.878  16.820  0.00  0.00    +0.000 HD
ATOM     11  H   UNL     1       5.334   4.124  14.808  0.00  0.00    +0.000 HD
BRANCH   3  12
ATOM     12  C   UNL     1       7.635   5.848  19.174  0.00  0.00    +0.000 C 
ATOM     13  O   UNL     1       7.619   5.337  20.290  0.00  0.00    +0.000 OA
BRANCH  12  14
ATOM     14  OXT UNL     1       8.291   6.994  18.944  0.00  0.00    +0.000 OA
ATOM     15  HXT UNL     1       9.231   6.944  18.719  0.00  0.00    +0.000 HD
ENDBRANCH  12  14
ENDBRANCH   3  12
ENDBRANCH   1   2
BRANCH   1  16
ATOM     16  C   UNL     1       3.197   4.725  18.870  0.00  0.00    +0.000 C 
BRANCH  16  23
ATOM     17  C   UNL     1       0.760   9.763  21.671  0.00  0.00    +0.000 A 
ATOM     18  C   UNL     1       0.734  10.577  20.541  0.00  0.00    +0.000 A 
ATOM     19  C   UNL     1       1.187  10.089  19.311  0.00  0.00    +0.000 A 
ATOM     20  C   UNL     1       1.668   8.776  19.192  0.00  0.00    +0.000 A 
ATOM     21  C   UNL     1       2.153   8.271  17.978  0.00  0.00    +0.000 A 
ATOM     22  C   UNL     1       2.631   6.962  17.890  0.00  0.00    +0.000 A 
ATOM     23  C   UNL     1       2.627   6.119  19.010  0.00  0.00    +0.000 A 
ATOM     24  C   UNL     1       2.144   6.629  20.224  0.00  0.00    +0.000 A 
ATOM     25  C   UNL     1       1.674   7.946  20.330  0.00  0.00    +0.000 A 
ATOM     26  C   UNL     1       1.221   8.452  21.558  0.00  0.00    +0.000 A 
BRANCH  17  28
ATOM     27  C   UNL     1      -0.933  10.680  23.059  0.00  0.00    +0.000 C 
ATOM     28  O   UNL     1       0.367  10.119  22.932  0.00  0.00    +0.000 OA
ENDBRANCH  17  28
ENDBRANCH  16  23
ENDBRANCH   1  16
TORSDOF 6
ENDMDL
MODEL 3
REMARK VINA RESULT:      -8.3      1.617      2.435
REMARK  Name = 
REMARK  7 active torsions:
REMARK  status: ('A' for Active; 'I' for Inactive)
REMARK    1  A    between atoms: C_1  and  O_2
REMARK    2  A    between atoms: O_2  and  C_3
REMARK    3  A    between atoms: C_9  and  C_10
REMARK    4  A    between atoms: C_10  and  C_11
REMARK    5  A    between atoms: C_11  and  C_12
REMARK    6  A    between atoms: CA_13  and  C_14
REMARK    7  A    between atoms: C_14  and  OXT_16
REMARK                            x       y       z     vdW  Elec       q    Type
REMARK                         _______ _______ _______ _____ _____    ______ ____
ROOT
ATOM      1  C   UNL     1       2.678   5.470  18.006  0.00  0.00    +0.000 C 
ENDROOT
BRANCH   1   2
ATOM      2  C   UNL     1       3.209   4.197  18.611  0.00  0.00    +0.000 A 
ATOM      3  CA  UNL     1       2.540   3.204  19.230  0.00  0.00    +0.000 A 
ATOM      4  N   UNL     1       3.243   2.208  19.879  0.00  0.00    +0.000 N 
ATOM      5  C   UNL     1       4.595   2.148  19.999  0.00  0.00    +0.000 A 
ATOM      6  O   UNL     1       5.158   1.273  20.640  0.00  0.00    +0.000 OA
ATOM      7  N   UNL     1       5.277   3.128  19.352  0.00  0.00    +0.000 N 
ATOM      8  C   UNL     1       4.709   4.115  18.608  0.00  0.00    +0.000 A 
ATOM      9  O   UNL     1       5.393   4.909  17.975  0.00  0.00    +0.000 OA
ATOM     10  H   UNL     1       2.709   1.507  20.392  0.00  0.00    +0.000 HD
ATOM     11  H   UNL     1       6.285   3.090  19.392  0.00  0.00    +0.000 HD
BRANCH   3  12
ATOM     12  C   UNL     1       1.057   3.044  19.400  0.00  0.00    +0.000 C 
ATOM     13  O   UNL     1       0.408   2.419  18.567  0.00  0.00    +0.000 OA
BRANCH  12  14
ATOM     14  OXT UNL     1       0.459   3.661  20.428  0.00  0.00    +0.000 OA
ATOM     15  HXT UNL     1       0.627   4.607  20.552  0.00  0.00    +0.000 HD
ENDBRANCH  12  14
ENDBRANCH   3  12
ENDBRANCH   1   2
BRANCH   1  16
ATOM     16  C   UNL     1       3.198   6.736  18.706  0.00  0.00    +0.000 C 
BRANCH  16  23
ATOM     17  C   UNL     1      -0.628  10.676  21.708  0.00  0.00    +0.000 A 
ATOM     18  C   UNL     1      -1.033  11.392  20.584  0.00  0.00    +0.000 A 
ATOM     19  C   UNL     1      -0.539  11.057  19.319  0.00  0.00    +0.000 A 
ATOM     20  C   UNL     1       0.365   9.995  19.159  0.00  0.00    +0.000 A 
ATOM     21  C   UNL     1       0.895   9.655  17.907  0.00  0.00    +0.000 A 
ATOM     22  C   UNL     1       1.797   8.597  17.779  0.00  0.00    +0.000 A 
ATOM     23  C   UNL     1       2.185   7.843  18.895  0.00  0.00    +0.000 A 
ATOM     24  C   UNL     1       1.654   8.188  20.146  0.00  0.00    +0.000 A 
ATOM     25  C   UNL     1       0.758   9.257  20.292  0.00  0.00    +0.000 A 
ATOM     26  C   UNL     1       0.258   9.609  21.555  0.00  0.00    +0.000 A 
BRANCH  17  28
ATOM     27  C   UNL     1      -1.613  12.172  23.264  0.00  0.00    +0.000 C 
ATOM     28  O   UNL     1      -1.016  10.910  22.999  0.00  0.00    +0.000 OA
ENDBRANCH  17  28
ENDBRANCH  16  23
ENDBRANCH   1  16
TORSDOF 6
ENDMDL
MODEL 4
REMARK VINA RESULT:      -8.3      1.830      3.051
REMARK  Name = 
REMARK  7 active torsions:
REMARK  status: ('A' for Active; 'I' for Inactive)
REMARK    1  A    between atoms: C_1  and  O_2
REMARK    2  A    between atoms: O_2  and  C_3
REMARK    3  A    between atoms: C_9  and  C_10
REMARK    4  A    between atoms: C_10  and  C_11
REMARK    5  A    between atoms: C_11  and  C_12
REMARK    6  A    between atoms: CA_13  and  C_14
REMARK    7  A    between atoms: C_14  and  OXT_16
REMARK                            x       y       z     vdW  Elec       q    Type
REMARK                         _______ _______ _______ _____ _____    ______ ____
ROOT
ATOM      1  C   UNL     1       5.229   5.319  18.940  0.00  0.00    +0.000 C 
ENDROOT
BRANCH   1   2
ATOM      2  C   UNL     1       5.963   5.210  17.629  0.00  0.00    +0.000 A 
ATOM      3  CA  UNL     1       6.933   6.000  17.127  0.00  0.00    +0.000 A 
ATOM      4  N   UNL     1       7.343   5.830  15.819  0.00  0.00    +0.000 N 
ATOM      5  C   UNL     1       6.818   4.939  14.938  0.00  0.00    +0.000 A 
ATOM      6  O   UNL     1       7.181   4.878  13.773  0.00  0.00    +0.000 OA
ATOM      7  N   UNL     1       5.862   4.119  15.446  0.00  0.00    +0.000 N 
ATOM      8  C   UNL     1       5.430   4.126  16.736  0.00  0.00    +0.000 A 
ATOM      9  O   UNL     1       4.632   3.292  17.145  0.00  0.00    +0.000 OA
ATOM     10  H   UNL     1       8.032   6.484  15.449  0.00  0.00    +0.000 HD
ATOM     11  H   UNL     1       5.477   3.421  14.825  0.00  0.00    +0.000 HD
BRANCH   3  12
ATOM     12  C   UNL     1       7.624   7.158  17.785  0.00  0.00    +0.000 C 
ATOM     13  O   UNL     1       7.619   8.261  17.248  0.00  0.00    +0.000 OA
BRANCH  12  14
ATOM     14  OXT UNL     1       8.305   6.939  18.919  0.00  0.00    +0.000 OA
ATOM     15  HXT UNL     1       9.069   7.504  19.107  0.00  0.00    +0.000 HD
ENDBRANCH  12  14
ENDBRANCH   3  12
ENDBRANCH   1   2
BRANCH   1  16
ATOM     16  C   UNL     1       3.705   5.192  18.793  0.00  0.00    +0.000 C 
BRANCH  16  23
ATOM     17  C   UNL     1       0.169   9.599  21.485  0.00  0.00    +0.000 A 
ATOM     18  C   UNL     1       0.193  10.496  20.418  0.00  0.00    +0.000 A 
ATOM     19  C   UNL     1       0.890  10.180  19.248  0.00  0.00    +0.000 A 
ATOM     20  C   UNL     1       1.570   8.959  19.124  0.00  0.00    +0.000 A 
ATOM     21  C   UNL     1       2.298   8.628  17.973  0.00  0.00    +0.000 A 
ATOM     22  C   UNL     1       2.970   7.408  17.880  0.00  0.00    +0.000 A 
ATOM     23  C   UNL     1       2.923   6.480  18.929  0.00  0.00    +0.000 A 
ATOM     24  C   UNL     1       2.196   6.815  20.080  0.00  0.00    +0.000 A 
ATOM     25  C   UNL     1       1.528   8.042  20.193  0.00  0.00    +0.000 A 
ATOM     26  C   UNL     1       0.829   8.377  21.363  0.00  0.00    +0.000 A 
BRANCH  17  28
ATOM     27  C   UNL     1      -1.003  11.081  22.921  0.00  0.00    +0.000 C 
ATOM     28  O   UNL     1      -0.455   9.791  22.687  0.00  0.00    +0.000 OA
ENDBRANCH  17  28
ENDBRANCH  16  23
ENDBRANCH   1  16
TORSDOF 6
ENDMDL
MODEL 5
REMARK VINA RESULT:      -8.2      1.813      2.635
REMARK  Name = 
REMARK  7 active torsions:
REMARK  status: ('A' for Active; 'I' for Inactive)
REMARK    1  A    between atoms: C_1  and  O_2
REMARK    2  A    between atoms: O_2  and  C_3
REMARK    3  A    between atoms: C_9  and  C_10
REMARK    4  A    between atoms: C_10  and  C_11
REMARK    5  A    between atoms: C_11  and  C_12
REMARK    6  A    between atoms: CA_13  and  C_14
REMARK    7  A    between atoms: C_14  and  OXT_16
REMARK                            x       y       z     vdW  Elec       q    Type
REMARK                         _______ _______ _______ _____ _____    ______ ____
ROOT
ATOM      1  C   UNL     1       2.500   5.249  18.863  0.00  0.00    +0.000 C 
ENDROOT
BRANCH   1   2
ATOM      2  C   UNL     1       3.147   3.982  19.357  0.00  0.00    +0.000 A 
ATOM      3  CA  UNL     1       2.699   3.095  20.268  0.00  0.00    +0.000 A 
ATOM      4  N   UNL     1       3.537   2.092  20.714  0.00  0.00    +0.000 N 
ATOM      5  C   UNL     1       4.833   1.926  20.345  0.00  0.00    +0.000 A 
ATOM      6  O   UNL     1       5.545   1.054  20.823  0.00  0.00    +0.000 OA
ATOM      7  N   UNL     1       5.283   2.797  19.405  0.00  0.00    +0.000 N 
ATOM      8  C   UNL     1       4.536   3.774  18.824  0.00  0.00    +0.000 A 
ATOM      9  O   UNL     1       4.982   4.461  17.913  0.00  0.00    +0.000 OA
ATOM     10  H   UNL     1       3.190   1.476  21.449  0.00  0.00    +0.000 HD
ATOM     11  H   UNL     1       6.233   2.677  19.084  0.00  0.00    +0.000 HD
BRANCH   3  12
ATOM     12  C   UNL     1       1.375   3.074  20.973  0.00  0.00    +0.000 C 
ATOM     13  O   UNL     1       1.324   2.835  22.176  0.00  0.00    +0.000 OA
BRANCH  12  14
ATOM     14  OXT UNL     1       0.259   3.241  20.249  0.00  0.00    +0.000 OA
ATOM     15  HXT UNL     1       0.314   3.112  19.291  0.00  0.00    +0.000 HD
ENDBRANCH  12  14
ENDBRANCH   3  12
ENDBRANCH   1   2
BRANCH   1  16
ATOM     16  C   UNL     1       2.852   6.480  19.714  0.00  0.00    +0.000 C 
BRANCH  16  23
ATOM     17  C   UNL     1      -0.780  11.431  20.930  0.00  0.00    +0.000 A 
ATOM     18  C   UNL     1      -0.816  11.926  19.628  0.00  0.00    +0.000 A 
ATOM     19  C   UNL     1      -0.135  11.261  18.603  0.00  0.00    +0.000 A 
ATOM     20  C   UNL     1       0.587  10.086  18.864  0.00  0.00    +0.000 A 
ATOM     21  C   UNL     1       1.298   9.414  17.860  0.00  0.00    +0.000 A 
ATOM     22  C   UNL     1       2.013   8.250  18.150  0.00  0.00    +0.000 A 
ATOM     23  C   UNL     1       2.026   7.719  19.447  0.00  0.00    +0.000 A 
ATOM     24  C   UNL     1       1.315   8.395  20.449  0.00  0.00    +0.000 A 
ATOM     25  C   UNL     1       0.605   9.573  20.175  0.00  0.00    +0.000 A 
ATOM     26  C   UNL     1      -0.078  10.255  21.194  0.00  0.00    +0.000 A 
BRANCH  17  28
ATOM     27  C   UNL     1      -1.490  11.171  23.179  0.00  0.00    +0.000 C 
ATOM     28  O   UNL     1      -1.381  11.991  22.024  0.00  0.00    +0.000 OA
ENDBRANCH  17  28
ENDBRANCH  16  23
ENDBRANCH   1  16
TORSDOF 6
ENDMDL
MODEL 6
REMARK VINA RESULT:      -8.1      1.953      3.078
REMARK  Name = 
REMARK  7 active torsions:
REMARK  status: ('A' for Active; 'I' for Inactive)
REMARK    1  A    between atoms: C_1  and  O_2
REMARK    2  A    between atoms: O_2  and  C_3
REMARK    3  A    between atoms: C_9  and  C_10
REMARK    4  A    between atoms: C_10  and  C_11
REMARK    5  A    between atoms: C_11  and  C_12
REMARK    6  A    between atoms: CA_13  and  C_14
REMARK    7  A    between atoms: C_14  and  OXT_16
REMARK                            x       y       z     vdW  Elec       q    Type
REMARK                         _______ _______ _______ _____ _____    ______ ____
ROOT
ATOM      1  C   UNL     1       2.761   5.082  17.557  0.00  0.00    +0.000 C 
ENDROOT
BRANCH   1   2
ATOM      2  C   UNL     1       3.254   3.981  18.458  0.00  0.00    +0.000 A 
ATOM      3  CA  UNL     1       2.567   3.231  19.343  0.00  0.00    +0.000 A 
ATOM      4  N   UNL     1       3.250   2.397  20.206  0.00  0.00    +0.000 N 
ATOM      5  C   UNL     1       4.601   2.281  20.286  0.00  0.00    +0.000 A 
ATOM      6  O   UNL     1       5.150   1.570  21.116  0.00  0.00    +0.000 OA
ATOM      7  N   UNL     1       5.298   3.009  19.377  0.00  0.00    +0.000 N 
ATOM      8  C   UNL     1       4.745   3.802  18.420  0.00  0.00    +0.000 A 
ATOM      9  O   UNL     1       5.436   4.354  17.573  0.00  0.00    +0.000 OA
ATOM     10  H   UNL     1       2.707   1.892  20.907  0.00  0.00    +0.000 HD
ATOM     11  H   UNL     1       6.304   2.916  19.388  0.00  0.00    +0.000 HD
BRANCH   3  12
ATOM     12  C   UNL     1       1.090   3.220  19.605  0.00  0.00    +0.000 C 
ATOM     13  O   UNL     1       0.619   3.923  20.495  0.00  0.00    +0.000 OA
BRANCH  12  14
ATOM     14  OXT UNL     1       0.320   2.376  18.904  0.00  0.00    +0.000 OA
ATOM     15  HXT UNL     1       0.696   1.970  18.110  0.00  0.00    +0.000 HD
ENDBRANCH  12  14
ENDBRANCH   3  12
ENDBRANCH   1   2
BRANCH   1  16
ATOM     16  C   UNL     1       3.376   6.452  17.883  0.00  0.00    +0.000 C 
BRANCH  16  23
ATOM     17  C   UNL     1      -0.166  11.340  19.537  0.00  0.00    +0.000 A 
ATOM     18  C   UNL     1      -0.426  10.915  20.839  0.00  0.00    +0.000 A 
ATOM     19  C   UNL     1       0.109   9.711  21.307  0.00  0.00    +0.000 A 
ATOM     20  C   UNL     1       0.918   8.915  20.480  0.00  0.00    +0.000 A 
ATOM     21  C   UNL     1       1.445   7.691  20.916  0.00  0.00    +0.000 A 
ATOM     22  C   UNL     1       2.243   6.917  20.070  0.00  0.00    +0.000 A 
ATOM     23  C   UNL     1       2.544   7.350  18.771  0.00  0.00    +0.000 A 
ATOM     24  C   UNL     1       2.013   8.574  18.339  0.00  0.00    +0.000 A 
ATOM     25  C   UNL     1       1.199   9.354  19.172  0.00  0.00    +0.000 A 
ATOM     26  C   UNL     1       0.650  10.562  18.716  0.00  0.00    +0.000 A 
BRANCH  17  28
ATOM     27  C   UNL     1      -1.676  13.168  19.639  0.00  0.00    +0.000 C 
ATOM     28  O   UNL     1      -0.640  12.481  18.950  0.00  0.00    +0.000 OA
ENDBRANCH  17  28
ENDBRANCH  16  23
ENDBRANCH   1  16
TORSDOF 6
ENDMDL
MODEL 7
REMARK VINA RESULT:      -8.1      1.234      1.287
REMARK  Name = 
REMARK  7 active torsions:
REMARK  status: ('A' for Active; 'I' for Inactive)
REMARK    1  A    between atoms: C_1  and  O_2
REMARK    2  A    between atoms: O_2  and  C_3
REMARK    3  A    between atoms: C_9  and  C_10
REMARK    4  A    between atoms: C_10  and  C_11
REMARK    5  A    between atoms: C_11  and  C_12
REMARK    6  A    between atoms: CA_13  and  C_14
REMARK    7  A    between atoms: C_14  and  OXT_16
REMARK                            x       y       z     vdW  Elec       q    Type
REMARK                         _______ _______ _______ _____ _____    ______ ____
ROOT
ATOM      1  C   UNL     1       4.423   5.553  19.344  0.00  0.00    +0.000 C 
ENDROOT
BRANCH   1   2
ATOM      2  C   UNL     1       4.795   4.989  17.998  0.00  0.00    +0.000 A 
ATOM      3  CA  UNL     1       4.619   3.741  17.519  0.00  0.00    +0.000 A 
ATOM      4  N   UNL     1       5.203   3.383  16.320  0.00  0.00    +0.000 N 
ATOM      5  C   UNL     1       6.003   4.178  15.563  0.00  0.00    +0.000 A 
ATOM      6  O   UNL     1       6.542   3.783  14.540  0.00  0.00    +0.000 OA
ATOM      7  N   UNL     1       6.159   5.446  16.024  0.00  0.00    +0.000 N 
ATOM      8  C   UNL     1       5.571   5.949  17.143  0.00  0.00    +0.000 A 
ATOM      9  O   UNL     1       5.682   7.131  17.444  0.00  0.00    +0.000 OA
ATOM     10  H   UNL     1       5.106   2.414  16.016  0.00  0.00    +0.000 HD
ATOM     11  H   UNL     1       6.719   6.073  15.464  0.00  0.00    +0.000 HD
BRANCH   3  12
ATOM     12  C   UNL     1       3.910   2.587  18.164  0.00  0.00    +0.000 C 
ATOM     13  O   UNL     1       2.785   2.271  17.788  0.00  0.00    +0.000 OA
BRANCH  12  14
ATOM     14  OXT UNL     1       4.497   1.970  19.199  0.00  0.00    +0.000 OA
ATOM     15  HXT UNL     1       4.246   2.244  20.094  0.00  0.00    +0.000 HD
ENDBRANCH  12  14
ENDBRANCH   3  12
ENDBRANCH   1   2
BRANCH   1  16
ATOM     16  C   UNL     1       2.907   5.560  19.600  0.00  0.00    +0.000 C 
BRANCH  16  23
ATOM     17  C   UNL     1       0.003  10.648  21.802  0.00  0.00    +0.000 A 
ATOM     18  C   UNL     1      -0.005  11.359  20.604  0.00  0.00    +0.000 A 
ATOM     19  C   UNL     1       0.551  10.798  19.449  0.00  0.00    +0.000 A 
ATOM     20  C   UNL     1       1.118   9.515  19.475  0.00  0.00    +0.000 A 
ATOM     21  C   UNL     1       1.705   8.940  18.339  0.00  0.00    +0.000 A 
ATOM     22  C   UNL     1       2.266   7.663  18.395  0.00  0.00    +0.000 A 
ATOM     23  C   UNL     1       2.246   6.921  19.584  0.00  0.00    +0.000 A 
ATOM     24  C   UNL     1       1.661   7.500  20.719  0.00  0.00    +0.000 A 
ATOM     25  C   UNL     1       1.106   8.787  20.681  0.00  0.00    +0.000 A 
ATOM     26  C   UNL     1       0.549   9.365  21.832  0.00  0.00    +0.000 A 
BRANCH  17  28
ATOM     27  C   UNL     1      -1.201  12.313  22.990  0.00  0.00    +0.000 C 
ATOM     28  O   UNL     1      -0.487  11.084  23.003  0.00  0.00    +0.000 OA
ENDBRANCH  17  28
ENDBRANCH  16  23
ENDBRANCH   1  16
TORSDOF 6
ENDMDL
MODEL 8
REMARK VINA RESULT:      -8.0      1.753      3.277
REMARK  Name = 
REMARK  7 active torsions:
REMARK  status: ('A' for Active; 'I' for Inactive)
REMARK    1  A    between atoms: C_1  and  O_2
REMARK    2  A    between atoms: O_2  and  C_3
REMARK    3  A    between atoms: C_9  and  C_10
REMARK    4  A    between atoms: C_10  and  C_11
REMARK    5  A    between atoms: C_11  and  C_12
REMARK    6  A    between atoms: CA_13  and  C_14
REMARK    7  A    between atoms: C_14  and  OXT_16
REMARK                            x       y       z     vdW  Elec       q    Type
REMARK                         _______ _______ _______ _____ _____    ______ ____
ROOT
ATOM      1  C   UNL     1       2.365   5.451  18.083  0.00  0.00    +0.000 C 
ENDROOT
BRANCH   1   2
ATOM      2  C   UNL     1       3.294   4.491  18.777  0.00  0.00    +0.000 A 
ATOM      3  CA  UNL     1       4.531   4.090  18.417  0.00  0.00    +0.000 A 
ATOM      4  N   UNL     1       5.139   3.056  19.101  0.00  0.00    +0.000 N 
ATOM      5  C   UNL     1       4.579   2.344  20.113  0.00  0.00    +0.000 A 
ATOM      6  O   UNL     1       5.145   1.397  20.639  0.00  0.00    +0.000 OA
ATOM      7  N   UNL     1       3.347   2.762  20.501  0.00  0.00    +0.000 N 
ATOM      8  C   UNL     1       2.676   3.818  19.969  0.00  0.00    +0.000 A 
ATOM      9  O   UNL     1       1.608   4.195  20.435  0.00  0.00    +0.000 OA
ATOM     10  H   UNL     1       6.046   2.733  18.764  0.00  0.00    +0.000 HD
ATOM     11  H   UNL     1       2.919   2.275  21.277  0.00  0.00    +0.000 HD
BRANCH   3  12
ATOM     12  C   UNL     1       5.368   4.571  17.269  0.00  0.00    +0.000 C 
ATOM     13  O   UNL     1       5.111   4.204  16.126  0.00  0.00    +0.000 OA
BRANCH  12  14
ATOM     14  OXT UNL     1       6.436   5.338  17.530  0.00  0.00    +0.000 OA
ATOM     15  HXT UNL     1       6.657   6.040  16.900  0.00  0.00    +0.000 HD
ENDBRANCH  12  14
ENDBRANCH   3  12
ENDBRANCH   1   2
BRANCH   1  16
ATOM     16  C   UNL     1       2.878   6.901  18.089  0.00  0.00    +0.000 C 
BRANCH  16  23
ATOM     17  C   UNL     1      -0.591  11.890  19.589  0.00  0.00    +0.000 A 
ATOM     18  C   UNL     1      -0.748  11.575  20.937  0.00  0.00    +0.000 A 
ATOM     19  C   UNL     1      -0.165  10.418  21.463  0.00  0.00    +0.000 A 
ATOM     20  C   UNL     1       0.589   9.560  20.648  0.00  0.00    +0.000 A 
ATOM     21  C   UNL     1       1.163   8.381  21.144  0.00  0.00    +0.000 A 
ATOM     22  C   UNL     1       1.904   7.543  20.308  0.00  0.00    +0.000 A 
ATOM     23  C   UNL     1       2.103   7.866  18.959  0.00  0.00    +0.000 A 
ATOM     24  C   UNL     1       1.526   9.045  18.467  0.00  0.00    +0.000 A 
ATOM     25  C   UNL     1       0.767   9.889  19.290  0.00  0.00    +0.000 A 
ATOM     26  C   UNL     1       0.171  11.050  18.777  0.00  0.00    +0.000 A 
BRANCH  17  28
ATOM     27  C   UNL     1      -0.234  14.049  18.671  0.00  0.00    +0.000 C 
ATOM     28  O   UNL     1      -1.122  12.974  18.945  0.00  0.00    +0.000 OA
ENDBRANCH  17  28
ENDBRANCH  16  23
ENDBRANCH   1  16
TORSDOF 6
ENDMDL
MODEL 9
REMARK VINA RESULT:      -8.0      1.539      2.795
REMARK  Name = 
REMARK  7 active torsions:
REMARK  status: ('A' for Active; 'I' for Inactive)
REMARK    1  A    between atoms: C_1  and  O_2
REMARK    2  A    between atoms: O_2  and  C_3
REMARK    3  A    between atoms: C_9  and  C_10
REMARK    4  A    between atoms: C_10  and  C_11
REMARK    5  A    between atoms: C_11  and  C_12
REMARK    6  A    between atoms: CA_13  and  C_14
REMARK    7  A    between atoms: C_14  and  OXT_16
REMARK                            x       y       z     vdW  Elec       q    Type
REMARK                         _______ _______ _______ _____ _____    ______ ____
ROOT
ATOM      1  C   UNL     1       2.428   5.371  18.593  0.00  0.00    +0.000 C 
ENDROOT
BRANCH   1   2
ATOM      2  C   UNL     1       3.371   4.344  19.163  0.00  0.00    +0.000 A 
ATOM      3  CA  UNL     1       4.528   3.874  18.653  0.00  0.00    +0.000 A 
ATOM      4  N   UNL     1       5.147   2.794  19.251  0.00  0.00    +0.000 N 
ATOM      5  C   UNL     1       4.670   2.102  20.318  0.00  0.00    +0.000 A 
ATOM      6  O   UNL     1       5.233   1.114  20.764  0.00  0.00    +0.000 OA
ATOM      7  N   UNL     1       3.521   2.589  20.855  0.00  0.00    +0.000 N 
ATOM      8  C   UNL     1       2.859   3.693  20.416  0.00  0.00    +0.000 A 
ATOM      9  O   UNL     1       1.881   4.128  21.010  0.00  0.00    +0.000 OA
ATOM     10  H   UNL     1       5.985   2.421  18.805  0.00  0.00    +0.000 HD
ATOM     11  H   UNL     1       3.160   2.118  21.672  0.00  0.00    +0.000 HD
BRANCH   3  12
ATOM     12  C   UNL     1       5.250   4.320  17.416  0.00  0.00    +0.000 C 
ATOM     13  O   UNL     1       4.930   3.866  16.322  0.00  0.00    +0.000 OA
BRANCH  12  14
ATOM     14  OXT UNL     1       6.289   5.156  17.546  0.00  0.00    +0.000 OA
ATOM     15  HXT UNL     1       6.177   5.940  18.103  0.00  0.00    +0.000 HD
ENDBRANCH  12  14
ENDBRANCH   3  12
ENDBRANCH   1   2
BRANCH   1  16
ATOM     16  C   UNL     1       3.060   6.766  18.460  0.00  0.00    +0.000 C 
BRANCH  16  23
ATOM     17  C   UNL     1      -0.424  10.712  21.846  0.00  0.00    +0.000 A 
ATOM     18  C   UNL     1      -0.765  11.564  20.797  0.00  0.00    +0.000 A 
ATOM     19  C   UNL     1      -0.299  11.309  19.503  0.00  0.00    +0.000 A 
ATOM     20  C   UNL     1       0.512  10.195  19.238  0.00  0.00    +0.000 A 
ATOM     21  C   UNL     1       1.014   9.932  17.956  0.00  0.00    +0.000 A 
ATOM     22  C   UNL     1       1.824   8.818  17.722  0.00  0.00    +0.000 A 
ATOM     23  C   UNL     1       2.144   7.932  18.760  0.00  0.00    +0.000 A 
ATOM     24  C   UNL     1       1.642   8.200  20.041  0.00  0.00    +0.000 A 
ATOM     25  C   UNL     1       0.839   9.322  20.293  0.00  0.00    +0.000 A 
ATOM     26  C   UNL     1       0.368   9.594  21.587  0.00  0.00    +0.000 A 
BRANCH  17  28
ATOM     27  C   UNL     1      -1.961  11.626  23.406  0.00  0.00    +0.000 C 
ATOM     28  O   UNL     1      -0.794  10.855  23.155  0.00  0.00    +0.000 OA
ENDBRANCH  17  28
ENDBRANCH  16  23
ENDBRANCH   1  16
TORSDOF 6
ENDMDL
