MODEL 1
REMARK VINA RESULT:      -4.7      0.000      0.000
REMARK  Name = 
REMARK  6 active torsions:
REMARK  status: ('A' for Active; 'I' for Inactive)
REMARK    1  A    between atoms: C_1  and  C_2
REMARK    2  A    between atoms: C_2  and  N_3
REMARK    3  A    between atoms: N_3  and  C_4
REMARK    4  A    between atoms: C_4  and  C_5
REMARK    5  A    between atoms: C_6  and  C_8
REMARK    6  A    between atoms: C_8  and  O_10
REMARK                            x       y       z     vdW  Elec       q    Type
REMARK                         _______ _______ _______ _____ _____    ______ ____
ROOT
ATOM      1  N   UNL     1       5.962   4.741  17.207  0.00  0.00    +0.000 N 
ATOM      2  C   UNL     1       7.264   4.795  17.726  0.00  0.00    +0.000 C 
ATOM      3  O   UNL     1       8.228   4.183  17.258  0.00  0.00    +0.000 OA
ENDROOT
BRANCH   1   5
ATOM      4  C   UNL     1       5.776   4.809  14.723  0.00  0.00    +0.000 C 
ATOM      5  C   UNL     1       5.760   3.960  15.984  0.00  0.00    +0.000 C 
ENDBRANCH   1   5
BRANCH   1   6
ATOM      6  C   UNL     1       4.856   5.469  17.842  0.00  0.00    +0.000 C 
ATOM      7  C   UNL     1       3.453   4.903  17.713  0.00  0.00    +0.000 C 
ENDBRANCH   1   6
BRANCH   2   8
ATOM      8  C   UNL     1       7.592   5.692  18.952  0.00  0.00    +0.000 C 
ATOM      9  O   UNL     1       7.470   5.395  20.122  0.00  0.00    +0.000 OA
BRANCH   8  10
ATOM     10  O   UNL     1       8.036   6.897  18.513  0.00  0.00    +0.000 OA
ATOM     11  H   UNL     1       7.593   7.598  19.046  0.00  0.00    +0.000 HD
ENDBRANCH   8  10
ENDBRANCH   2   8
TORSDOF 4
ENDMDL
MODEL 2
REMARK VINA RESULT:      -4.7      0.553      1.156
REMARK  Name = 
REMARK  6 active torsions:
REMARK  status: ('A' for Active; 'I' for Inactive)
REMARK    1  A    between atoms: C_1  and  C_2
REMARK    2  A    between atoms: C_2  and  N_3
REMARK    3  A    between atoms: N_3  and  C_4
REMARK    4  A    between atoms: C_4  and  C_5
REMARK    5  A    between atoms: C_6  and  C_8
REMARK    6  A    between atoms: C_8  and  O_10
REMARK                            x       y       z     vdW  Elec       q    Type
REMARK                         _______ _______ _______ _____ _____    ______ ____
ROOT
ATOM      1  N   UNL     1       6.202   5.019  17.261  0.00  0.00    +0.000 N 
ATOM      2  C   UNL     1       7.449   4.957  17.899  0.00  0.00    +0.000 C 
ATOM      3  O   UNL     1       8.305   4.096  17.676  0.00  0.00    +0.000 OA
ENDROOT
BRANCH   1   5
ATOM      4  C   UNL     1       6.092   4.598  14.807  0.00  0.00    +0.000 C 
ATOM      5  C   UNL     1       5.936   4.034  16.211  0.00  0.00    +0.000 C 
ENDBRANCH   1   5
BRANCH   1   6
ATOM      6  C   UNL     1       5.219   6.054  17.606  0.00  0.00    +0.000 C 
ATOM      7  C   UNL     1       4.025   5.658  18.457  0.00  0.00    +0.000 C 
ENDBRANCH   1   6
BRANCH   2   8
ATOM      8  C   UNL     1       7.862   6.033  18.943  0.00  0.00    +0.000 C 
ATOM      9  O   UNL     1       8.265   7.152  18.708  0.00  0.00    +0.000 OA
BRANCH   8  10
ATOM     10  O   UNL     1       7.713   5.520  20.189  0.00  0.00    +0.000 OA
ATOM     11  H   UNL     1       7.679   6.271  20.826  0.00  0.00    +0.000 HD
ENDBRANCH   8  10
ENDBRANCH   2   8
TORSDOF 4
ENDMDL
MODEL 3
REMARK VINA RESULT:      -4.6      1.162      2.662
REMARK  Name = 
REMARK  6 active torsions:
REMARK  status: ('A' for Active; 'I' for Inactive)
REMARK    1  A    between atoms: C_1  and  C_2
REMARK    2  A    between atoms: C_2  and  N_3
REMARK    3  A    between atoms: N_3  and  C_4
REMARK    4  A    between atoms: C_4  and  C_5
REMARK    5  A    between atoms: C_6  and  C_8
REMARK    6  A    between atoms: C_8  and  O_10
REMARK                            x       y       z     vdW  Elec       q    Type
REMARK                         _______ _______ _______ _____ _____    ______ ____
ROOT
ATOM      1  N   UNL     1       5.065   4.550  17.137  0.00  0.00    +0.000 N 
ATOM      2  C   UNL     1       5.967   4.476  18.209  0.00  0.00    +0.000 C 
ATOM      3  O   UNL     1       5.718   3.948  19.296  0.00  0.00    +0.000 OA
ENDROOT
BRANCH   1   5
ATOM      4  C   UNL     1       2.678   4.831  17.793  0.00  0.00    +0.000 C 
ATOM      5  C   UNL     1       3.769   3.890  17.306  0.00  0.00    +0.000 C 
ENDBRANCH   1   5
BRANCH   1   6
ATOM      6  C   UNL     1       5.422   5.229  15.885  0.00  0.00    +0.000 C 
ATOM      7  C   UNL     1       5.618   4.384  14.638  0.00  0.00    +0.000 C 
ENDBRANCH   1   6
BRANCH   2   8
ATOM      8  C   UNL     1       7.407   5.047  18.075  0.00  0.00    +0.000 C 
ATOM      9  O   UNL     1       7.756   6.189  18.285  0.00  0.00    +0.000 OA
BRANCH   8  10
ATOM     10  O   UNL     1       8.239   4.057  17.665  0.00  0.00    +0.000 OA
ATOM     11  H   UNL     1       8.607   3.617  18.467  0.00  0.00    +0.000 HD
ENDBRANCH   8  10
ENDBRANCH   2   8
TORSDOF 4
ENDMDL
MODEL 4
REMARK VINA RESULT:      -4.6      1.324      1.790
REMARK  Name = 
REMARK  6 active torsions:
REMARK  status: ('A' for Active; 'I' for Inactive)
REMARK    1  A    between atoms: C_1  and  C_2
REMARK    2  A    between atoms: C_2  and  N_3
REMARK    3  A    between atoms: N_3  and  C_4
REMARK    4  A    between atoms: C_4  and  C_5
REMARK    5  A    between atoms: C_6  and  C_8
REMARK    6  A    between atoms: C_8  and  O_10
REMARK                            x       y       z     vdW  Elec       q    Type
REMARK                         _______ _______ _______ _____ _____    ______ ____
ROOT
ATOM      1  N   UNL     1       6.119   5.018  16.401  0.00  0.00    +0.000 N 
ATOM      2  C   UNL     1       6.970   4.590  17.430  0.00  0.00    +0.000 C 
ATOM      3  O   UNL     1       8.130   4.204  17.261  0.00  0.00    +0.000 OA
ENDROOT
BRANCH   1   5
ATOM      4  C   UNL     1       6.160   3.970  14.141  0.00  0.00    +0.000 C 
ATOM      5  C   UNL     1       6.677   5.075  15.049  0.00  0.00    +0.000 C 
ENDBRANCH   1   5
BRANCH   1   6
ATOM      6  C   UNL     1       4.736   5.428  16.677  0.00  0.00    +0.000 C 
ATOM      7  C   UNL     1       4.473   6.879  17.040  0.00  0.00    +0.000 C 
ENDBRANCH   1   6
BRANCH   2   8
ATOM      8  C   UNL     1       6.498   4.609  18.911  0.00  0.00    +0.000 C 
ATOM      9  O   UNL     1       6.771   5.443  19.748  0.00  0.00    +0.000 OA
BRANCH   8  10
ATOM     10  O   UNL     1       5.725   3.519  19.143  0.00  0.00    +0.000 OA
ATOM     11  H   UNL     1       6.308   2.795  19.471  0.00  0.00    +0.000 HD
ENDBRANCH   8  10
ENDBRANCH   2   8
TORSDOF 4
ENDMDL
MODEL 5
REMARK VINA RESULT:      -4.5      2.757      3.502
REMARK  Name = 
REMARK  6 active torsions:
REMARK  status: ('A' for Active; 'I' for Inactive)
REMARK    1  A    between atoms: C_1  and  C_2
REMARK    2  A    between atoms: C_2  and  N_3
REMARK    3  A    between atoms: N_3  and  C_4
REMARK    4  A    between atoms: C_4  and  C_5
REMARK    5  A    between atoms: C_6  and  C_8
REMARK    6  A    between atoms: C_8  and  O_10
REMARK                            x       y       z     vdW  Elec       q    Type
REMARK                         _______ _______ _______ _____ _____    ______ ____
ROOT
ATOM      1  N   UNL     1       4.145   4.118  17.765  0.00  0.00    +0.000 N 
ATOM      2  C   UNL     1       4.856   3.748  18.916  0.00  0.00    +0.000 C 
ATOM      3  O   UNL     1       5.934   4.241  19.260  0.00  0.00    +0.000 OA
ENDROOT
BRANCH   1   5
ATOM      4  C   UNL     1       5.347   4.744  15.674  0.00  0.00    +0.000 C 
ATOM      5  C   UNL     1       4.693   5.215  16.963  0.00  0.00    +0.000 C 
ENDBRANCH   1   5
BRANCH   1   6
ATOM      6  C   UNL     1       2.885   3.459  17.401  0.00  0.00    +0.000 C 
ATOM      7  C   UNL     1       1.582   4.174  17.711  0.00  0.00    +0.000 C 
ENDBRANCH   1   6
BRANCH   2   8
ATOM      8  C   UNL     1       4.290   2.674  19.887  0.00  0.00    +0.000 C 
ATOM      9  O   UNL     1       3.319   2.787  20.606  0.00  0.00    +0.000 OA
BRANCH   8  10
ATOM     10  O   UNL     1       5.068   1.565  19.824  0.00  0.00    +0.000 OA
ATOM     11  H   UNL     1       5.018   1.210  18.905  0.00  0.00    +0.000 HD
ENDBRANCH   8  10
ENDBRANCH   2   8
TORSDOF 4
ENDMDL
MODEL 6
REMARK VINA RESULT:      -4.5      1.788      2.785
REMARK  Name = 
REMARK  6 active torsions:
REMARK  status: ('A' for Active; 'I' for Inactive)
REMARK    1  A    between atoms: C_1  and  C_2
REMARK    2  A    between atoms: C_2  and  N_3
REMARK    3  A    between atoms: N_3  and  C_4
REMARK    4  A    between atoms: C_4  and  C_5
REMARK    5  A    between atoms: C_6  and  C_8
REMARK    6  A    between atoms: C_8  and  O_10
REMARK                            x       y       z     vdW  Elec       q    Type
REMARK                         _______ _______ _______ _____ _____    ______ ____
ROOT
ATOM      1  N   UNL     1       4.876   4.239  17.530  0.00  0.00    +0.000 N 
ATOM      2  C   UNL     1       5.864   4.204  16.535  0.00  0.00    +0.000 C 
ATOM      3  O   UNL     1       5.748   3.616  15.456  0.00  0.00    +0.000 OA
ENDROOT
BRANCH   1   5
ATOM      4  C   UNL     1       3.458   2.218  17.868  0.00  0.00    +0.000 C 
ATOM      5  C   UNL     1       3.598   3.590  17.228  0.00  0.00    +0.000 C 
ENDBRANCH   1   5
BRANCH   1   6
ATOM      6  C   UNL     1       5.102   4.929  18.806  0.00  0.00    +0.000 C 
ATOM      7  C   UNL     1       3.904   5.522  19.526  0.00  0.00    +0.000 C 
ENDBRANCH   1   6
BRANCH   2   8
ATOM      8  C   UNL     1       7.207   4.964  16.723  0.00  0.00    +0.000 C 
ATOM      9  O   UNL     1       7.444   6.108  16.397  0.00  0.00    +0.000 OA
BRANCH   8  10
ATOM     10  O   UNL     1       8.107   4.135  17.309  0.00  0.00    +0.000 OA
ATOM     11  H   UNL     1       8.107   4.321  18.277  0.00  0.00    +0.000 HD
ENDBRANCH   8  10
ENDBRANCH   2   8
TORSDOF 4
ENDMDL
MODEL 7
REMARK VINA RESULT:      -4.5      4.447      5.692
REMARK  Name = 
REMARK  6 active torsions:
REMARK  status: ('A' for Active; 'I' for Inactive)
REMARK    1  A    between atoms: C_1  and  C_2
REMARK    2  A    between atoms: C_2  and  N_3
REMARK    3  A    between atoms: N_3  and  C_4
REMARK    4  A    between atoms: C_4  and  C_5
REMARK    5  A    between atoms: C_6  and  C_8
REMARK    6  A    between atoms: C_8  and  O_10
REMARK                            x       y       z     vdW  Elec       q    Type
REMARK                         _______ _______ _______ _____ _____    ______ ____
ROOT
ATOM      1  N   UNL     1       3.465   3.967  19.808  0.00  0.00    +0.000 N 
ATOM      2  C   UNL     1       2.337   4.282  20.579  0.00  0.00    +0.000 C 
ATOM      3  O   UNL     1       1.972   5.430  20.846  0.00  0.00    +0.000 OA
ENDROOT
BRANCH   1   5
ATOM      4  C   UNL     1       3.707   5.490  17.851  0.00  0.00    +0.000 C 
ATOM      5  C   UNL     1       4.213   5.084  19.227  0.00  0.00    +0.000 C 
ENDBRANCH   1   5
BRANCH   1   6
ATOM      6  C   UNL     1       3.858   2.573  19.565  0.00  0.00    +0.000 C 
ATOM      7  C   UNL     1       3.313   1.876  18.331  0.00  0.00    +0.000 C 
ENDBRANCH   1   6
BRANCH   2   8
ATOM      8  C   UNL     1       1.419   3.158  21.138  0.00  0.00    +0.000 C 
ATOM      9  O   UNL     1       1.584   2.530  22.162  0.00  0.00    +0.000 OA
BRANCH   8  10
ATOM     10  O   UNL     1       0.383   2.967  20.284  0.00  0.00    +0.000 OA
ATOM     11  H   UNL     1       0.420   3.674  19.597  0.00  0.00    +0.000 HD
ENDBRANCH   8  10
ENDBRANCH   2   8
TORSDOF 4
ENDMDL
MODEL 8
REMARK VINA RESULT:      -4.5      3.043      4.321
REMARK  Name = 
REMARK  6 active torsions:
REMARK  status: ('A' for Active; 'I' for Inactive)
REMARK    1  A    between atoms: C_1  and  C_2
REMARK    2  A    between atoms: C_2  and  N_3
REMARK    3  A    between atoms: N_3  and  C_4
REMARK    4  A    between atoms: C_4  and  C_5
REMARK    5  A    between atoms: C_6  and  C_8
REMARK    6  A    between atoms: C_8  and  O_10
REMARK                            x       y       z     vdW  Elec       q    Type
REMARK                         _______ _______ _______ _____ _____    ______ ____
ROOT
ATOM      1  N   UNL     1       2.999   3.462  19.468  0.00  0.00    +0.000 N 
ATOM      2  C   UNL     1       4.378   3.252  19.611  0.00  0.00    +0.000 C 
ATOM      3  O   UNL     1       4.881   2.269  20.163  0.00  0.00    +0.000 OA
ENDROOT
BRANCH   1   5
ATOM      4  C   UNL     1       1.490   2.709  21.303  0.00  0.00    +0.000 C 
ATOM      5  C   UNL     1       2.107   2.404  19.947  0.00  0.00    +0.000 C 
ENDBRANCH   1   5
BRANCH   1   6
ATOM      6  C   UNL     1       2.474   4.676  18.830  0.00  0.00    +0.000 C 
ATOM      7  C   UNL     1       1.509   4.519  17.667  0.00  0.00    +0.000 C 
ENDBRANCH   1   6
BRANCH   2   8
ATOM      8  C   UNL     1       5.400   4.267  19.027  0.00  0.00    +0.000 C 
ATOM      9  O   UNL     1       5.772   5.299  19.544  0.00  0.00    +0.000 OA
BRANCH   8  10
ATOM     10  O   UNL     1       5.818   3.826  17.814  0.00  0.00    +0.000 OA
ATOM     11  H   UNL     1       5.215   4.200  17.129  0.00  0.00    +0.000 HD
ENDBRANCH   8  10
ENDBRANCH   2   8
TORSDOF 4
ENDMDL
MODEL 9
REMARK VINA RESULT:      -4.4      1.154      2.669
REMARK  Name = 
REMARK  6 active torsions:
REMARK  status: ('A' for Active; 'I' for Inactive)
REMARK    1  A    between atoms: C_1  and  C_2
REMARK    2  A    between atoms: C_2  and  N_3
REMARK    3  A    between atoms: N_3  and  C_4
REMARK    4  A    between atoms: C_4  and  C_5
REMARK    5  A    between atoms: C_6  and  C_8
REMARK    6  A    between atoms: C_8  and  O_10
REMARK                            x       y       z     vdW  Elec       q    Type
REMARK                         _______ _______ _______ _____ _____    ______ ____
ROOT
ATOM      1  N   UNL     1       4.956   4.695  17.156  0.00  0.00    +0.000 N 
ATOM      2  C   UNL     1       5.928   4.480  18.144  0.00  0.00    +0.000 C 
ATOM      3  O   UNL     1       5.703   3.972  19.245  0.00  0.00    +0.000 OA
ENDROOT
BRANCH   1   5
ATOM      4  C   UNL     1       2.669   5.307  17.932  0.00  0.00    +0.000 C 
ATOM      5  C   UNL     1       3.601   4.214  17.433  0.00  0.00    +0.000 C 
ENDBRANCH   1   5
BRANCH   1   6
ATOM      6  C   UNL     1       5.293   5.341  15.881  0.00  0.00    +0.000 C 
ATOM      7  C   UNL     1       5.585   4.458  14.680  0.00  0.00    +0.000 C 
ENDBRANCH   1   6
BRANCH   2   8
ATOM      8  C   UNL     1       7.415   4.853  17.888  0.00  0.00    +0.000 C 
ATOM      9  O   UNL     1       8.235   4.191  17.287  0.00  0.00    +0.000 OA
BRANCH   8  10
ATOM     10  O   UNL     1       7.676   6.054  18.463  0.00  0.00    +0.000 OA
ATOM     11  H   UNL     1       7.001   6.698  18.143  0.00  0.00    +0.000 HD
ENDBRANCH   8  10
ENDBRANCH   2   8
TORSDOF 4
ENDMDL
