MODEL 1
REMARK VINA RESULT:      -8.2      0.000      0.000
REMARK  Name = 
REMARK  5 active torsions:
REMARK  status: ('A' for Active; 'I' for Inactive)
REMARK    1  A    between atoms: C_1  and  C_2
REMARK    2  A    between atoms: C_2  and  N_3
REMARK    3  A    between atoms: C_2  and  C_27
REMARK    4  A    between atoms: C_8  and  C_9
REMARK    5  A    between atoms: C_10  and  C_11
REMARK                            x       y       z     vdW  Elec       q    Type
REMARK                         _______ _______ _______ _____ _____    ______ ____
ROOT
ATOM      1  C   UNL     1       1.186  13.004  20.039  0.00  0.00    +0.000 A 
ATOM      2  C   UNL     1       0.661  13.474  21.199  0.00  0.00    +0.000 A 
ATOM      3  C   UNL     1       1.491  14.685  21.505  0.00  0.00    +0.000 A 
ATOM      4  O   UNL     1       1.438  15.358  22.527  0.00  0.00    +0.000 OA
ATOM      5  N   UNL     1       2.296  14.918  20.403  0.00  0.00    +0.000 N 
ATOM      6  N   UNL     1       2.285  13.759  19.616  0.00  0.00    +0.000 N 
ATOM      7  C   UNL     1       2.906  13.827  18.301  0.00  0.00    +0.000 C 
ATOM      8  C   UNL     1       4.211  14.643  18.358  0.00  0.00    +0.000 C 
ATOM      9  C   UNL     1       3.991  15.997  19.030  0.00  0.00    +0.000 C 
ATOM     10  C   UNL     1       3.451  15.776  20.433  0.00  0.00    +0.000 C 
ENDROOT
BRANCH   1  16
ATOM     11  N   UNL     1       1.204   8.628  18.008  0.00  0.00    +0.000 N 
ATOM     12  C   UNL     1       0.621   9.844  18.282  0.00  0.00    +0.000 A 
ATOM     13  N   UNL     1      -0.591  10.002  17.732  0.00  0.00    +0.000 NA
ATOM     14  C   UNL     1      -1.248  11.146  17.983  0.00  0.00    +0.000 A 
ATOM     15  C   UNL     1      -0.704  12.179  18.697  0.00  0.00    +0.000 A 
ATOM     16  C   UNL     1       0.562  11.956  19.199  0.00  0.00    +0.000 A 
ATOM     17  N   UNL     1       1.222  10.785  19.028  0.00  0.00    +0.000 NA
ATOM     18  H   UNL     1       1.223   8.497  17.006  0.00  0.00    +0.000 HD
BRANCH  11  20
ATOM     19  C   UNL     1       1.823   7.737  20.171  0.00  0.00    +0.000 C 
ATOM     20  C   UNL     1       2.322   8.106  18.763  0.00  0.00    +0.000 C 
BRANCH  20  21
ATOM     21  C   UNL     1       2.976   6.915  18.093  0.00  0.00    +0.000 A 
ATOM     22  C   UNL     1       2.378   5.650  18.222  0.00  0.00    +0.000 A 
ATOM     23  C   UNL     1       2.972   4.518  17.666  0.00  0.00    +0.000 A 
ATOM     24  C   UNL     1       4.166   4.635  16.960  0.00  0.00    +0.000 A 
ATOM     25  C   UNL     1       4.752   5.887  16.788  0.00  0.00    +0.000 A 
ATOM     26  C   UNL     1       4.160   7.022  17.346  0.00  0.00    +0.000 A 
ENDBRANCH  20  21
ENDBRANCH  11  20
ENDBRANCH   1  16
BRANCH   2  27
ATOM     27  C   UNL     1      -0.503  13.059  21.994  0.00  0.00    +0.000 A 
ATOM     28  C   UNL     1      -1.569  13.936  22.247  0.00  0.00    +0.000 A 
ATOM     29  C   UNL     1      -2.673  13.527  22.997  0.00  0.00    +0.000 A 
ATOM     30  C   UNL     1      -2.733  12.228  23.480  0.00  0.00    +0.000 A 
ATOM     31  F   UNL     1      -3.796  11.833  24.190  0.00  0.00    +0.000 F 
ATOM     32  C   UNL     1      -1.710  11.328  23.221  0.00  0.00    +0.000 A 
ATOM     33  C   UNL     1      -0.595  11.744  22.484  0.00  0.00    +0.000 A 
ENDBRANCH   2  27
TORSDOF 4
ENDMDL
MODEL 2
REMARK VINA RESULT:      -8.1      0.143      1.213
REMARK  Name = 
REMARK  5 active torsions:
REMARK  status: ('A' for Active; 'I' for Inactive)
REMARK    1  A    between atoms: C_1  and  C_2
REMARK    2  A    between atoms: C_2  and  N_3
REMARK    3  A    between atoms: C_2  and  C_27
REMARK    4  A    between atoms: C_8  and  C_9
REMARK    5  A    between atoms: C_10  and  C_11
REMARK                            x       y       z     vdW  Elec       q    Type
REMARK                         _______ _______ _______ _____ _____    ______ ____
ROOT
ATOM      1  C   UNL     1       1.242  12.893  19.994  0.00  0.00    +0.000 A 
ATOM      2  C   UNL     1       0.710  13.357  21.154  0.00  0.00    +0.000 A 
ATOM      3  C   UNL     1       1.532  14.573  21.465  0.00  0.00    +0.000 A 
ATOM      4  O   UNL     1       1.472  15.243  22.488  0.00  0.00    +0.000 OA
ATOM      5  N   UNL     1       2.338  14.813  20.365  0.00  0.00    +0.000 N 
ATOM      6  N   UNL     1       2.337  13.655  19.576  0.00  0.00    +0.000 N 
ATOM      7  C   UNL     1       2.961  13.730  18.263  0.00  0.00    +0.000 C 
ATOM      8  C   UNL     1       4.261  14.554  18.325  0.00  0.00    +0.000 C 
ATOM      9  C   UNL     1       4.031  15.904  19.000  0.00  0.00    +0.000 C 
ATOM     10  C   UNL     1       3.489  15.677  20.401  0.00  0.00    +0.000 C 
ENDROOT
BRANCH   1  16
ATOM     11  N   UNL     1       1.268   8.503  17.994  0.00  0.00    +0.000 N 
ATOM     12  C   UNL     1       0.688   9.724  18.249  0.00  0.00    +0.000 A 
ATOM     13  N   UNL     1      -0.512   9.886  17.676  0.00  0.00    +0.000 NA
ATOM     14  C   UNL     1      -1.167  11.035  17.907  0.00  0.00    +0.000 A 
ATOM     15  C   UNL     1      -0.630  12.070  18.624  0.00  0.00    +0.000 A 
ATOM     16  C   UNL     1       0.626  11.843  19.151  0.00  0.00    +0.000 A 
ATOM     17  N   UNL     1       1.282  10.666  18.999  0.00  0.00    +0.000 NA
ATOM     18  H   UNL     1       1.305   8.364  16.994  0.00  0.00    +0.000 HD
BRANCH  11  20
ATOM     19  C   UNL     1       1.837   7.597  20.165  0.00  0.00    +0.000 C 
ATOM     20  C   UNL     1       2.370   7.979  18.773  0.00  0.00    +0.000 C 
BRANCH  20  21
ATOM     21  C   UNL     1       3.045   6.796  18.109  0.00  0.00    +0.000 A 
ATOM     22  C   UNL     1       4.197   7.017  17.337  0.00  0.00    +0.000 A 
ATOM     23  C   UNL     1       4.822   5.966  16.667  0.00  0.00    +0.000 A 
ATOM     24  C   UNL     1       4.311   4.676  16.768  0.00  0.00    +0.000 A 
ATOM     25  C   UNL     1       3.191   4.432  17.561  0.00  0.00    +0.000 A 
ATOM     26  C   UNL     1       2.563   5.483  18.232  0.00  0.00    +0.000 A 
ENDBRANCH  20  21
ENDBRANCH  11  20
ENDBRANCH   1  16
BRANCH   2  27
ATOM     27  C   UNL     1      -0.453  12.934  21.944  0.00  0.00    +0.000 A 
ATOM     28  C   UNL     1      -0.559  11.632  22.456  0.00  0.00    +0.000 A 
ATOM     29  C   UNL     1      -1.668  11.244  23.212  0.00  0.00    +0.000 A 
ATOM     30  C   UNL     1      -2.669  12.164  23.485  0.00  0.00    +0.000 A 
ATOM     31  F   UNL     1      -3.725  11.795  24.218  0.00  0.00    +0.000 F 
ATOM     32  C   UNL     1      -2.579  13.467  23.020  0.00  0.00    +0.000 A 
ATOM     33  C   UNL     1      -1.477  13.850  22.247  0.00  0.00    +0.000 A 
ENDBRANCH   2  27
TORSDOF 4
ENDMDL
MODEL 3
REMARK VINA RESULT:      -7.8      6.929      9.860
REMARK  Name = 
REMARK  5 active torsions:
REMARK  status: ('A' for Active; 'I' for Inactive)
REMARK    1  A    between atoms: C_1  and  C_2
REMARK    2  A    between atoms: C_2  and  N_3
REMARK    3  A    between atoms: C_2  and  C_27
REMARK    4  A    between atoms: C_8  and  C_9
REMARK    5  A    between atoms: C_10  and  C_11
REMARK                            x       y       z     vdW  Elec       q    Type
REMARK                         _______ _______ _______ _____ _____    ______ ____
ROOT
ATOM      1  C   UNL     1       8.925  15.052  18.160  0.00  0.00    +0.000 A 
ATOM      2  C   UNL     1       9.743  13.968  18.146  0.00  0.00    +0.000 A 
ATOM      3  C   UNL     1      11.104  14.547  17.897  0.00  0.00    +0.000 A 
ATOM      4  O   UNL     1      12.133  13.914  17.694  0.00  0.00    +0.000 OA
ATOM      5  N   UNL     1      10.983  15.924  17.978  0.00  0.00    +0.000 N 
ATOM      6  N   UNL     1       9.620  16.237  17.895  0.00  0.00    +0.000 N 
ATOM      7  C   UNL     1       9.224  17.614  18.152  0.00  0.00    +0.000 C 
ATOM      8  C   UNL     1      10.225  18.595  17.512  0.00  0.00    +0.000 C 
ATOM      9  C   UNL     1      11.661  18.260  17.907  0.00  0.00    +0.000 C 
ATOM     10  C   UNL     1      11.979  16.837  17.479  0.00  0.00    +0.000 C 
ENDROOT
BRANCH   1  16
ATOM     11  N   UNL     1       5.578  14.962  21.632  0.00  0.00    +0.000 N 
ATOM     12  C   UNL     1       5.967  15.015  20.313  0.00  0.00    +0.000 A 
ATOM     13  N   UNL     1       4.946  15.066  19.447  0.00  0.00    +0.000 NA
ATOM     14  C   UNL     1       5.238  15.161  18.140  0.00  0.00    +0.000 A 
ATOM     15  C   UNL     1       6.518  15.122  17.655  0.00  0.00    +0.000 A 
ATOM     16  C   UNL     1       7.514  15.031  18.607  0.00  0.00    +0.000 A 
ATOM     17  N   UNL     1       7.256  15.010  19.937  0.00  0.00    +0.000 NA
ATOM     18  H   UNL     1       4.942  14.185  21.750  0.00  0.00    +0.000 HD
BRANCH  11  20
ATOM     19  C   UNL     1       5.791  16.268  23.658  0.00  0.00    +0.000 C 
ATOM     20  C   UNL     1       6.477  15.251  22.729  0.00  0.00    +0.000 C 
BRANCH  20  21
ATOM     21  C   UNL     1       6.884  14.009  23.495  0.00  0.00    +0.000 A 
ATOM     22  C   UNL     1       6.057  12.875  23.439  0.00  0.00    +0.000 A 
ATOM     23  C   UNL     1       6.366  11.727  24.168  0.00  0.00    +0.000 A 
ATOM     24  C   UNL     1       7.514  11.691  24.955  0.00  0.00    +0.000 A 
ATOM     25  C   UNL     1       8.366  12.793  24.991  0.00  0.00    +0.000 A 
ATOM     26  C   UNL     1       8.058  13.944  24.263  0.00  0.00    +0.000 A 
ENDBRANCH  20  21
ENDBRANCH  11  20
ENDBRANCH   1  16
BRANCH   2  27
ATOM     27  C   UNL     1       9.497  12.545  18.412  0.00  0.00    +0.000 A 
ATOM     28  C   UNL     1       8.691  11.768  17.566  0.00  0.00    +0.000 A 
ATOM     29  C   UNL     1       8.471  10.414  17.826  0.00  0.00    +0.000 A 
ATOM     30  C   UNL     1       9.078   9.817  18.921  0.00  0.00    +0.000 A 
ATOM     31  F   UNL     1       8.875   8.518  19.164  0.00  0.00    +0.000 F 
ATOM     32  C   UNL     1       9.905  10.550  19.759  0.00  0.00    +0.000 A 
ATOM     33  C   UNL     1      10.110  11.911  19.508  0.00  0.00    +0.000 A 
ENDBRANCH   2  27
TORSDOF 4
ENDMDL
MODEL 4
REMARK VINA RESULT:      -7.7      7.271     10.066
REMARK  Name = 
REMARK  5 active torsions:
REMARK  status: ('A' for Active; 'I' for Inactive)
REMARK    1  A    between atoms: C_1  and  C_2
REMARK    2  A    between atoms: C_2  and  N_3
REMARK    3  A    between atoms: C_2  and  C_27
REMARK    4  A    between atoms: C_8  and  C_9
REMARK    5  A    between atoms: C_10  and  C_11
REMARK                            x       y       z     vdW  Elec       q    Type
REMARK                         _______ _______ _______ _____ _____    ______ ____
ROOT
ATOM      1  C   UNL     1       9.137  15.105  18.226  0.00  0.00    +0.000 A 
ATOM      2  C   UNL     1       9.956  14.022  18.227  0.00  0.00    +0.000 A 
ATOM      3  C   UNL     1      11.309  14.594  17.922  0.00  0.00    +0.000 A 
ATOM      4  O   UNL     1      12.333  13.954  17.714  0.00  0.00    +0.000 OA
ATOM      5  N   UNL     1      11.188  15.972  17.959  0.00  0.00    +0.000 N 
ATOM      6  N   UNL     1       9.823  16.281  17.902  0.00  0.00    +0.000 N 
ATOM      7  C   UNL     1       9.431  17.666  18.122  0.00  0.00    +0.000 C 
ATOM      8  C   UNL     1      10.413  18.625  17.422  0.00  0.00    +0.000 C 
ATOM      9  C   UNL     1      11.860  18.305  17.790  0.00  0.00    +0.000 C 
ATOM     10  C   UNL     1      12.169  16.868  17.403  0.00  0.00    +0.000 C 
ENDROOT
BRANCH   1  16
ATOM     11  N   UNL     1       5.883  15.037  21.786  0.00  0.00    +0.000 N 
ATOM     12  C   UNL     1       6.237  15.093  20.457  0.00  0.00    +0.000 A 
ATOM     13  N   UNL     1       5.194  15.159  19.618  0.00  0.00    +0.000 NA
ATOM     14  C   UNL     1       5.453  15.257  18.305  0.00  0.00    +0.000 A 
ATOM     15  C   UNL     1       6.718  15.205  17.786  0.00  0.00    +0.000 A 
ATOM     16  C   UNL     1       7.738  15.099  18.710  0.00  0.00    +0.000 A 
ATOM     17  N   UNL     1       7.516  15.074  20.047  0.00  0.00    +0.000 NA
ATOM     18  H   UNL     1       5.241  14.268  21.918  0.00  0.00    +0.000 HD
BRANCH  11  20
ATOM     19  C   UNL     1       6.163  16.328  23.813  0.00  0.00    +0.000 C 
ATOM     20  C   UNL     1       6.814  15.311  22.859  0.00  0.00    +0.000 C 
BRANCH  20  21
ATOM     21  C   UNL     1       7.231  14.060  23.605  0.00  0.00    +0.000 A 
ATOM     22  C   UNL     1       7.103  14.030  25.004  0.00  0.00    +0.000 A 
ATOM     23  C   UNL     1       7.522  12.920  25.736  0.00  0.00    +0.000 A 
ATOM     24  C   UNL     1       8.064  11.818  25.081  0.00  0.00    +0.000 A 
ATOM     25  C   UNL     1       8.162  11.816  23.691  0.00  0.00    +0.000 A 
ATOM     26  C   UNL     1       7.745  12.927  22.955  0.00  0.00    +0.000 A 
ENDBRANCH  20  21
ENDBRANCH  11  20
ENDBRANCH   1  16
BRANCH   2  27
ATOM     27  C   UNL     1       9.720  12.609  18.548  0.00  0.00    +0.000 A 
ATOM     28  C   UNL     1      10.019  12.083  19.814  0.00  0.00    +0.000 A 
ATOM     29  C   UNL     1       9.783  10.739  20.109  0.00  0.00    +0.000 A 
ATOM     30  C   UNL     1       9.220   9.913  19.148  0.00  0.00    +0.000 A 
ATOM     31  F   UNL     1       8.984   8.628  19.434  0.00  0.00    +0.000 F 
ATOM     32  C   UNL     1       8.884  10.409  17.897  0.00  0.00    +0.000 A 
ATOM     33  C   UNL     1       9.138  11.752  17.596  0.00  0.00    +0.000 A 
ENDBRANCH   2  27
TORSDOF 4
ENDMDL
MODEL 5
REMARK VINA RESULT:      -7.7      3.671      5.920
REMARK  Name = 
REMARK  5 active torsions:
REMARK  status: ('A' for Active; 'I' for Inactive)
REMARK    1  A    between atoms: C_1  and  C_2
REMARK    2  A    between atoms: C_2  and  N_3
REMARK    3  A    between atoms: C_2  and  C_27
REMARK    4  A    between atoms: C_8  and  C_9
REMARK    5  A    between atoms: C_10  and  C_11
REMARK                            x       y       z     vdW  Elec       q    Type
REMARK                         _______ _______ _______ _____ _____    ______ ____
ROOT
ATOM      1  C   UNL     1      -1.171  14.077  20.340  0.00  0.00    +0.000 A 
ATOM      2  C   UNL     1      -2.240  14.611  20.987  0.00  0.00    +0.000 A 
ATOM      3  C   UNL     1      -2.054  16.090  20.828  0.00  0.00    +0.000 A 
ATOM      4  O   UNL     1      -2.732  16.964  21.357  0.00  0.00    +0.000 OA
ATOM      5  N   UNL     1      -1.004  16.278  19.946  0.00  0.00    +0.000 N 
ATOM      6  N   UNL     1      -0.314  15.064  19.842  0.00  0.00    +0.000 N 
ATOM      7  C   UNL     1       0.719  14.957  18.821  0.00  0.00    +0.000 C 
ATOM      8  C   UNL     1       1.540  16.257  18.742  0.00  0.00    +0.000 C 
ATOM      9  C   UNL     1       0.635  17.480  18.607  0.00  0.00    +0.000 C 
ATOM     10  C   UNL     1      -0.313  17.532  19.794  0.00  0.00    +0.000 C 
ENDROOT
BRANCH   1  16
ATOM     11  N   UNL     1      -2.403  10.161  17.807  0.00  0.00    +0.000 N 
ATOM     12  C   UNL     1      -1.640  10.817  18.746  0.00  0.00    +0.000 A 
ATOM     13  N   UNL     1      -0.720  10.043  19.337  0.00  0.00    +0.000 NA
ATOM     14  C   UNL     1       0.094  10.614  20.238  0.00  0.00    +0.000 A 
ATOM     15  C   UNL     1      -0.028  11.918  20.636  0.00  0.00    +0.000 A 
ATOM     16  C   UNL     1      -1.023  12.642  20.009  0.00  0.00    +0.000 A 
ATOM     17  N   UNL     1      -1.813  12.115  19.042  0.00  0.00    +0.000 NA
ATOM     18  H   UNL     1      -2.815   9.346  18.239  0.00  0.00    +0.000 HD
BRANCH  11  20
ATOM     19  C   UNL     1      -3.231   9.995  15.540  0.00  0.00    +0.000 C 
ATOM     20  C   UNL     1      -3.196  10.855  16.815  0.00  0.00    +0.000 C 
BRANCH  20  21
ATOM     21  C   UNL     1      -4.598  11.163  17.298  0.00  0.00    +0.000 A 
ATOM     22  C   UNL     1      -5.271  12.274  16.763  0.00  0.00    +0.000 A 
ATOM     23  C   UNL     1      -6.543  12.626  17.215  0.00  0.00    +0.000 A 
ATOM     24  C   UNL     1      -7.166  11.865  18.200  0.00  0.00    +0.000 A 
ATOM     25  C   UNL     1      -6.529  10.738  18.714  0.00  0.00    +0.000 A 
ATOM     26  C   UNL     1      -5.254  10.384  18.264  0.00  0.00    +0.000 A 
ENDBRANCH  20  21
ENDBRANCH  11  20
ENDBRANCH   1  16
BRANCH   2  27
ATOM     27  C   UNL     1      -3.414  13.998  21.622  0.00  0.00    +0.000 A 
ATOM     28  C   UNL     1      -3.469  13.778  23.007  0.00  0.00    +0.000 A 
ATOM     29  C   UNL     1      -4.594  13.201  23.599  0.00  0.00    +0.000 A 
ATOM     30  C   UNL     1      -5.686  12.862  22.814  0.00  0.00    +0.000 A 
ATOM     31  F   UNL     1      -6.768  12.318  23.383  0.00  0.00    +0.000 F 
ATOM     32  C   UNL     1      -5.675  13.094  21.447  0.00  0.00    +0.000 A 
ATOM     33  C   UNL     1      -4.540  13.655  20.852  0.00  0.00    +0.000 A 
ENDBRANCH   2  27
TORSDOF 4
ENDMDL
MODEL 6
REMARK VINA RESULT:      -7.7      2.368      5.320
REMARK  Name = 
REMARK  5 active torsions:
REMARK  status: ('A' for Active; 'I' for Inactive)
REMARK    1  A    between atoms: C_1  and  C_2
REMARK    2  A    between atoms: C_2  and  N_3
REMARK    3  A    between atoms: C_2  and  C_27
REMARK    4  A    between atoms: C_8  and  C_9
REMARK    5  A    between atoms: C_10  and  C_11
REMARK                            x       y       z     vdW  Elec       q    Type
REMARK                         _______ _______ _______ _____ _____    ______ ____
ROOT
ATOM      1  C   UNL     1       0.861  13.055  19.914  0.00  0.00    +0.000 A 
ATOM      2  C   UNL     1       0.248  13.612  20.991  0.00  0.00    +0.000 A 
ATOM      3  C   UNL     1       0.846  14.984  21.075  0.00  0.00    +0.000 A 
ATOM      4  O   UNL     1       0.663  15.798  21.973  0.00  0.00    +0.000 OA
ATOM      5  N   UNL     1       1.609  15.169  19.935  0.00  0.00    +0.000 N 
ATOM      6  N   UNL     1       1.813  13.911  19.352  0.00  0.00    +0.000 N 
ATOM      7  C   UNL     1       2.426  13.868  18.032  0.00  0.00    +0.000 C 
ATOM      8  C   UNL     1       3.565  14.900  17.928  0.00  0.00    +0.000 C 
ATOM      9  C   UNL     1       3.101  16.286  18.370  0.00  0.00    +0.000 C 
ATOM     10  C   UNL     1       2.594  16.210  19.801  0.00  0.00    +0.000 C 
ENDROOT
BRANCH   1  16
ATOM     11  N   UNL     1      -2.390  10.355  17.588  0.00  0.00    +0.000 N 
ATOM     12  C   UNL     1      -1.147  10.563  18.139  0.00  0.00    +0.000 A 
ATOM     13  N   UNL     1      -0.322   9.513  18.032  0.00  0.00    +0.000 NA
ATOM     14  C   UNL     1       0.926   9.645  18.510  0.00  0.00    +0.000 A 
ATOM     15  C   UNL     1       1.359  10.763  19.169  0.00  0.00    +0.000 A 
ATOM     16  C   UNL     1       0.441  11.788  19.272  0.00  0.00    +0.000 A 
ATOM     17  N   UNL     1      -0.802  11.716  18.736  0.00  0.00    +0.000 NA
ATOM     18  H   UNL     1      -2.788   9.519  17.992  0.00  0.00    +0.000 HD
BRANCH  11  20
ATOM     19  C   UNL     1      -3.840  11.216  15.852  0.00  0.00    +0.000 C 
ATOM     20  C   UNL     1      -3.302  11.436  17.276  0.00  0.00    +0.000 C 
BRANCH  20  21
ATOM     21  C   UNL     1      -4.438  11.548  18.272  0.00  0.00    +0.000 A 
ATOM     22  C   UNL     1      -4.248  12.309  19.436  0.00  0.00    +0.000 A 
ATOM     23  C   UNL     1      -5.247  12.398  20.405  0.00  0.00    +0.000 A 
ATOM     24  C   UNL     1      -6.457  11.737  20.217  0.00  0.00    +0.000 A 
ATOM     25  C   UNL     1      -6.678  11.009  19.050  0.00  0.00    +0.000 A 
ATOM     26  C   UNL     1      -5.677  10.917  18.080  0.00  0.00    +0.000 A 
ENDBRANCH  20  21
ENDBRANCH  11  20
ENDBRANCH   1  16
BRANCH   2  27
ATOM     27  C   UNL     1      -0.833  13.136  21.864  0.00  0.00    +0.000 A 
ATOM     28  C   UNL     1      -1.972  13.916  22.115  0.00  0.00    +0.000 A 
ATOM     29  C   UNL     1      -2.995  13.449  22.942  0.00  0.00    +0.000 A 
ATOM     30  C   UNL     1      -2.901  12.185  23.505  0.00  0.00    +0.000 A 
ATOM     31  F   UNL     1      -3.887  11.734  24.289  0.00  0.00    +0.000 F 
ATOM     32  C   UNL     1      -1.803  11.377  23.252  0.00  0.00    +0.000 A 
ATOM     33  C   UNL     1      -0.769  11.853  22.438  0.00  0.00    +0.000 A 
ENDBRANCH   2  27
TORSDOF 4
ENDMDL
MODEL 7
REMARK VINA RESULT:      -7.6      3.589      5.822
REMARK  Name = 
REMARK  5 active torsions:
REMARK  status: ('A' for Active; 'I' for Inactive)
REMARK    1  A    between atoms: C_1  and  C_2
REMARK    2  A    between atoms: C_2  and  N_3
REMARK    3  A    between atoms: C_2  and  C_27
REMARK    4  A    between atoms: C_8  and  C_9
REMARK    5  A    between atoms: C_10  and  C_11
REMARK                            x       y       z     vdW  Elec       q    Type
REMARK                         _______ _______ _______ _____ _____    ______ ____
ROOT
ATOM      1  C   UNL     1      -1.049  14.064  20.300  0.00  0.00    +0.000 A 
ATOM      2  C   UNL     1      -2.130  14.623  20.903  0.00  0.00    +0.000 A 
ATOM      3  C   UNL     1      -1.891  16.098  20.773  0.00  0.00    +0.000 A 
ATOM      4  O   UNL     1      -2.564  16.986  21.281  0.00  0.00    +0.000 OA
ATOM      5  N   UNL     1      -0.795  16.263  19.943  0.00  0.00    +0.000 N 
ATOM      6  N   UNL     1      -0.139  15.028  19.855  0.00  0.00    +0.000 N 
ATOM      7  C   UNL     1       0.937  14.900  18.882  0.00  0.00    +0.000 C 
ATOM      8  C   UNL     1       1.802  16.174  18.859  0.00  0.00    +0.000 C 
ATOM      9  C   UNL     1       0.942  17.427  18.699  0.00  0.00    +0.000 C 
ATOM     10  C   UNL     1      -0.058  17.495  19.840  0.00  0.00    +0.000 C 
ENDROOT
BRANCH   1  16
ATOM     11  N   UNL     1      -2.400  10.182  17.774  0.00  0.00    +0.000 N 
ATOM     12  C   UNL     1      -1.605  10.821  18.698  0.00  0.00    +0.000 A 
ATOM     13  N   UNL     1      -0.683  10.029  19.263  0.00  0.00    +0.000 NA
ATOM     14  C   UNL     1       0.161  10.582  20.148  0.00  0.00    +0.000 A 
ATOM     15  C   UNL     1       0.067  11.885  20.556  0.00  0.00    +0.000 A 
ATOM     16  C   UNL     1      -0.930  12.628  19.957  0.00  0.00    +0.000 A 
ATOM     17  N   UNL     1      -1.751  12.119  19.006  0.00  0.00    +0.000 NA
ATOM     18  H   UNL     1      -2.814   9.370  18.211  0.00  0.00    +0.000 HD
BRANCH  11  20
ATOM     19  C   UNL     1      -3.280  10.044  15.525  0.00  0.00    +0.000 C 
ATOM     20  C   UNL     1      -3.205  10.893  16.805  0.00  0.00    +0.000 C 
BRANCH  20  21
ATOM     21  C   UNL     1      -4.592  11.217  17.322  0.00  0.00    +0.000 A 
ATOM     22  C   UNL     1      -5.182  10.359  18.265  0.00  0.00    +0.000 A 
ATOM     23  C   UNL     1      -6.477  10.589  18.729  0.00  0.00    +0.000 A 
ATOM     24  C   UNL     1      -7.197  11.687  18.267  0.00  0.00    +0.000 A 
ATOM     25  C   UNL     1      -6.612  12.569  17.361  0.00  0.00    +0.000 A 
ATOM     26  C   UNL     1      -5.316  12.341  16.893  0.00  0.00    +0.000 A 
ENDBRANCH  20  21
ENDBRANCH  11  20
ENDBRANCH   1  16
BRANCH   2  27
ATOM     27  C   UNL     1      -3.351  14.040  21.474  0.00  0.00    +0.000 A 
ATOM     28  C   UNL     1      -4.477  13.772  20.681  0.00  0.00    +0.000 A 
ATOM     29  C   UNL     1      -5.630  13.212  21.235  0.00  0.00    +0.000 A 
ATOM     30  C   UNL     1      -5.657  12.889  22.584  0.00  0.00    +0.000 A 
ATOM     31  F   UNL     1      -6.757  12.342  23.112  0.00  0.00    +0.000 F 
ATOM     32  C   UNL     1      -4.550  13.112  23.388  0.00  0.00    +0.000 A 
ATOM     33  C   UNL     1      -3.402  13.691  22.836  0.00  0.00    +0.000 A 
ENDBRANCH   2  27
TORSDOF 4
ENDMDL
MODEL 8
REMARK VINA RESULT:      -7.6      2.619      5.460
REMARK  Name = 
REMARK  5 active torsions:
REMARK  status: ('A' for Active; 'I' for Inactive)
REMARK    1  A    between atoms: C_1  and  C_2
REMARK    2  A    between atoms: C_2  and  N_3
REMARK    3  A    between atoms: C_2  and  C_27
REMARK    4  A    between atoms: C_8  and  C_9
REMARK    5  A    between atoms: C_10  and  C_11
REMARK                            x       y       z     vdW  Elec       q    Type
REMARK                         _______ _______ _______ _____ _____    ______ ____
ROOT
ATOM      1  C   UNL     1       0.518  13.470  20.065  0.00  0.00    +0.000 A 
ATOM      2  C   UNL     1      -0.163  13.983  21.122  0.00  0.00    +0.000 A 
ATOM      3  C   UNL     1       0.325  15.399  21.211  0.00  0.00    +0.000 A 
ATOM      4  O   UNL     1       0.058  16.201  22.097  0.00  0.00    +0.000 OA
ATOM      5  N   UNL     1       1.099  15.636  20.087  0.00  0.00    +0.000 N 
ATOM      6  N   UNL     1       1.414  14.394  19.519  0.00  0.00    +0.000 N 
ATOM      7  C   UNL     1       2.060  14.391  18.214  0.00  0.00    +0.000 C 
ATOM      8  C   UNL     1       3.117  15.508  18.129  0.00  0.00    +0.000 C 
ATOM      9  C   UNL     1       2.537  16.857  18.550  0.00  0.00    +0.000 C 
ATOM     10  C   UNL     1       2.002  16.750  19.969  0.00  0.00    +0.000 C 
ENDROOT
BRANCH   1  16
ATOM     11  N   UNL     1      -2.480  10.488  17.743  0.00  0.00    +0.000 N 
ATOM     12  C   UNL     1      -1.259  10.807  18.293  0.00  0.00    +0.000 A 
ATOM     13  N   UNL     1      -0.342   9.836  18.183  0.00  0.00    +0.000 NA
ATOM     14  C   UNL     1       0.889  10.081  18.658  0.00  0.00    +0.000 A 
ATOM     15  C   UNL     1       1.221  11.233  19.317  0.00  0.00    +0.000 A 
ATOM     16  C   UNL     1       0.213  12.171  19.423  0.00  0.00    +0.000 A 
ATOM     17  N   UNL     1      -1.019  11.986  18.889  0.00  0.00    +0.000 NA
ATOM     18  H   UNL     1      -2.799   9.618  18.148  0.00  0.00    +0.000 HD
BRANCH  11  20
ATOM     19  C   UNL     1      -4.049  11.176  16.036  0.00  0.00    +0.000 C 
ATOM     20  C   UNL     1      -3.486  11.481  17.435  0.00  0.00    +0.000 C 
BRANCH  20  21
ATOM     21  C   UNL     1      -4.596  11.529  18.466  0.00  0.00    +0.000 A 
ATOM     22  C   UNL     1      -5.750  10.756  18.257  0.00  0.00    +0.000 A 
ATOM     23  C   UNL     1      -6.817  10.809  19.153  0.00  0.00    +0.000 A 
ATOM     24  C   UNL     1      -6.742  11.626  20.277  0.00  0.00    +0.000 A 
ATOM     25  C   UNL     1      -5.589  12.369  20.520  0.00  0.00    +0.000 A 
ATOM     26  C   UNL     1      -4.519  12.320  19.623  0.00  0.00    +0.000 A 
ENDBRANCH  20  21
ENDBRANCH  11  20
ENDBRANCH   1  16
BRANCH   2  27
ATOM     27  C   UNL     1      -1.224  13.430  21.974  0.00  0.00    +0.000 A 
ATOM     28  C   UNL     1      -1.097  12.172  22.582  0.00  0.00    +0.000 A 
ATOM     29  C   UNL     1      -2.110  11.660  23.395  0.00  0.00    +0.000 A 
ATOM     30  C   UNL     1      -3.249  12.415  23.629  0.00  0.00    +0.000 A 
ATOM     31  F   UNL     1      -4.215  11.929  24.417  0.00  0.00    +0.000 F 
ATOM     32  C   UNL     1      -3.392  13.675  23.068  0.00  0.00    +0.000 A 
ATOM     33  C   UNL     1      -2.384  14.179  22.239  0.00  0.00    +0.000 A 
ENDBRANCH   2  27
TORSDOF 4
ENDMDL
MODEL 9
REMARK VINA RESULT:      -7.6      4.527      8.462
REMARK  Name = 
REMARK  5 active torsions:
REMARK  status: ('A' for Active; 'I' for Inactive)
REMARK    1  A    between atoms: C_1  and  C_2
REMARK    2  A    between atoms: C_2  and  N_3
REMARK    3  A    between atoms: C_2  and  C_27
REMARK    4  A    between atoms: C_8  and  C_9
REMARK    5  A    between atoms: C_10  and  C_11
REMARK                            x       y       z     vdW  Elec       q    Type
REMARK                         _______ _______ _______ _____ _____    ______ ____
ROOT
ATOM      1  C   UNL     1      -3.027  12.274  20.234  0.00  0.00    +0.000 A 
ATOM      2  C   UNL     1      -3.799  11.823  19.212  0.00  0.00    +0.000 A 
ATOM      3  C   UNL     1      -5.198  12.132  19.656  0.00  0.00    +0.000 A 
ATOM      4  O   UNL     1      -6.228  11.792  19.086  0.00  0.00    +0.000 OA
ATOM      5  N   UNL     1      -5.103  12.903  20.802  0.00  0.00    +0.000 N 
ATOM      6  N   UNL     1      -3.794  12.783  21.287  0.00  0.00    +0.000 N 
ATOM      7  C   UNL     1      -3.393  13.658  22.380  0.00  0.00    +0.000 C 
ATOM      8  C   UNL     1      -4.530  13.794  23.410  0.00  0.00    +0.000 C 
ATOM      9  C   UNL     1      -5.847  14.175  22.738  0.00  0.00    +0.000 C 
ATOM     10  C   UNL     1      -6.204  13.121  21.703  0.00  0.00    +0.000 C 
ENDROOT
BRANCH   1  16
ATOM     11  N   UNL     1       0.960  14.940  19.714  0.00  0.00    +0.000 N 
ATOM     12  C   UNL     1       0.309  13.750  19.943  0.00  0.00    +0.000 A 
ATOM     13  N   UNL     1       1.132  12.707  20.127  0.00  0.00    +0.000 NA
ATOM     14  C   UNL     1       0.579  11.514  20.397  0.00  0.00    +0.000 A 
ATOM     15  C   UNL     1      -0.773  11.301  20.407  0.00  0.00    +0.000 A 
ATOM     16  C   UNL     1      -1.554  12.415  20.172  0.00  0.00    +0.000 A 
ATOM     17  N   UNL     1      -1.029  13.648  19.971  0.00  0.00    +0.000 NA
ATOM     18  H   UNL     1       1.595  14.818  18.938  0.00  0.00    +0.000 HD
BRANCH  11  20
ATOM     19  C   UNL     1       0.944  16.976  21.021  0.00  0.00    +0.000 C 
ATOM     20  C   UNL     1       0.309  16.227  19.836  0.00  0.00    +0.000 C 
BRANCH  20  21
ATOM     21  C   UNL     1       0.396  17.050  18.567  0.00  0.00    +0.000 A 
ATOM     22  C   UNL     1       1.637  17.173  17.922  0.00  0.00    +0.000 A 
ATOM     23  C   UNL     1       1.775  17.962  16.780  0.00  0.00    +0.000 A 
ATOM     24  C   UNL     1       0.670  18.630  16.259  0.00  0.00    +0.000 A 
ATOM     25  C   UNL     1      -0.576  18.488  16.865  0.00  0.00    +0.000 A 
ATOM     26  C   UNL     1      -0.717  17.700  18.009  0.00  0.00    +0.000 A 
ENDBRANCH  20  21
ENDBRANCH  11  20
ENDBRANCH   1  16
BRANCH   2  27
ATOM     27  C   UNL     1      -3.465  11.261  17.897  0.00  0.00    +0.000 A 
ATOM     28  C   UNL     1      -2.475  10.277  17.749  0.00  0.00    +0.000 A 
ATOM     29  C   UNL     1      -2.171   9.745  16.494  0.00  0.00    +0.000 A 
ATOM     30  C   UNL     1      -2.874  10.174  15.378  0.00  0.00    +0.000 A 
ATOM     31  F   UNL     1      -2.589   9.657  14.178  0.00  0.00    +0.000 F 
ATOM     32  C   UNL     1      -3.879  11.122  15.495  0.00  0.00    +0.000 A 
ATOM     33  C   UNL     1      -4.170  11.668  16.750  0.00  0.00    +0.000 A 
ENDBRANCH   2  27
TORSDOF 4
ENDMDL
