MODEL 1
REMARK VINA RESULT:      -6.9      0.000      0.000
REMARK  Name = 
REMARK  14 active torsions:
REMARK  status: ('A' for Active; 'I' for Inactive)
REMARK    1  A    between atoms: C_2  and  C_3
REMARK    2  A    between atoms: C_3  and  C_4
REMARK    3  A    between atoms: C_3  and  C_5
REMARK    4  A    between atoms: C_3  and  C_6
REMARK    5  A    between atoms: C_7  and  O_8
REMARK    6  A    between atoms: C_10  and  O_11
REMARK    7  A    between atoms: C_19  and  O_20
REMARK    8  A    between atoms: O_20  and  C_21
REMARK    9  A    between atoms: C_25  and  C_26
REMARK   10  A    between atoms: C_26  and  C_27
REMARK   11  A    between atoms: C_28  and  C_29
REMARK   12  A    between atoms: C_28  and  C_30
REMARK   13  A    between atoms: C_32  and  C_33
REMARK   14  A    between atoms: C_32  and  C_34
REMARK                            x       y       z     vdW  Elec       q    Type
REMARK                         _______ _______ _______ _____ _____    ______ ____
ROOT
ATOM      1  C   UNL     1       1.165  12.430  19.730  0.00  0.00    +0.000 A 
ATOM      2  C   UNL     1       1.398  11.210  19.078  0.00  0.00    +0.000 A 
ATOM      3  C   UNL     1       1.014   9.966  19.631  0.00  0.00    +0.000 A 
ATOM      4  C   UNL     1       0.299   9.895  20.823  0.00  0.00    +0.000 A 
ATOM      5  C   UNL     1       0.021  11.071  21.513  0.00  0.00    +0.000 A 
ATOM      6  C   UNL     1       0.546  12.292  21.027  0.00  0.00    +0.000 A 
ATOM      7  O   UNL     1       0.463  13.410  21.814  0.00  0.00    +0.000 OA
ATOM      8  C   UNL     1      -0.842  13.578  22.335  0.00  0.00    +0.000 C 
ATOM      9  C   UNL     1      -0.863  14.832  23.301  0.00  0.00    +0.000 C 
ATOM     10  C   UNL     1      -2.255  15.341  23.048  0.00  0.00    +0.000 C 
ATOM     11  C   UNL     1      -3.251  14.130  22.987  0.00  0.00    +0.000 C 
ATOM     12  C   UNL     1      -2.663  12.888  23.732  0.00  0.00    +0.000 C 
ATOM     13  C   UNL     1      -1.256  12.449  23.268  0.00  0.00    +0.000 C 
ATOM     14  C   UNL     1      -0.946  11.103  22.670  0.00  0.00    +0.000 C 
ATOM     15  O   UNL     1      -1.422  10.075  23.166  0.00  0.00    +0.000 OA
ATOM     16  C   UNL     1      -3.329  14.408  21.528  0.00  0.00    +0.000 C 
ATOM     17  O   UNL     1      -3.464  15.903  21.681  0.00  0.00    +0.000 OA
ATOM     18  C   UNL     1      -3.393  16.289  23.244  0.00  0.00    +0.000 C 
ATOM     19  C   UNL     1      -2.600  17.058  24.326  0.00  0.00    +0.000 C 
ATOM     20  C   UNL     1      -4.340  17.432  22.844  0.00  0.00    +0.000 C 
ATOM     21  C   UNL     1      -2.016  13.601  21.183  0.00  0.00    +0.000 C 
ATOM     22  O   UNL     1      -1.987  12.809  20.236  0.00  0.00    +0.000 OA
ENDROOT
BRANCH   1  23
ATOM     23  C   UNL     1       1.381  13.865  19.126  0.00  0.00    +0.000 C 
ATOM     24  C   UNL     1       2.500  13.828  18.047  0.00  0.00    +0.000 C 
ATOM     25  C   UNL     1       1.881  14.961  20.099  0.00  0.00    +0.000 C 
BRANCH  23  27
ATOM     26  C   UNL     1      -0.361  15.710  18.697  0.00  0.00    +0.000 C 
ATOM     27  C   UNL     1       0.073  14.446  18.582  0.00  0.00    +0.000 C 
ENDBRANCH  23  27
ENDBRANCH   1  23
BRANCH   2  28
ATOM     28  O   UNL     1       2.007  11.007  17.872  0.00  0.00    +0.000 OA
ATOM     29  H   UNL     1       1.928  10.101  17.567  0.00  0.00    +0.000 HD
ENDBRANCH   2  28
BRANCH   4  30
ATOM     30  O   UNL     1      -0.100   8.678  21.280  0.00  0.00    +0.000 OA
ATOM     31  H   UNL     1       0.170   8.561  22.203  0.00  0.00    +0.000 HD
ENDBRANCH   4  30
BRANCH  12  32
ATOM     32  O   UNL     1      -3.622  11.903  24.039  0.00  0.00    +0.000 OA
ATOM     33  C   UNL     1      -4.716  12.331  24.816  0.00  0.00    +0.000 C 
ENDBRANCH  12  32
BRANCH  16  34
ATOM     34  C   UNL     1      -4.460  14.002  20.572  0.00  0.00    +0.000 C 
BRANCH  34  35
ATOM     35  C   UNL     1      -5.606  13.364  21.356  0.00  0.00    +0.000 C 
ATOM     36  C   UNL     1      -6.428  12.355  20.992  0.00  0.00    +0.000 C 
ATOM     37  C   UNL     1      -6.345  11.578  19.703  0.00  0.00    +0.000 C 
ATOM     38  C   UNL     1      -7.569  11.956  21.894  0.00  0.00    +0.000 C 
ENDBRANCH  34  35
ENDBRANCH  16  34
TORSDOF 7
ENDMDL
MODEL 2
REMARK VINA RESULT:      -6.5      0.931      1.285
REMARK  Name = 
REMARK  14 active torsions:
REMARK  status: ('A' for Active; 'I' for Inactive)
REMARK    1  A    between atoms: C_2  and  C_3
REMARK    2  A    between atoms: C_3  and  C_4
REMARK    3  A    between atoms: C_3  and  C_5
REMARK    4  A    between atoms: C_3  and  C_6
REMARK    5  A    between atoms: C_7  and  O_8
REMARK    6  A    between atoms: C_10  and  O_11
REMARK    7  A    between atoms: C_19  and  O_20
REMARK    8  A    between atoms: O_20  and  C_21
REMARK    9  A    between atoms: C_25  and  C_26
REMARK   10  A    between atoms: C_26  and  C_27
REMARK   11  A    between atoms: C_28  and  C_29
REMARK   12  A    between atoms: C_28  and  C_30
REMARK   13  A    between atoms: C_32  and  C_33
REMARK   14  A    between atoms: C_32  and  C_34
REMARK                            x       y       z     vdW  Elec       q    Type
REMARK                         _______ _______ _______ _____ _____    ______ ____
ROOT
ATOM      1  C   UNL     1       1.196  13.730  19.681  0.00  0.00    +0.000 A 
ATOM      2  C   UNL     1       1.516  12.676  18.811  0.00  0.00    +0.000 A 
ATOM      3  C   UNL     1       1.240  11.324  19.119  0.00  0.00    +0.000 A 
ATOM      4  C   UNL     1       0.548  10.973  20.275  0.00  0.00    +0.000 A 
ATOM      5  C   UNL     1       0.186  11.973  21.173  0.00  0.00    +0.000 A 
ATOM      6  C   UNL     1       0.607  13.301  20.928  0.00  0.00    +0.000 A 
ATOM      7  O   UNL     1       0.445  14.241  21.911  0.00  0.00    +0.000 OA
ATOM      8  C   UNL     1      -0.862  14.203  22.451  0.00  0.00    +0.000 C 
ATOM      9  C   UNL     1      -0.970  15.247  23.636  0.00  0.00    +0.000 C 
ATOM     10  C   UNL     1      -2.402  15.681  23.480  0.00  0.00    +0.000 C 
ATOM     11  C   UNL     1      -3.299  14.427  23.189  0.00  0.00    +0.000 C 
ATOM     12  C   UNL     1      -2.605  13.118  23.689  0.00  0.00    +0.000 C 
ATOM     13  C   UNL     1      -1.174  12.889  23.153  0.00  0.00    +0.000 C 
ATOM     14  C   UNL     1      -0.766  11.708  22.313  0.00  0.00    +0.000 C 
ATOM     15  O   UNL     1      -1.152  10.571  22.605  0.00  0.00    +0.000 OA
ATOM     16  C   UNL     1      -3.417  14.967  21.809  0.00  0.00    +0.000 C 
ATOM     17  O   UNL     1      -3.669  16.391  22.240  0.00  0.00    +0.000 OA
ATOM     18  C   UNL     1      -3.608  16.480  23.849  0.00  0.00    +0.000 C 
ATOM     19  C   UNL     1      -2.865  17.093  25.058  0.00  0.00    +0.000 C 
ATOM     20  C   UNL     1      -4.648  17.598  23.669  0.00  0.00    +0.000 C 
ATOM     21  C   UNL     1      -2.049  14.348  21.321  0.00  0.00    +0.000 C 
ATOM     22  O   UNL     1      -1.969  13.753  20.242  0.00  0.00    +0.000 OA
ENDROOT
BRANCH   1  23
ATOM     23  C   UNL     1       1.290  15.266  19.359  0.00  0.00    +0.000 C 
ATOM     24  C   UNL     1      -0.023  15.751  18.682  0.00  0.00    +0.000 C 
ATOM     25  C   UNL     1       2.377  15.698  18.345  0.00  0.00    +0.000 C 
BRANCH  23  27
ATOM     26  C   UNL     1       1.340  17.369  20.840  0.00  0.00    +0.000 C 
ATOM     27  C   UNL     1       1.630  16.080  20.610  0.00  0.00    +0.000 C 
ENDBRANCH  23  27
ENDBRANCH   1  23
BRANCH   2  28
ATOM     28  O   UNL     1       2.124  12.753  17.591  0.00  0.00    +0.000 OA
ATOM     29  H   UNL     1       1.497  12.740  16.865  0.00  0.00    +0.000 HD
ENDBRANCH   2  28
BRANCH   4  30
ATOM     30  O   UNL     1       0.253   9.664  20.493  0.00  0.00    +0.000 OA
ATOM     31  H   UNL     1      -0.485   9.388  19.930  0.00  0.00    +0.000 HD
ENDBRANCH   4  30
BRANCH  12  32
ATOM     32  O   UNL     1      -3.478  12.019  23.802  0.00  0.00    +0.000 OA
ATOM     33  C   UNL     1      -4.598  12.207  24.635  0.00  0.00    +0.000 C 
ENDBRANCH  12  32
BRANCH  16  34
ATOM     34  C   UNL     1      -4.525  14.658  20.791  0.00  0.00    +0.000 C 
BRANCH  34  35
ATOM     35  C   UNL     1      -5.649  13.870  21.462  0.00  0.00    +0.000 C 
ATOM     36  C   UNL     1      -6.222  12.710  21.074  0.00  0.00    +0.000 C 
ATOM     37  C   UNL     1      -5.817  11.887  19.878  0.00  0.00    +0.000 C 
ATOM     38  C   UNL     1      -7.401  12.164  21.842  0.00  0.00    +0.000 C 
ENDBRANCH  34  35
ENDBRANCH  16  34
TORSDOF 7
ENDMDL
MODEL 3
REMARK VINA RESULT:      -6.4      2.113      3.478
REMARK  Name = 
REMARK  14 active torsions:
REMARK  status: ('A' for Active; 'I' for Inactive)
REMARK    1  A    between atoms: C_2  and  C_3
REMARK    2  A    between atoms: C_3  and  C_4
REMARK    3  A    between atoms: C_3  and  C_5
REMARK    4  A    between atoms: C_3  and  C_6
REMARK    5  A    between atoms: C_7  and  O_8
REMARK    6  A    between atoms: C_10  and  O_11
REMARK    7  A    between atoms: C_19  and  O_20
REMARK    8  A    between atoms: O_20  and  C_21
REMARK    9  A    between atoms: C_25  and  C_26
REMARK   10  A    between atoms: C_26  and  C_27
REMARK   11  A    between atoms: C_28  and  C_29
REMARK   12  A    between atoms: C_28  and  C_30
REMARK   13  A    between atoms: C_32  and  C_33
REMARK   14  A    between atoms: C_32  and  C_34
REMARK                            x       y       z     vdW  Elec       q    Type
REMARK                         _______ _______ _______ _____ _____    ______ ____
ROOT
ATOM      1  C   UNL     1      -0.166  12.930  20.478  0.00  0.00    +0.000 A 
ATOM      2  C   UNL     1       0.668  11.856  20.825  0.00  0.00    +0.000 A 
ATOM      3  C   UNL     1       0.406  11.014  21.931  0.00  0.00    +0.000 A 
ATOM      4  C   UNL     1      -0.755  11.156  22.687  0.00  0.00    +0.000 A 
ATOM      5  C   UNL     1      -1.633  12.193  22.385  0.00  0.00    +0.000 A 
ATOM      6  C   UNL     1      -1.280  13.120  21.377  0.00  0.00    +0.000 A 
ATOM      7  O   UNL     1      -2.029  14.258  21.230  0.00  0.00    +0.000 OA
ATOM      8  C   UNL     1      -3.412  13.964  21.201  0.00  0.00    +0.000 C 
ATOM      9  C   UNL     1      -4.233  15.315  21.115  0.00  0.00    +0.000 C 
ATOM     10  C   UNL     1      -5.400  14.866  20.279  0.00  0.00    +0.000 C 
ATOM     11  C   UNL     1      -5.879  13.453  20.768  0.00  0.00    +0.000 C 
ATOM     12  C   UNL     1      -5.429  13.193  22.242  0.00  0.00    +0.000 C 
ATOM     13  C   UNL     1      -3.917  13.367  22.508  0.00  0.00    +0.000 C 
ATOM     14  C   UNL     1      -3.012  12.266  22.992  0.00  0.00    +0.000 C 
ATOM     15  O   UNL     1      -3.380  11.509  23.898  0.00  0.00    +0.000 OA
ATOM     16  C   UNL     1      -5.302  12.939  19.498  0.00  0.00    +0.000 C 
ATOM     17  O   UNL     1      -5.883  14.029  18.632  0.00  0.00    +0.000 OA
ATOM     18  C   UNL     1      -6.691  15.073  19.557  0.00  0.00    +0.000 C 
ATOM     19  C   UNL     1      -6.765  16.535  20.054  0.00  0.00    +0.000 C 
ATOM     20  C   UNL     1      -7.583  15.241  18.317  0.00  0.00    +0.000 C 
ATOM     21  C   UNL     1      -3.830  12.853  20.062  0.00  0.00    +0.000 C 
ATOM     22  O   UNL     1      -3.133  11.851  19.872  0.00  0.00    +0.000 OA
ENDROOT
BRANCH   1  23
ATOM     23  C   UNL     1      -0.068  13.802  19.174  0.00  0.00    +0.000 C 
ATOM     24  C   UNL     1      -0.799  13.092  18.000  0.00  0.00    +0.000 C 
ATOM     25  C   UNL     1       1.350  14.038  18.601  0.00  0.00    +0.000 C 
BRANCH  23  27
ATOM     26  C   UNL     1      -0.435  16.285  18.609  0.00  0.00    +0.000 C 
ATOM     27  C   UNL     1      -0.594  15.221  19.409  0.00  0.00    +0.000 C 
ENDBRANCH  23  27
ENDBRANCH   1  23
BRANCH   2  28
ATOM     28  O   UNL     1       1.818  11.455  20.207  0.00  0.00    +0.000 OA
ATOM     29  H   UNL     1       2.332  10.847  20.742  0.00  0.00    +0.000 HD
ENDBRANCH   2  28
BRANCH   4  30
ATOM     30  O   UNL     1      -0.990  10.282  23.702  0.00  0.00    +0.000 OA
ATOM     31  H   UNL     1      -1.011   9.374  23.364  0.00  0.00    +0.000 HD
ENDBRANCH   4  30
BRANCH  12  32
ATOM     32  O   UNL     1      -6.117  12.135  22.869  0.00  0.00    +0.000 OA
ATOM     33  C   UNL     1      -7.488  12.350  23.107  0.00  0.00    +0.000 C 
ENDBRANCH  12  32
BRANCH  16  34
ATOM     34  C   UNL     1      -5.667  11.628  18.785  0.00  0.00    +0.000 C 
BRANCH  34  35
ATOM     35  C   UNL     1      -5.088  11.621  17.372  0.00  0.00    +0.000 C 
ATOM     36  C   UNL     1      -4.139  10.814  16.846  0.00  0.00    +0.000 C 
ATOM     37  C   UNL     1      -3.469   9.668  17.558  0.00  0.00    +0.000 C 
ATOM     38  C   UNL     1      -3.641  11.061  15.444  0.00  0.00    +0.000 C 
ENDBRANCH  34  35
ENDBRANCH  16  34
TORSDOF 7
ENDMDL
MODEL 4
REMARK VINA RESULT:      -6.4      1.953      6.591
REMARK  Name = 
REMARK  14 active torsions:
REMARK  status: ('A' for Active; 'I' for Inactive)
REMARK    1  A    between atoms: C_2  and  C_3
REMARK    2  A    between atoms: C_3  and  C_4
REMARK    3  A    between atoms: C_3  and  C_5
REMARK    4  A    between atoms: C_3  and  C_6
REMARK    5  A    between atoms: C_7  and  O_8
REMARK    6  A    between atoms: C_10  and  O_11
REMARK    7  A    between atoms: C_19  and  O_20
REMARK    8  A    between atoms: O_20  and  C_21
REMARK    9  A    between atoms: C_25  and  C_26
REMARK   10  A    between atoms: C_26  and  C_27
REMARK   11  A    between atoms: C_28  and  C_29
REMARK   12  A    between atoms: C_28  and  C_30
REMARK   13  A    between atoms: C_32  and  C_33
REMARK   14  A    between atoms: C_32  and  C_34
REMARK                            x       y       z     vdW  Elec       q    Type
REMARK                         _______ _______ _______ _____ _____    ______ ____
ROOT
ATOM      1  C   UNL     1      -5.106  14.411  23.036  0.00  0.00    +0.000 A 
ATOM      2  C   UNL     1      -6.274  13.767  23.470  0.00  0.00    +0.000 A 
ATOM      3  C   UNL     1      -6.916  12.761  22.712  0.00  0.00    +0.000 A 
ATOM      4  C   UNL     1      -6.365  12.290  21.523  0.00  0.00    +0.000 A 
ATOM      5  C   UNL     1      -5.197  12.876  21.044  0.00  0.00    +0.000 A 
ATOM      6  C   UNL     1      -4.653  13.985  21.732  0.00  0.00    +0.000 A 
ATOM      7  O   UNL     1      -3.639  14.697  21.148  0.00  0.00    +0.000 OA
ATOM      8  C   UNL     1      -2.624  13.842  20.660  0.00  0.00    +0.000 C 
ATOM      9  C   UNL     1      -1.521  14.706  19.922  0.00  0.00    +0.000 C 
ATOM     10  C   UNL     1      -0.290  13.908  20.255  0.00  0.00    +0.000 C 
ATOM     11  C   UNL     1      -0.603  12.378  20.105  0.00  0.00    +0.000 C 
ATOM     12  C   UNL     1      -1.827  12.151  19.160  0.00  0.00    +0.000 C 
ATOM     13  C   UNL     1      -3.108  12.924  19.547  0.00  0.00    +0.000 C 
ATOM     14  C   UNL     1      -4.414  12.269  19.907  0.00  0.00    +0.000 C 
ATOM     15  O   UNL     1      -4.840  11.318  19.241  0.00  0.00    +0.000 OA
ATOM     16  C   UNL     1      -0.533  12.330  21.590  0.00  0.00    +0.000 C 
ATOM     17  O   UNL     1       0.720  13.164  21.695  0.00  0.00    +0.000 OA
ATOM     18  C   UNL     1       1.177  13.630  20.220  0.00  0.00    +0.000 C 
ATOM     19  C   UNL     1       1.412  14.840  19.288  0.00  0.00    +0.000 C 
ATOM     20  C   UNL     1       2.596  13.554  20.807  0.00  0.00    +0.000 C 
ATOM     21  C   UNL     1      -2.020  12.816  21.795  0.00  0.00    +0.000 C 
ATOM     22  O   UNL     1      -2.771  12.245  22.593  0.00  0.00    +0.000 OA
ENDROOT
BRANCH   1  23
ATOM     23  C   UNL     1      -4.219  15.399  23.877  0.00  0.00    +0.000 C 
ATOM     24  C   UNL     1      -5.117  16.456  24.581  0.00  0.00    +0.000 C 
ATOM     25  C   UNL     1      -3.215  16.275  23.089  0.00  0.00    +0.000 C 
BRANCH  23  27
ATOM     26  C   UNL     1      -2.391  15.169  25.673  0.00  0.00    +0.000 C 
ATOM     27  C   UNL     1      -3.327  14.646  24.868  0.00  0.00    +0.000 C 
ENDBRANCH  23  27
ENDBRANCH   1  23
BRANCH   2  28
ATOM     28  O   UNL     1      -6.970  13.984  24.625  0.00  0.00    +0.000 OA
ATOM     29  H   UNL     1      -7.347  14.865  24.669  0.00  0.00    +0.000 HD
ENDBRANCH   2  28
BRANCH   4  30
ATOM     30  O   UNL     1      -6.989  11.278  20.864  0.00  0.00    +0.000 OA
ATOM     31  H   UNL     1      -7.045  10.493  21.428  0.00  0.00    +0.000 HD
ENDBRANCH   4  30
BRANCH  12  32
ATOM     32  O   UNL     1      -1.942  10.829  18.686  0.00  0.00    +0.000 OA
ATOM     33  C   UNL     1      -0.774  10.272  18.131  0.00  0.00    +0.000 C 
ENDBRANCH  12  32
BRANCH  16  34
ATOM     34  C   UNL     1      -0.260  11.093  22.459  0.00  0.00    +0.000 C 
BRANCH  34  35
ATOM     35  C   UNL     1       0.714  10.155  21.746  0.00  0.00    +0.000 C 
ATOM     36  C   UNL     1       0.521   8.883  21.334  0.00  0.00    +0.000 C 
ATOM     37  C   UNL     1      -0.768   8.111  21.444  0.00  0.00    +0.000 C 
ATOM     38  C   UNL     1       1.671   8.106  20.742  0.00  0.00    +0.000 C 
ENDBRANCH  34  35
ENDBRANCH  16  34
TORSDOF 7
ENDMDL
MODEL 5
REMARK VINA RESULT:      -6.4      0.890      1.339
REMARK  Name = 
REMARK  14 active torsions:
REMARK  status: ('A' for Active; 'I' for Inactive)
REMARK    1  A    between atoms: C_2  and  C_3
REMARK    2  A    between atoms: C_3  and  C_4
REMARK    3  A    between atoms: C_3  and  C_5
REMARK    4  A    between atoms: C_3  and  C_6
REMARK    5  A    between atoms: C_7  and  O_8
REMARK    6  A    between atoms: C_10  and  O_11
REMARK    7  A    between atoms: C_19  and  O_20
REMARK    8  A    between atoms: O_20  and  C_21
REMARK    9  A    between atoms: C_25  and  C_26
REMARK   10  A    between atoms: C_26  and  C_27
REMARK   11  A    between atoms: C_28  and  C_29
REMARK   12  A    between atoms: C_28  and  C_30
REMARK   13  A    between atoms: C_32  and  C_33
REMARK   14  A    between atoms: C_32  and  C_34
REMARK                            x       y       z     vdW  Elec       q    Type
REMARK                         _______ _______ _______ _____ _____    ______ ____
ROOT
ATOM      1  C   UNL     1       1.134  12.036  19.644  0.00  0.00    +0.000 A 
ATOM      2  C   UNL     1       1.337  10.770  19.073  0.00  0.00    +0.000 A 
ATOM      3  C   UNL     1       0.944   9.573  19.717  0.00  0.00    +0.000 A 
ATOM      4  C   UNL     1       0.249   9.596  20.923  0.00  0.00    +0.000 A 
ATOM      5  C   UNL     1       0.002  10.821  21.535  0.00  0.00    +0.000 A 
ATOM      6  C   UNL     1       0.536  11.997  20.958  0.00  0.00    +0.000 A 
ATOM      7  O   UNL     1       0.484  13.168  21.667  0.00  0.00    +0.000 OA
ATOM      8  C   UNL     1      -0.808  13.392  22.196  0.00  0.00    +0.000 C 
ATOM      9  C   UNL     1      -0.793  14.710  23.074  0.00  0.00    +0.000 C 
ATOM     10  C   UNL     1      -2.182  15.223  22.810  0.00  0.00    +0.000 C 
ATOM     11  C   UNL     1      -3.197  14.027  22.849  0.00  0.00    +0.000 C 
ATOM     12  C   UNL     1      -2.615  12.830  23.668  0.00  0.00    +0.000 C 
ATOM     13  C   UNL     1      -1.223  12.337  23.212  0.00  0.00    +0.000 C 
ATOM     14  C   UNL     1      -0.945  10.948  22.702  0.00  0.00    +0.000 C 
ATOM     15  O   UNL     1      -1.427   9.964  23.276  0.00  0.00    +0.000 OA
ATOM     16  C   UNL     1      -3.296  14.206  21.376  0.00  0.00    +0.000 C 
ATOM     17  O   UNL     1      -3.406  15.709  21.428  0.00  0.00    +0.000 OA
ATOM     18  C   UNL     1      -3.301  16.201  22.960  0.00  0.00    +0.000 C 
ATOM     19  C   UNL     1      -2.478  17.029  23.973  0.00  0.00    +0.000 C 
ATOM     20  C   UNL     1      -4.238  17.329  22.498  0.00  0.00    +0.000 C 
ATOM     21  C   UNL     1      -2.002  13.356  21.066  0.00  0.00    +0.000 C 
ATOM     22  O   UNL     1      -2.002  12.500  20.175  0.00  0.00    +0.000 OA
ENDROOT
BRANCH   1  23
ATOM     23  C   UNL     1       1.361  13.423  18.939  0.00  0.00    +0.000 C 
ATOM     24  C   UNL     1       0.088  13.834  18.146  0.00  0.00    +0.000 C 
ATOM     25  C   UNL     1       2.469  13.480  17.859  0.00  0.00    +0.000 C 
BRANCH  23  27
ATOM     26  C   UNL     1       1.770  15.825  19.762  0.00  0.00    +0.000 C 
ATOM     27  C   UNL     1       1.790  14.497  19.942  0.00  0.00    +0.000 C 
ENDBRANCH  23  27
ENDBRANCH   1  23
BRANCH   2  28
ATOM     28  O   UNL     1       1.921  10.475  17.875  0.00  0.00    +0.000 OA
ATOM     29  H   UNL     1       2.305   9.597  17.858  0.00  0.00    +0.000 HD
ENDBRANCH   2  28
BRANCH   4  30
ATOM     30  O   UNL     1      -0.160   8.420  21.469  0.00  0.00    +0.000 OA
ATOM     31  H   UNL     1      -0.573   8.576  22.331  0.00  0.00    +0.000 HD
ENDBRANCH   4  30
BRANCH  12  32
ATOM     32  O   UNL     1      -3.583  11.883  24.058  0.00  0.00    +0.000 OA
ATOM     33  C   UNL     1      -4.765  12.408  24.614  0.00  0.00    +0.000 C 
ENDBRANCH  12  32
BRANCH  16  34
ATOM     34  C   UNL     1      -4.451  13.754  20.469  0.00  0.00    +0.000 C 
BRANCH  34  35
ATOM     35  C   UNL     1      -5.792  14.080  21.125  0.00  0.00    +0.000 C 
ATOM     36  C   UNL     1      -6.697  15.024  20.785  0.00  0.00    +0.000 C 
ATOM     37  C   UNL     1      -6.594  15.953  19.603  0.00  0.00    +0.000 C 
ATOM     38  C   UNL     1      -7.914  15.240  21.650  0.00  0.00    +0.000 C 
ENDBRANCH  34  35
ENDBRANCH  16  34
TORSDOF 7
ENDMDL
MODEL 6
REMARK VINA RESULT:      -6.4      7.746     10.459
REMARK  Name = 
REMARK  14 active torsions:
REMARK  status: ('A' for Active; 'I' for Inactive)
REMARK    1  A    between atoms: C_2  and  C_3
REMARK    2  A    between atoms: C_3  and  C_4
REMARK    3  A    between atoms: C_3  and  C_5
REMARK    4  A    between atoms: C_3  and  C_6
REMARK    5  A    between atoms: C_7  and  O_8
REMARK    6  A    between atoms: C_10  and  O_11
REMARK    7  A    between atoms: C_19  and  O_20
REMARK    8  A    between atoms: O_20  and  C_21
REMARK    9  A    between atoms: C_25  and  C_26
REMARK   10  A    between atoms: C_26  and  C_27
REMARK   11  A    between atoms: C_28  and  C_29
REMARK   12  A    between atoms: C_28  and  C_30
REMARK   13  A    between atoms: C_32  and  C_33
REMARK   14  A    between atoms: C_32  and  C_34
REMARK                            x       y       z     vdW  Elec       q    Type
REMARK                         _______ _______ _______ _____ _____    ______ ____
ROOT
ATOM      1  C   UNL     1      10.790  14.843  18.384  0.00  0.00    +0.000 A 
ATOM      2  C   UNL     1      10.914  14.059  17.227  0.00  0.00    +0.000 A 
ATOM      3  C   UNL     1      10.761  12.653  17.240  0.00  0.00    +0.000 A 
ATOM      4  C   UNL     1      10.388  11.977  18.399  0.00  0.00    +0.000 A 
ATOM      5  C   UNL     1      10.234  12.699  19.579  0.00  0.00    +0.000 A 
ATOM      6  C   UNL     1      10.542  14.079  19.585  0.00  0.00    +0.000 A 
ATOM      7  O   UNL     1      10.604  14.741  20.783  0.00  0.00    +0.000 OA
ATOM      8  C   UNL     1       9.474  14.459  21.585  0.00  0.00    +0.000 C 
ATOM      9  C   UNL     1       9.634  15.178  22.987  0.00  0.00    +0.000 C 
ATOM     10  C   UNL     1       8.198  15.508  23.285  0.00  0.00    +0.000 C 
ATOM     11  C   UNL     1       7.292  14.283  22.906  0.00  0.00    +0.000 C 
ATOM     12  C   UNL     1       8.125  12.961  22.883  0.00  0.00    +0.000 C 
ATOM     13  C   UNL     1       9.384  12.994  21.987  0.00  0.00    +0.000 C 
ATOM     14  C   UNL     1       9.603  12.088  20.805  0.00  0.00    +0.000 C 
ATOM     15  O   UNL     1       9.334  10.883  20.883  0.00  0.00    +0.000 OA
ATOM     16  C   UNL     1       6.819  15.123  21.773  0.00  0.00    +0.000 C 
ATOM     17  O   UNL     1       6.643  16.376  22.596  0.00  0.00    +0.000 OA
ATOM     18  C   UNL     1       7.099  16.086  24.115  0.00  0.00    +0.000 C 
ATOM     19  C   UNL     1       8.102  16.458  25.231  0.00  0.00    +0.000 C 
ATOM     20  C   UNL     1       6.016  17.117  24.471  0.00  0.00    +0.000 C 
ATOM     21  C   UNL     1       8.039  14.762  20.839  0.00  0.00    +0.000 C 
ATOM     22  O   UNL     1       7.865  14.450  19.657  0.00  0.00    +0.000 OA
ENDROOT
BRANCH   1  23
ATOM     23  C   UNL     1      10.758  16.413  18.447  0.00  0.00    +0.000 C 
ATOM     24  C   UNL     1      11.997  17.002  17.714  0.00  0.00    +0.000 C 
ATOM     25  C   UNL     1      10.855  17.055  19.852  0.00  0.00    +0.000 C 
BRANCH  23  27
ATOM     26  C   UNL     1       8.532  17.698  18.556  0.00  0.00    +0.000 C 
ATOM     27  C   UNL     1       9.442  16.968  17.895  0.00  0.00    +0.000 C 
ENDBRANCH  23  27
ENDBRANCH   1  23
BRANCH   2  28
ATOM     28  O   UNL     1      11.196  14.477  15.958  0.00  0.00    +0.000 OA
ATOM     29  H   UNL     1      10.740  15.289  15.727  0.00  0.00    +0.000 HD
ENDBRANCH   2  28
BRANCH   4  30
ATOM     30  O   UNL     1      10.194  10.633  18.343  0.00  0.00    +0.000 OA
ATOM     31  H   UNL     1       9.924  10.296  19.210  0.00  0.00    +0.000 HD
ENDBRANCH   4  30
BRANCH  12  32
ATOM     32  O   UNL     1       7.338  11.793  22.917  0.00  0.00    +0.000 OA
ATOM     33  C   UNL     1       6.279  11.793  23.844  0.00  0.00    +0.000 C 
ENDBRANCH  12  32
BRANCH  16  34
ATOM     34  C   UNL     1       5.502  14.968  20.999  0.00  0.00    +0.000 C 
BRANCH  34  35
ATOM     35  C   UNL     1       4.606  16.182  21.238  0.00  0.00    +0.000 C 
ATOM     36  C   UNL     1       3.868  16.883  20.349  0.00  0.00    +0.000 C 
ATOM     37  C   UNL     1       3.724  16.564  18.884  0.00  0.00    +0.000 C 
ATOM     38  C   UNL     1       3.137  18.125  20.797  0.00  0.00    +0.000 C 
ENDBRANCH  34  35
ENDBRANCH  16  34
TORSDOF 7
ENDMDL
MODEL 7
REMARK VINA RESULT:      -6.4      0.803      1.066
REMARK  Name = 
REMARK  14 active torsions:
REMARK  status: ('A' for Active; 'I' for Inactive)
REMARK    1  A    between atoms: C_2  and  C_3
REMARK    2  A    between atoms: C_3  and  C_4
REMARK    3  A    between atoms: C_3  and  C_5
REMARK    4  A    between atoms: C_3  and  C_6
REMARK    5  A    between atoms: C_7  and  O_8
REMARK    6  A    between atoms: C_10  and  O_11
REMARK    7  A    between atoms: C_19  and  O_20
REMARK    8  A    between atoms: O_20  and  C_21
REMARK    9  A    between atoms: C_25  and  C_26
REMARK   10  A    between atoms: C_26  and  C_27
REMARK   11  A    between atoms: C_28  and  C_29
REMARK   12  A    between atoms: C_28  and  C_30
REMARK   13  A    between atoms: C_32  and  C_33
REMARK   14  A    between atoms: C_32  and  C_34
REMARK                            x       y       z     vdW  Elec       q    Type
REMARK                         _______ _______ _______ _____ _____    ______ ____
ROOT
ATOM      1  C   UNL     1       1.187  12.569  19.712  0.00  0.00    +0.000 A 
ATOM      2  C   UNL     1       1.425  11.361  19.038  0.00  0.00    +0.000 A 
ATOM      3  C   UNL     1       1.054  10.105  19.572  0.00  0.00    +0.000 A 
ATOM      4  C   UNL     1       0.345  10.009  20.766  0.00  0.00    +0.000 A 
ATOM      5  C   UNL     1       0.062  11.172  21.477  0.00  0.00    +0.000 A 
ATOM      6  C   UNL     1       0.576  12.404  21.010  0.00  0.00    +0.000 A 
ATOM      7  O   UNL     1       0.488  13.508  21.816  0.00  0.00    +0.000 OA
ATOM      8  C   UNL     1      -0.815  13.658  22.345  0.00  0.00    +0.000 C 
ATOM      9  C   UNL     1      -0.841  14.895  23.332  0.00  0.00    +0.000 C 
ATOM     10  C   UNL     1      -2.238  15.398  23.095  0.00  0.00    +0.000 C 
ATOM     11  C   UNL     1      -3.225  14.181  23.018  0.00  0.00    +0.000 C 
ATOM     12  C   UNL     1      -2.625  12.931  23.739  0.00  0.00    +0.000 C 
ATOM     13  C   UNL     1      -1.217  12.510  23.261  0.00  0.00    +0.000 C 
ATOM     14  C   UNL     1      -0.900  11.177  22.639  0.00  0.00    +0.000 C 
ATOM     15  O   UNL     1      -1.366  10.137  23.120  0.00  0.00    +0.000 OA
ATOM     16  C   UNL     1      -3.312  14.483  21.564  0.00  0.00    +0.000 C 
ATOM     17  O   UNL     1      -3.458  15.974  21.743  0.00  0.00    +0.000 OA
ATOM     18  C   UNL     1      -3.381  16.334  23.312  0.00  0.00    +0.000 C 
ATOM     19  C   UNL     1      -2.589  17.091  24.404  0.00  0.00    +0.000 C 
ATOM     20  C   UNL     1      -4.339  17.476  22.936  0.00  0.00    +0.000 C 
ATOM     21  C   UNL     1      -1.995  13.692  21.200  0.00  0.00    +0.000 C 
ATOM     22  O   UNL     1      -1.965  12.916  20.239  0.00  0.00    +0.000 OA
ENDROOT
BRANCH   1  23
ATOM     23  C   UNL     1       1.390  14.015  19.131  0.00  0.00    +0.000 C 
ATOM     24  C   UNL     1       2.545  14.016  18.091  0.00  0.00    +0.000 C 
ATOM     25  C   UNL     1       1.830  15.111  20.132  0.00  0.00    +0.000 C 
BRANCH  23  27
ATOM     26  C   UNL     1      -0.375  15.826  18.655  0.00  0.00    +0.000 C 
ATOM     27  C   UNL     1       0.088  14.572  18.549  0.00  0.00    +0.000 C 
ENDBRANCH  23  27
ENDBRANCH   1  23
BRANCH   2  28
ATOM     28  O   UNL     1       2.030  11.183  17.826  0.00  0.00    +0.000 OA
ATOM     29  H   UNL     1       2.321  10.280  17.688  0.00  0.00    +0.000 HD
ENDBRANCH   2  28
BRANCH   4  30
ATOM     30  O   UNL     1      -0.043   8.782  21.204  0.00  0.00    +0.000 OA
ATOM     31  H   UNL     1       0.018   8.134  20.486  0.00  0.00    +0.000 HD
ENDBRANCH   4  30
BRANCH  12  32
ATOM     32  O   UNL     1      -3.575  11.933  24.034  0.00  0.00    +0.000 OA
ATOM     33  C   UNL     1      -4.779  12.383  24.609  0.00  0.00    +0.000 C 
ENDBRANCH  12  32
BRANCH  16  34
ATOM     34  C   UNL     1      -4.446  14.085  20.607  0.00  0.00    +0.000 C 
BRANCH  34  35
ATOM     35  C   UNL     1      -5.566  15.122  20.661  0.00  0.00    +0.000 C 
ATOM     36  C   UNL     1      -6.792  15.020  21.221  0.00  0.00    +0.000 C 
ATOM     37  C   UNL     1      -7.310  13.833  21.990  0.00  0.00    +0.000 C 
ATOM     38  C   UNL     1      -7.784  16.145  21.058  0.00  0.00    +0.000 C 
ENDBRANCH  34  35
ENDBRANCH  16  34
TORSDOF 7
ENDMDL
MODEL 8
REMARK VINA RESULT:      -6.2      1.599      2.493
REMARK  Name = 
REMARK  14 active torsions:
REMARK  status: ('A' for Active; 'I' for Inactive)
REMARK    1  A    between atoms: C_2  and  C_3
REMARK    2  A    between atoms: C_3  and  C_4
REMARK    3  A    between atoms: C_3  and  C_5
REMARK    4  A    between atoms: C_3  and  C_6
REMARK    5  A    between atoms: C_7  and  O_8
REMARK    6  A    between atoms: C_10  and  O_11
REMARK    7  A    between atoms: C_19  and  O_20
REMARK    8  A    between atoms: O_20  and  C_21
REMARK    9  A    between atoms: C_25  and  C_26
REMARK   10  A    between atoms: C_26  and  C_27
REMARK   11  A    between atoms: C_28  and  C_29
REMARK   12  A    between atoms: C_28  and  C_30
REMARK   13  A    between atoms: C_32  and  C_33
REMARK   14  A    between atoms: C_32  and  C_34
REMARK                            x       y       z     vdW  Elec       q    Type
REMARK                         _______ _______ _______ _____ _____    ______ ____
ROOT
ATOM      1  C   UNL     1      -0.140  13.248  20.947  0.00  0.00    +0.000 A 
ATOM      2  C   UNL     1       0.521  12.012  20.886  0.00  0.00    +0.000 A 
ATOM      3  C   UNL     1       0.194  10.931  21.737  0.00  0.00    +0.000 A 
ATOM      4  C   UNL     1      -0.873  11.010  22.628  0.00  0.00    +0.000 A 
ATOM      5  C   UNL     1      -1.581  12.204  22.726  0.00  0.00    +0.000 A 
ATOM      6  C   UNL     1      -1.143  13.325  21.982  0.00  0.00    +0.000 A 
ATOM      7  O   UNL     1      -1.697  14.551  22.241  0.00  0.00    +0.000 OA
ATOM      8  C   UNL     1      -3.109  14.479  22.288  0.00  0.00    +0.000 C 
ATOM      9  C   UNL     1      -3.693  15.899  22.672  0.00  0.00    +0.000 C 
ATOM     10  C   UNL     1      -4.972  15.886  21.881  0.00  0.00    +0.000 C 
ATOM     11  C   UNL     1      -5.650  14.476  22.009  0.00  0.00    +0.000 C 
ATOM     12  C   UNL     1      -5.154  13.735  23.292  0.00  0.00    +0.000 C 
ATOM     13  C   UNL     1      -3.620  13.605  23.425  0.00  0.00    +0.000 C 
ATOM     14  C   UNL     1      -2.885  12.293  23.479  0.00  0.00    +0.000 C 
ATOM     15  O   UNL     1      -3.315  11.365  24.174  0.00  0.00    +0.000 OA
ATOM     16  C   UNL     1      -5.253  14.278  20.589  0.00  0.00    +0.000 C 
ATOM     17  O   UNL     1      -5.697  15.645  20.131  0.00  0.00    +0.000 OA
ATOM     18  C   UNL     1      -6.254  16.478  21.394  0.00  0.00    +0.000 C 
ATOM     19  C   UNL     1      -6.046  17.726  22.282  0.00  0.00    +0.000 C 
ATOM     20  C   UNL     1      -7.185  17.126  20.357  0.00  0.00    +0.000 C 
ATOM     21  C   UNL     1      -3.783  13.821  20.939  0.00  0.00    +0.000 C 
ATOM     22  O   UNL     1      -3.280  12.830  20.401  0.00  0.00    +0.000 OA
ENDROOT
BRANCH   1  23
ATOM     23  C   UNL     1       0.018  14.440  19.934  0.00  0.00    +0.000 C 
ATOM     24  C   UNL     1       1.487  14.949  19.934  0.00  0.00    +0.000 C 
ATOM     25  C   UNL     1      -0.789  15.725  20.241  0.00  0.00    +0.000 C 
BRANCH  23  27
ATOM     26  C   UNL     1      -0.883  12.844  18.128  0.00  0.00    +0.000 C 
ATOM     27  C   UNL     1      -0.459  14.050  18.532  0.00  0.00    +0.000 C 
ENDBRANCH  23  27
ENDBRANCH   1  23
BRANCH   2  28
ATOM     28  O   UNL     1       1.543  11.649  20.056  0.00  0.00    +0.000 OA
ATOM     29  H   UNL     1       1.773  12.338  19.430  0.00  0.00    +0.000 HD
ENDBRANCH   2  28
BRANCH   4  30
ATOM     30  O   UNL     1      -1.185   9.920  23.379  0.00  0.00    +0.000 OA
ATOM     31  H   UNL     1      -1.924  10.122  23.972  0.00  0.00    +0.000 HD
ENDBRANCH   4  30
BRANCH  12  32
ATOM     32  O   UNL     1      -5.968  12.650  23.673  0.00  0.00    +0.000 OA
ATOM     33  C   UNL     1      -7.312  12.961  23.959  0.00  0.00    +0.000 C 
ENDBRANCH  12  32
BRANCH  16  34
ATOM     34  C   UNL     1      -5.882  13.299  19.586  0.00  0.00    +0.000 C 
BRANCH  34  35
ATOM     35  C   UNL     1      -6.692  12.236  20.327  0.00  0.00    +0.000 C 
ATOM     36  C   UNL     1      -7.006  10.981  19.937  0.00  0.00    +0.000 C 
ATOM     37  C   UNL     1      -6.555  10.320  18.660  0.00  0.00    +0.000 C 
ATOM     38  C   UNL     1      -7.916  10.137  20.794  0.00  0.00    +0.000 C 
ENDBRANCH  34  35
ENDBRANCH  16  34
TORSDOF 7
ENDMDL
MODEL 9
REMARK VINA RESULT:      -6.2      1.110      1.484
REMARK  Name = 
REMARK  14 active torsions:
REMARK  status: ('A' for Active; 'I' for Inactive)
REMARK    1  A    between atoms: C_2  and  C_3
REMARK    2  A    between atoms: C_3  and  C_4
REMARK    3  A    between atoms: C_3  and  C_5
REMARK    4  A    between atoms: C_3  and  C_6
REMARK    5  A    between atoms: C_7  and  O_8
REMARK    6  A    between atoms: C_10  and  O_11
REMARK    7  A    between atoms: C_19  and  O_20
REMARK    8  A    between atoms: O_20  and  C_21
REMARK    9  A    between atoms: C_25  and  C_26
REMARK   10  A    between atoms: C_26  and  C_27
REMARK   11  A    between atoms: C_28  and  C_29
REMARK   12  A    between atoms: C_28  and  C_30
REMARK   13  A    between atoms: C_32  and  C_33
REMARK   14  A    between atoms: C_32  and  C_34
REMARK                            x       y       z     vdW  Elec       q    Type
REMARK                         _______ _______ _______ _____ _____    ______ ____
ROOT
ATOM      1  C   UNL     1       1.314  13.871  19.702  0.00  0.00    +0.000 A 
ATOM      2  C   UNL     1       1.582  12.872  18.753  0.00  0.00    +0.000 A 
ATOM      3  C   UNL     1       1.219  11.519  18.950  0.00  0.00    +0.000 A 
ATOM      4  C   UNL     1       0.491  11.122  20.068  0.00  0.00    +0.000 A 
ATOM      5  C   UNL     1       0.179  12.068  21.040  0.00  0.00    +0.000 A 
ATOM      6  C   UNL     1       0.683  13.382  20.905  0.00  0.00    +0.000 A 
ATOM      7  O   UNL     1       0.566  14.250  21.959  0.00  0.00    +0.000 OA
ATOM      8  C   UNL     1      -0.748  14.250  22.482  0.00  0.00    +0.000 C 
ATOM      9  C   UNL     1      -0.809  15.202  23.746  0.00  0.00    +0.000 C 
ATOM     10  C   UNL     1      -2.209  15.735  23.613  0.00  0.00    +0.000 C 
ATOM     11  C   UNL     1      -3.177  14.566  23.215  0.00  0.00    +0.000 C 
ATOM     12  C   UNL     1      -2.571  13.182  23.614  0.00  0.00    +0.000 C 
ATOM     13  C   UNL     1      -1.149  12.907  23.075  0.00  0.00    +0.000 C 
ATOM     14  C   UNL     1      -0.803  11.774  22.147  0.00  0.00    +0.000 C 
ATOM     15  O   UNL     1      -1.262  10.642  22.344  0.00  0.00    +0.000 OA
ATOM     16  C   UNL     1      -3.243  15.220  21.881  0.00  0.00    +0.000 C 
ATOM     17  O   UNL     1      -3.413  16.618  22.422  0.00  0.00    +0.000 OA
ATOM     18  C   UNL     1      -3.369  16.576  24.033  0.00  0.00    +0.000 C 
ATOM     19  C   UNL     1      -2.607  17.044  25.294  0.00  0.00    +0.000 C 
ATOM     20  C   UNL     1      -4.336  17.767  23.934  0.00  0.00    +0.000 C 
ATOM     21  C   UNL     1      -1.909  14.557  21.357  0.00  0.00    +0.000 C 
ATOM     22  O   UNL     1      -1.851  14.046  20.235  0.00  0.00    +0.000 OA
ENDROOT
BRANCH   1  23
ATOM     23  C   UNL     1       1.506  15.419  19.504  0.00  0.00    +0.000 C 
ATOM     24  C   UNL     1       1.715  16.112  20.880  0.00  0.00    +0.000 C 
ATOM     25  C   UNL     1       0.309  16.197  18.907  0.00  0.00    +0.000 C 
BRANCH  23  27
ATOM     26  C   UNL     1       2.666  16.666  17.575  0.00  0.00    +0.000 C 
ATOM     27  C   UNL     1       2.646  15.721  18.527  0.00  0.00    +0.000 C 
ENDBRANCH  23  27
ENDBRANCH   1  23
BRANCH   2  28
ATOM     28  O   UNL     1       2.210  13.008  17.548  0.00  0.00    +0.000 OA
ATOM     29  H   UNL     1       2.085  13.877  17.163  0.00  0.00    +0.000 HD
ENDBRANCH   2  28
BRANCH   4  30
ATOM     30  O   UNL     1       0.114   9.820  20.178  0.00  0.00    +0.000 OA
ATOM     31  H   UNL     1      -0.633   9.636  19.590  0.00  0.00    +0.000 HD
ENDBRANCH   4  30
BRANCH  12  32
ATOM     32  O   UNL     1      -3.511  12.133  23.632  0.00  0.00    +0.000 OA
ATOM     33  C   UNL     1      -4.551  12.256  24.574  0.00  0.00    +0.000 C 
ENDBRANCH  12  32
BRANCH  16  34
ATOM     34  C   UNL     1      -4.354  15.062  20.832  0.00  0.00    +0.000 C 
BRANCH  34  35
ATOM     35  C   UNL     1      -5.322  13.959  21.255  0.00  0.00    +0.000 C 
ATOM     36  C   UNL     1      -5.581  12.777  20.653  0.00  0.00    +0.000 C 
ATOM     37  C   UNL     1      -4.898  12.255  19.416  0.00  0.00    +0.000 C 
ATOM     38  C   UNL     1      -6.666  11.882  21.198  0.00  0.00    +0.000 C 
ENDBRANCH  34  35
ENDBRANCH  16  34
TORSDOF 7
ENDMDL
