MODEL 1
REMARK VINA RESULT:      -7.0      0.000      0.000
REMARK  Name = 
REMARK  8 active torsions:
REMARK  status: ('A' for Active; 'I' for Inactive)
REMARK    1  A    between atoms: C_2  and  C_4
REMARK    2  A    between atoms: C_8  and  O_9
REMARK    3  A    between atoms: O_9  and  C_10
REMARK    4  A    between atoms: C_10  and  C_11
REMARK    5  A    between atoms: C_11  and  C_12
REMARK    6  A    between atoms: C_12  and  C_13
REMARK    7  A    between atoms: C_13  and  O_14
REMARK    8  A    between atoms: O_14  and  C_15
REMARK                            x       y       z     vdW  Elec       q    Type
REMARK                         _______ _______ _______ _____ _____    ______ ____
ROOT
ATOM      1  O   UNL     1       3.560   3.554  17.626  0.00  0.00    +0.000 OA
ENDROOT
BRANCH   1   6
ATOM      2  C   UNL     1       6.909   5.116  18.076  0.00  0.00    +0.000 A 
ATOM      3  C   UNL     1       7.400   4.961  16.775  0.00  0.00    +0.000 A 
ATOM      4  C   UNL     1       6.603   4.358  15.800  0.00  0.00    +0.000 A 
ATOM      5  C   UNL     1       5.319   3.909  16.126  0.00  0.00    +0.000 A 
ATOM      6  C   UNL     1       4.828   4.045  17.425  0.00  0.00    +0.000 A 
ATOM      7  C   UNL     1       5.630   4.646  18.399  0.00  0.00    +0.000 A 
BRANCH   2   9
ATOM      8  N   UNL     1       8.328   6.936  18.852  0.00  0.00    +0.000 N 
ATOM      9  C   UNL     1       7.706   5.757  19.155  0.00  0.00    +0.000 C 
ATOM     10  O   UNL     1       7.764   5.280  20.281  0.00  0.00    +0.000 OA
ATOM     11  H   UNL     1       8.763   7.421  19.626  0.00  0.00    +0.000 HD
ATOM     12  H   UNL     1       8.081   7.480  18.039  0.00  0.00    +0.000 HD
ENDBRANCH   2   9
ENDBRANCH   1   6
BRANCH   1  13
ATOM     13  C   UNL     1       3.446   2.604  18.684  0.00  0.00    +0.000 C 
BRANCH  13  14
ATOM     14  C   UNL     1       2.077   2.709  19.354  0.00  0.00    +0.000 C 
BRANCH  14  15
ATOM     15  C   UNL     1       1.539   4.145  19.334  0.00  0.00    +0.000 C 
BRANCH  15  16
ATOM     16  C   UNL     1       2.094   4.991  20.480  0.00  0.00    +0.000 C 
BRANCH  16  17
ATOM     17  O   UNL     1       2.962   5.999  19.964  0.00  0.00    +0.000 OA
BRANCH  17  18
ATOM     18  C   UNL     1       2.336   7.181  19.652  0.00  0.00    +0.000 A 
ATOM     19  C   UNL     1       2.478   7.595  18.329  0.00  0.00    +0.000 A 
ATOM     20  C   UNL     1       1.906   8.795  17.899  0.00  0.00    +0.000 A 
ATOM     21  C   UNL     1       1.170   9.577  18.790  0.00  0.00    +0.000 A 
ATOM     22  C   UNL     1       1.000   9.153  20.105  0.00  0.00    +0.000 A 
ATOM     23  C   UNL     1       1.578   7.955  20.535  0.00  0.00    +0.000 A 
ENDBRANCH  17  18
ENDBRANCH  16  17
ENDBRANCH  15  16
ENDBRANCH  14  15
ENDBRANCH  13  14
ENDBRANCH   1  13
TORSDOF 8
ENDMDL
MODEL 2
REMARK VINA RESULT:      -6.9      3.271      6.606
REMARK  Name = 
REMARK  8 active torsions:
REMARK  status: ('A' for Active; 'I' for Inactive)
REMARK    1  A    between atoms: C_2  and  C_4
REMARK    2  A    between atoms: C_8  and  O_9
REMARK    3  A    between atoms: O_9  and  C_10
REMARK    4  A    between atoms: C_10  and  C_11
REMARK    5  A    between atoms: C_11  and  C_12
REMARK    6  A    between atoms: C_12  and  C_13
REMARK    7  A    between atoms: C_13  and  O_14
REMARK    8  A    between atoms: O_14  and  C_15
REMARK                            x       y       z     vdW  Elec       q    Type
REMARK                         _______ _______ _______ _____ _____    ______ ____
ROOT
ATOM      1  O   UNL     1       6.256   4.160  18.651  0.00  0.00    +0.000 OA
ENDROOT
BRANCH   1   6
ATOM      2  C   UNL     1       2.582   4.031  19.234  0.00  0.00    +0.000 A 
ATOM      3  C   UNL     1       2.185   3.492  18.006  0.00  0.00    +0.000 A 
ATOM      4  C   UNL     1       3.144   3.182  17.040  0.00  0.00    +0.000 A 
ATOM      5  C   UNL     1       4.498   3.414  17.301  0.00  0.00    +0.000 A 
ATOM      6  C   UNL     1       4.903   3.967  18.517  0.00  0.00    +0.000 A 
ATOM      7  C   UNL     1       3.939   4.279  19.479  0.00  0.00    +0.000 A 
BRANCH   2   9
ATOM      8  N   UNL     1       0.544   3.535  20.468  0.00  0.00    +0.000 N 
ATOM      9  C   UNL     1       1.610   4.374  20.304  0.00  0.00    +0.000 C 
ATOM     10  O   UNL     1       1.778   5.336  21.043  0.00  0.00    +0.000 OA
ATOM     11  H   UNL     1      -0.042   3.710  21.274  0.00  0.00    +0.000 HD
ATOM     12  H   UNL     1       0.523   2.608  20.068  0.00  0.00    +0.000 HD
ENDBRANCH   2   9
ENDBRANCH   1   6
BRANCH   1  13
ATOM     13  C   UNL     1       6.630   5.419  19.209  0.00  0.00    +0.000 C 
BRANCH  13  14
ATOM     14  C   UNL     1       7.551   6.177  18.254  0.00  0.00    +0.000 C 
BRANCH  14  15
ATOM     15  C   UNL     1       6.764   7.068  17.287  0.00  0.00    +0.000 C 
BRANCH  15  16
ATOM     16  C   UNL     1       6.286   6.307  16.051  0.00  0.00    +0.000 C 
BRANCH  16  17
ATOM     17  O   UNL     1       7.391   5.665  15.417  0.00  0.00    +0.000 OA
BRANCH  17  18
ATOM     18  C   UNL     1       7.076   5.010  14.253  0.00  0.00    +0.000 A 
ATOM     19  C   UNL     1       5.948   4.192  14.320  0.00  0.00    +0.000 A 
ATOM     20  C   UNL     1       5.542   3.456  13.205  0.00  0.00    +0.000 A 
ATOM     21  C   UNL     1       6.253   3.550  12.009  0.00  0.00    +0.000 A 
ATOM     22  C   UNL     1       7.362   4.388  11.927  0.00  0.00    +0.000 A 
ATOM     23  C   UNL     1       7.771   5.120  13.045  0.00  0.00    +0.000 A 
ENDBRANCH  17  18
ENDBRANCH  16  17
ENDBRANCH  15  16
ENDBRANCH  14  15
ENDBRANCH  13  14
ENDBRANCH   1  13
TORSDOF 8
ENDMDL
MODEL 3
REMARK VINA RESULT:      -6.9      3.447      5.771
REMARK  Name = 
REMARK  8 active torsions:
REMARK  status: ('A' for Active; 'I' for Inactive)
REMARK    1  A    between atoms: C_2  and  C_4
REMARK    2  A    between atoms: C_8  and  O_9
REMARK    3  A    between atoms: O_9  and  C_10
REMARK    4  A    between atoms: C_10  and  C_11
REMARK    5  A    between atoms: C_11  and  C_12
REMARK    6  A    between atoms: C_12  and  C_13
REMARK    7  A    between atoms: C_13  and  O_14
REMARK    8  A    between atoms: O_14  and  C_15
REMARK                            x       y       z     vdW  Elec       q    Type
REMARK                         _______ _______ _______ _____ _____    ______ ____
ROOT
ATOM      1  O   UNL     1       6.920   4.665  15.979  0.00  0.00    +0.000 OA
ENDROOT
BRANCH   1   6
ATOM      2  C   UNL     1       6.246   3.644  12.463  0.00  0.00    +0.000 A 
ATOM      3  C   UNL     1       7.129   4.511  11.811  0.00  0.00    +0.000 A 
ATOM      4  C   UNL     1       7.919   5.387  12.556  0.00  0.00    +0.000 A 
ATOM      5  C   UNL     1       7.824   5.400  13.951  0.00  0.00    +0.000 A 
ATOM      6  C   UNL     1       6.933   4.551  14.610  0.00  0.00    +0.000 A 
ATOM      7  C   UNL     1       6.142   3.678  13.859  0.00  0.00    +0.000 A 
BRANCH   2   9
ATOM      8  N   UNL     1       4.126   3.102  11.397  0.00  0.00    +0.000 N 
ATOM      9  C   UNL     1       5.385   2.683  11.726  0.00  0.00    +0.000 C 
ATOM     10  O   UNL     1       5.796   1.583  11.383  0.00  0.00    +0.000 OA
ATOM     11  H   UNL     1       3.596   2.487  10.793  0.00  0.00    +0.000 HD
ATOM     12  H   UNL     1       3.859   4.075  11.424  0.00  0.00    +0.000 HD
ENDBRANCH   2   9
ENDBRANCH   1   6
BRANCH   1  13
ATOM     13  C   UNL     1       6.480   5.930  16.471  0.00  0.00    +0.000 C 
BRANCH  13  14
ATOM     14  C   UNL     1       7.427   6.443  17.555  0.00  0.00    +0.000 C 
BRANCH  14  15
ATOM     15  C   UNL     1       7.358   5.587  18.825  0.00  0.00    +0.000 C 
BRANCH  15  16
ATOM     16  C   UNL     1       5.922   5.350  19.291  0.00  0.00    +0.000 C 
BRANCH  16  17
ATOM     17  O   UNL     1       5.609   3.960  19.213  0.00  0.00    +0.000 OA
BRANCH  17  18
ATOM     18  C   UNL     1       4.329   3.689  18.797  0.00  0.00    +0.000 A 
ATOM     19  C   UNL     1       3.560   4.808  18.480  0.00  0.00    +0.000 A 
ATOM     20  C   UNL     1       2.234   4.660  18.068  0.00  0.00    +0.000 A 
ATOM     21  C   UNL     1       1.676   3.386  17.951  0.00  0.00    +0.000 A 
ATOM     22  C   UNL     1       2.449   2.263  18.237  0.00  0.00    +0.000 A 
ATOM     23  C   UNL     1       3.774   2.414  18.655  0.00  0.00    +0.000 A 
ENDBRANCH  17  18
ENDBRANCH  16  17
ENDBRANCH  15  16
ENDBRANCH  14  15
ENDBRANCH  13  14
ENDBRANCH   1  13
TORSDOF 8
ENDMDL
MODEL 4
REMARK VINA RESULT:      -6.9      1.852      2.579
REMARK  Name = 
REMARK  8 active torsions:
REMARK  status: ('A' for Active; 'I' for Inactive)
REMARK    1  A    between atoms: C_2  and  C_4
REMARK    2  A    between atoms: C_8  and  O_9
REMARK    3  A    between atoms: O_9  and  C_10
REMARK    4  A    between atoms: C_10  and  C_11
REMARK    5  A    between atoms: C_11  and  C_12
REMARK    6  A    between atoms: C_12  and  C_13
REMARK    7  A    between atoms: C_13  and  O_14
REMARK    8  A    between atoms: O_14  and  C_15
REMARK                            x       y       z     vdW  Elec       q    Type
REMARK                         _______ _______ _______ _____ _____    ______ ____
ROOT
ATOM      1  O   UNL     1       3.403   2.460  18.144  0.00  0.00    +0.000 OA
ENDROOT
BRANCH   1   6
ATOM      2  C   UNL     1       5.621   5.183  16.910  0.00  0.00    +0.000 A 
ATOM      3  C   UNL     1       6.107   5.643  18.139  0.00  0.00    +0.000 A 
ATOM      4  C   UNL     1       5.694   5.030  19.322  0.00  0.00    +0.000 A 
ATOM      5  C   UNL     1       4.793   3.961  19.278  0.00  0.00    +0.000 A 
ATOM      6  C   UNL     1       4.290   3.506  18.058  0.00  0.00    +0.000 A 
ATOM      7  C   UNL     1       4.704   4.125  16.876  0.00  0.00    +0.000 A 
BRANCH   2   9
ATOM      8  N   UNL     1       7.252   5.429  15.120  0.00  0.00    +0.000 N 
ATOM      9  C   UNL     1       6.030   5.788  15.616  0.00  0.00    +0.000 C 
ATOM     10  O   UNL     1       5.288   6.537  14.992  0.00  0.00    +0.000 OA
ATOM     11  H   UNL     1       7.465   5.751  14.184  0.00  0.00    +0.000 HD
ATOM     12  H   UNL     1       7.756   4.625  15.463  0.00  0.00    +0.000 HD
ENDBRANCH   2   9
ENDBRANCH   1   6
BRANCH   1  13
ATOM     13  C   UNL     1       2.103   2.814  18.615  0.00  0.00    +0.000 C 
BRANCH  13  14
ATOM     14  C   UNL     1       1.844   2.196  19.988  0.00  0.00    +0.000 C 
BRANCH  14  15
ATOM     15  C   UNL     1       1.400   3.246  21.014  0.00  0.00    +0.000 C 
BRANCH  15  16
ATOM     16  C   UNL     1       1.048   4.583  20.363  0.00  0.00    +0.000 C 
BRANCH  16  17
ATOM     17  O   UNL     1       2.007   5.572  20.734  0.00  0.00    +0.000 OA
BRANCH  17  18
ATOM     18  C   UNL     1       2.007   6.690  19.938  0.00  0.00    +0.000 A 
ATOM     19  C   UNL     1       1.483   7.839  20.530  0.00  0.00    +0.000 A 
ATOM     20  C   UNL     1       1.409   9.034  19.810  0.00  0.00    +0.000 A 
ATOM     21  C   UNL     1       1.878   9.089  18.497  0.00  0.00    +0.000 A 
ATOM     22  C   UNL     1       2.430   7.953  17.911  0.00  0.00    +0.000 A 
ATOM     23  C   UNL     1       2.498   6.757  18.631  0.00  0.00    +0.000 A 
ENDBRANCH  17  18
ENDBRANCH  16  17
ENDBRANCH  15  16
ENDBRANCH  14  15
ENDBRANCH  13  14
ENDBRANCH   1  13
TORSDOF 8
ENDMDL
MODEL 5
REMARK VINA RESULT:      -6.8      2.022      2.513
REMARK  Name = 
REMARK  8 active torsions:
REMARK  status: ('A' for Active; 'I' for Inactive)
REMARK    1  A    between atoms: C_2  and  C_4
REMARK    2  A    between atoms: C_8  and  O_9
REMARK    3  A    between atoms: O_9  and  C_10
REMARK    4  A    between atoms: C_10  and  C_11
REMARK    5  A    between atoms: C_11  and  C_12
REMARK    6  A    between atoms: C_12  and  C_13
REMARK    7  A    between atoms: C_13  and  O_14
REMARK    8  A    between atoms: O_14  and  C_15
REMARK                            x       y       z     vdW  Elec       q    Type
REMARK                         _______ _______ _______ _____ _____    ______ ____
ROOT
ATOM      1  O   UNL     1       3.017   2.692  17.815  0.00  0.00    +0.000 OA
ENDROOT
BRANCH   1   6
ATOM      2  C   UNL     1       6.040   4.335  16.394  0.00  0.00    +0.000 A 
ATOM      3  C   UNL     1       6.558   4.892  17.568  0.00  0.00    +0.000 A 
ATOM      4  C   UNL     1       5.897   4.695  18.781  0.00  0.00    +0.000 A 
ATOM      5  C   UNL     1       4.718   3.943  18.820  0.00  0.00    +0.000 A 
ATOM      6  C   UNL     1       4.184   3.398  17.651  0.00  0.00    +0.000 A 
ATOM      7  C   UNL     1       4.848   3.601  16.438  0.00  0.00    +0.000 A 
BRANCH   2   9
ATOM      8  N   UNL     1       6.305   3.665  14.069  0.00  0.00    +0.000 N 
ATOM      9  C   UNL     1       6.702   4.502  15.074  0.00  0.00    +0.000 C 
ATOM     10  O   UNL     1       7.531   5.381  14.876  0.00  0.00    +0.000 OA
ATOM     11  H   UNL     1       6.674   3.868  13.148  0.00  0.00    +0.000 HD
ATOM     12  H   UNL     1       5.453   3.127  14.123  0.00  0.00    +0.000 HD
ENDBRANCH   2   9
ENDBRANCH   1   6
BRANCH   1  13
ATOM     13  C   UNL     1       1.875   3.489  18.127  0.00  0.00    +0.000 C 
BRANCH  13  14
ATOM     14  C   UNL     1       1.269   3.057  19.462  0.00  0.00    +0.000 C 
BRANCH  14  15
ATOM     15  C   UNL     1       0.904   4.260  20.340  0.00  0.00    +0.000 C 
BRANCH  15  16
ATOM     16  C   UNL     1       2.105   5.162  20.621  0.00  0.00    +0.000 C 
BRANCH  16  17
ATOM     17  O   UNL     1       1.658   6.468  20.984  0.00  0.00    +0.000 OA
BRANCH  17  18
ATOM     18  C   UNL     1       1.783   7.406  19.990  0.00  0.00    +0.000 A 
ATOM     19  C   UNL     1       2.557   7.015  18.898  0.00  0.00    +0.000 A 
ATOM     20  C   UNL     1       2.775   7.894  17.835  0.00  0.00    +0.000 A 
ATOM     21  C   UNL     1       2.201   9.166  17.851  0.00  0.00    +0.000 A 
ATOM     22  C   UNL     1       1.402   9.551  18.924  0.00  0.00    +0.000 A 
ATOM     23  C   UNL     1       1.189   8.672  19.990  0.00  0.00    +0.000 A 
ENDBRANCH  17  18
ENDBRANCH  16  17
ENDBRANCH  15  16
ENDBRANCH  14  15
ENDBRANCH  13  14
ENDBRANCH   1  13
TORSDOF 8
ENDMDL
MODEL 6
REMARK VINA RESULT:      -6.8      3.411      5.568
REMARK  Name = 
REMARK  8 active torsions:
REMARK  status: ('A' for Active; 'I' for Inactive)
REMARK    1  A    between atoms: C_2  and  C_4
REMARK    2  A    between atoms: C_8  and  O_9
REMARK    3  A    between atoms: O_9  and  C_10
REMARK    4  A    between atoms: C_10  and  C_11
REMARK    5  A    between atoms: C_11  and  C_12
REMARK    6  A    between atoms: C_12  and  C_13
REMARK    7  A    between atoms: C_13  and  O_14
REMARK    8  A    between atoms: O_14  and  C_15
REMARK                            x       y       z     vdW  Elec       q    Type
REMARK                         _______ _______ _______ _____ _____    ______ ____
ROOT
ATOM      1  O   UNL     1       6.245   5.171  15.753  0.00  0.00    +0.000 OA
ENDROOT
BRANCH   1   6
ATOM      2  C   UNL     1       6.141   3.582  12.388  0.00  0.00    +0.000 A 
ATOM      3  C   UNL     1       7.223   4.246  11.799  0.00  0.00    +0.000 A 
ATOM      4  C   UNL     1       7.949   5.180  12.539  0.00  0.00    +0.000 A 
ATOM      5  C   UNL     1       7.593   5.454  13.863  0.00  0.00    +0.000 A 
ATOM      6  C   UNL     1       6.505   4.809  14.453  0.00  0.00    +0.000 A 
ATOM      7  C   UNL     1       5.778   3.876  13.709  0.00  0.00    +0.000 A 
BRANCH   2   9
ATOM      8  N   UNL     1       5.886   1.330  11.500  0.00  0.00    +0.000 N 
ATOM      9  C   UNL     1       5.334   2.571  11.657  0.00  0.00    +0.000 C 
ATOM     10  O   UNL     1       4.205   2.817  11.254  0.00  0.00    +0.000 OA
ATOM     11  H   UNL     1       5.280   0.619  11.110  0.00  0.00    +0.000 HD
ATOM     12  H   UNL     1       6.678   1.021  12.045  0.00  0.00    +0.000 HD
ENDBRANCH   2   9
ENDBRANCH   1   6
BRANCH   1  13
ATOM     13  C   UNL     1       5.166   6.091  15.915  0.00  0.00    +0.000 C 
BRANCH  13  14
ATOM     14  C   UNL     1       4.964   6.427  17.392  0.00  0.00    +0.000 C 
BRANCH  14  15
ATOM     15  C   UNL     1       6.012   5.747  18.281  0.00  0.00    +0.000 C 
BRANCH  15  16
ATOM     16  C   UNL     1       5.384   4.784  19.288  0.00  0.00    +0.000 C 
BRANCH  16  17
ATOM     17  O   UNL     1       4.592   3.814  18.604  0.00  0.00    +0.000 OA
BRANCH  17  18
ATOM     18  C   UNL     1       3.315   3.679  19.090  0.00  0.00    +0.000 A 
ATOM     19  C   UNL     1       2.522   2.746  18.422  0.00  0.00    +0.000 A 
ATOM     20  C   UNL     1       1.197   2.538  18.811  0.00  0.00    +0.000 A 
ATOM     21  C   UNL     1       0.664   3.249  19.886  0.00  0.00    +0.000 A 
ATOM     22  C   UNL     1       1.460   4.160  20.576  0.00  0.00    +0.000 A 
ATOM     23  C   UNL     1       2.784   4.371  20.182  0.00  0.00    +0.000 A 
ENDBRANCH  17  18
ENDBRANCH  16  17
ENDBRANCH  15  16
ENDBRANCH  14  15
ENDBRANCH  13  14
ENDBRANCH   1  13
TORSDOF 8
ENDMDL
MODEL 7
REMARK VINA RESULT:      -6.8      3.395      5.621
REMARK  Name = 
REMARK  8 active torsions:
REMARK  status: ('A' for Active; 'I' for Inactive)
REMARK    1  A    between atoms: C_2  and  C_4
REMARK    2  A    between atoms: C_8  and  O_9
REMARK    3  A    between atoms: O_9  and  C_10
REMARK    4  A    between atoms: C_10  and  C_11
REMARK    5  A    between atoms: C_11  and  C_12
REMARK    6  A    between atoms: C_12  and  C_13
REMARK    7  A    between atoms: C_13  and  O_14
REMARK    8  A    between atoms: O_14  and  C_15
REMARK                            x       y       z     vdW  Elec       q    Type
REMARK                         _______ _______ _______ _____ _____    ______ ____
ROOT
ATOM      1  O   UNL     1       5.657   4.991  15.823  0.00  0.00    +0.000 OA
ENDROOT
BRANCH   1   6
ATOM      2  C   UNL     1       6.058   3.454  12.457  0.00  0.00    +0.000 A 
ATOM      3  C   UNL     1       7.209   4.133  12.042  0.00  0.00    +0.000 A 
ATOM      4  C   UNL     1       7.812   5.060  12.893  0.00  0.00    +0.000 A 
ATOM      5  C   UNL     1       7.264   5.311  14.155  0.00  0.00    +0.000 A 
ATOM      6  C   UNL     1       6.107   4.651  14.571  0.00  0.00    +0.000 A 
ATOM      7  C   UNL     1       5.504   3.725  13.714  0.00  0.00    +0.000 A 
BRANCH   2   9
ATOM      8  N   UNL     1       6.010   1.253  11.418  0.00  0.00    +0.000 N 
ATOM      9  C   UNL     1       5.375   2.449  11.600  0.00  0.00    +0.000 C 
ATOM     10  O   UNL     1       4.269   2.659  11.119  0.00  0.00    +0.000 OA
ATOM     11  H   UNL     1       5.482   0.537  10.936  0.00  0.00    +0.000 HD
ATOM     12  H   UNL     1       6.773   0.954  12.008  0.00  0.00    +0.000 HD
ENDBRANCH   2   9
ENDBRANCH   1   6
BRANCH   1  13
ATOM     13  C   UNL     1       5.206   6.338  15.953  0.00  0.00    +0.000 C 
BRANCH  13  14
ATOM     14  C   UNL     1       4.978   6.689  17.423  0.00  0.00    +0.000 C 
BRANCH  14  15
ATOM     15  C   UNL     1       3.673   7.466  17.630  0.00  0.00    +0.000 C 
BRANCH  15  16
ATOM     16  C   UNL     1       2.760   6.807  18.663  0.00  0.00    +0.000 C 
BRANCH  16  17
ATOM     17  O   UNL     1       3.391   5.644  19.198  0.00  0.00    +0.000 OA
BRANCH  17  18
ATOM     18  C   UNL     1       2.693   4.479  19.001  0.00  0.00    +0.000 A 
ATOM     19  C   UNL     1       1.648   4.255  19.897  0.00  0.00    +0.000 A 
ATOM     20  C   UNL     1       0.881   3.092  19.812  0.00  0.00    +0.000 A 
ATOM     21  C   UNL     1       1.144   2.152  18.814  0.00  0.00    +0.000 A 
ATOM     22  C   UNL     1       2.168   2.384  17.898  0.00  0.00    +0.000 A 
ATOM     23  C   UNL     1       2.938   3.547  17.989  0.00  0.00    +0.000 A 
ENDBRANCH  17  18
ENDBRANCH  16  17
ENDBRANCH  15  16
ENDBRANCH  14  15
ENDBRANCH  13  14
ENDBRANCH   1  13
TORSDOF 8
ENDMDL
MODEL 8
REMARK VINA RESULT:      -6.7      1.879      2.604
REMARK  Name = 
REMARK  8 active torsions:
REMARK  status: ('A' for Active; 'I' for Inactive)
REMARK    1  A    between atoms: C_2  and  C_4
REMARK    2  A    between atoms: C_8  and  O_9
REMARK    3  A    between atoms: O_9  and  C_10
REMARK    4  A    between atoms: C_10  and  C_11
REMARK    5  A    between atoms: C_11  and  C_12
REMARK    6  A    between atoms: C_12  and  C_13
REMARK    7  A    between atoms: C_13  and  O_14
REMARK    8  A    between atoms: O_14  and  C_15
REMARK                            x       y       z     vdW  Elec       q    Type
REMARK                         _______ _______ _______ _____ _____    ______ ____
ROOT
ATOM      1  O   UNL     1       3.589   2.972  18.607  0.00  0.00    +0.000 OA
ENDROOT
BRANCH   1   6
ATOM      2  C   UNL     1       6.183   4.653  16.532  0.00  0.00    +0.000 A 
ATOM      3  C   UNL     1       6.852   5.352  17.542  0.00  0.00    +0.000 A 
ATOM      4  C   UNL     1       6.429   5.231  18.867  0.00  0.00    +0.000 A 
ATOM      5  C   UNL     1       5.336   4.416  19.181  0.00  0.00    +0.000 A 
ATOM      6  C   UNL     1       4.652   3.729  18.177  0.00  0.00    +0.000 A 
ATOM      7  C   UNL     1       5.077   3.854  16.852  0.00  0.00    +0.000 A 
BRANCH   2   9
ATOM      8  N   UNL     1       5.761   4.149  14.188  0.00  0.00    +0.000 N 
ATOM      9  C   UNL     1       6.590   4.732  15.105  0.00  0.00    +0.000 C 
ATOM     10  O   UNL     1       7.597   5.335  14.755  0.00  0.00    +0.000 OA
ATOM     11  H   UNL     1       5.985   4.316  13.215  0.00  0.00    +0.000 HD
ATOM     12  H   UNL     1       4.811   3.890  14.411  0.00  0.00    +0.000 HD
ENDBRANCH   2   9
ENDBRANCH   1   6
BRANCH   1  13
ATOM     13  C   UNL     1       3.495   2.819  20.022  0.00  0.00    +0.000 C 
BRANCH  13  14
ATOM     14  C   UNL     1       2.037   2.882  20.474  0.00  0.00    +0.000 C 
BRANCH  14  15
ATOM     15  C   UNL     1       1.319   4.118  19.920  0.00  0.00    +0.000 C 
BRANCH  15  16
ATOM     16  C   UNL     1       1.723   5.400  20.648  0.00  0.00    +0.000 C 
BRANCH  16  17
ATOM     17  O   UNL     1       2.650   6.138  19.854  0.00  0.00    +0.000 OA
BRANCH  17  18
ATOM     18  C   UNL     1       2.192   7.363  19.438  0.00  0.00    +0.000 A 
ATOM     19  C   UNL     1       1.496   8.094  20.401  0.00  0.00    +0.000 A 
ATOM     20  C   UNL     1       0.962   9.346  20.088  0.00  0.00    +0.000 A 
ATOM     21  C   UNL     1       1.138   9.882  18.812  0.00  0.00    +0.000 A 
ATOM     22  C   UNL     1       1.858   9.171  17.855  0.00  0.00    +0.000 A 
ATOM     23  C   UNL     1       2.387   7.916  18.169  0.00  0.00    +0.000 A 
ENDBRANCH  17  18
ENDBRANCH  16  17
ENDBRANCH  15  16
ENDBRANCH  14  15
ENDBRANCH  13  14
ENDBRANCH   1  13
TORSDOF 8
ENDMDL
MODEL 9
REMARK VINA RESULT:      -6.7      4.386      6.988
REMARK  Name = 
REMARK  8 active torsions:
REMARK  status: ('A' for Active; 'I' for Inactive)
REMARK    1  A    between atoms: C_2  and  C_4
REMARK    2  A    between atoms: C_8  and  O_9
REMARK    3  A    between atoms: O_9  and  C_10
REMARK    4  A    between atoms: C_10  and  C_11
REMARK    5  A    between atoms: C_11  and  C_12
REMARK    6  A    between atoms: C_12  and  C_13
REMARK    7  A    between atoms: C_13  and  O_14
REMARK    8  A    between atoms: O_14  and  C_15
REMARK                            x       y       z     vdW  Elec       q    Type
REMARK                         _______ _______ _______ _____ _____    ______ ____
ROOT
ATOM      1  O   UNL     1       6.395   5.914  17.349  0.00  0.00    +0.000 OA
ENDROOT
BRANCH   1   6
ATOM      2  C   UNL     1       3.258   3.970  17.840  0.00  0.00    +0.000 A 
ATOM      3  C   UNL     1       2.369   5.033  18.026  0.00  0.00    +0.000 A 
ATOM      4  C   UNL     1       2.837   6.347  17.970  0.00  0.00    +0.000 A 
ATOM      5  C   UNL     1       4.192   6.598  17.732  0.00  0.00    +0.000 A 
ATOM      6  C   UNL     1       5.090   5.543  17.563  0.00  0.00    +0.000 A 
ATOM      7  C   UNL     1       4.618   4.228  17.622  0.00  0.00    +0.000 A 
BRANCH   2   9
ATOM      8  N   UNL     1       3.797   1.602  18.005  0.00  0.00    +0.000 N 
ATOM      9  C   UNL     1       2.821   2.550  17.879  0.00  0.00    +0.000 C 
ATOM     10  O   UNL     1       1.637   2.240  17.851  0.00  0.00    +0.000 OA
ATOM     11  H   UNL     1       3.480   0.652  18.153  0.00  0.00    +0.000 HD
ATOM     12  H   UNL     1       4.735   1.832  18.299  0.00  0.00    +0.000 HD
ENDBRANCH   2   9
ENDBRANCH   1   6
BRANCH   1  13
ATOM     13  C   UNL     1       7.226   5.874  18.509  0.00  0.00    +0.000 C 
BRANCH  13  14
ATOM     14  C   UNL     1       8.159   7.085  18.542  0.00  0.00    +0.000 C 
BRANCH  14  15
ATOM     15  C   UNL     1       7.743   8.155  17.526  0.00  0.00    +0.000 C 
BRANCH  15  16
ATOM     16  C   UNL     1       8.211   9.553  17.929  0.00  0.00    +0.000 C 
BRANCH  16  17
ATOM     17  O   UNL     1       8.999   9.479  19.116  0.00  0.00    +0.000 OA
BRANCH  17  18
ATOM     18  C   UNL     1       9.661  10.639  19.432  0.00  0.00    +0.000 A 
ATOM     19  C   UNL     1       9.457  11.103  20.731  0.00  0.00    +0.000 A 
ATOM     20  C   UNL     1      10.059  12.287  21.161  0.00  0.00    +0.000 A 
ATOM     21  C   UNL     1      10.887  13.005  20.296  0.00  0.00    +0.000 A 
ATOM     22  C   UNL     1      11.118  12.531  19.007  0.00  0.00    +0.000 A 
ATOM     23  C   UNL     1      10.510  11.348  18.577  0.00  0.00    +0.000 A 
ENDBRANCH  17  18
ENDBRANCH  16  17
ENDBRANCH  15  16
ENDBRANCH  14  15
ENDBRANCH  13  14
ENDBRANCH   1  13
TORSDOF 8
ENDMDL
