MODEL 1
REMARK VINA RESULT:      -8.6      0.000      0.000
REMARK  Name = 
REMARK  7 active torsions:
REMARK  status: ('A' for Active; 'I' for Inactive)
REMARK    1  A    between atoms: C_1  and  O_2
REMARK    2  A    between atoms: O_2  and  C_3
REMARK    3  A    between atoms: C_9  and  N_10
REMARK    4  A    between atoms: C_11  and  C_13
REMARK    5  A    between atoms: C_13  and  C_14
REMARK    6  A    between atoms: C_14  and  C_15
REMARK    7  A    between atoms: C_15  and  N_16
REMARK                            x       y       z     vdW  Elec       q    Type
REMARK                         _______ _______ _______ _____ _____    ______ ____
ROOT
ATOM      1  C   UNL     1       1.888   8.416  17.894  0.00  0.00    +0.000 C 
ENDROOT
BRANCH   1   2
ATOM      2  C   UNL     1       1.596   9.885  18.206  0.00  0.00    +0.000 C 
BRANCH   2   4
ATOM      3  N   UNL     1      -0.663  10.630  17.579  0.00  0.00    +0.000 N 
ATOM      4  C   UNL     1       0.132  10.064  18.567  0.00  0.00    +0.000 C 
ATOM      5  O   UNL     1      -0.247   9.729  19.688  0.00  0.00    +0.000 OA
ATOM      6  H   UNL     1      -0.324  10.639  16.622  0.00  0.00    +0.000 HD
BRANCH   3  13
ATOM      7  C   UNL     1      -2.960  10.788  16.712  0.00  0.00    +0.000 A 
ATOM      8  C   UNL     1      -4.305  11.155  16.896  0.00  0.00    +0.000 A 
ATOM      9  C   UNL     1      -4.716  11.794  18.066  0.00  0.00    +0.000 A 
ATOM     10  C   UNL     1      -3.786  12.072  19.056  0.00  0.00    +0.000 A 
ATOM     11 CL   UNL     1      -4.284  12.884  20.488  0.00  0.00    +0.000 Cl
ATOM     12  C   UNL     1      -2.451  11.700  18.898  0.00  0.00    +0.000 A 
ATOM     13  C   UNL     1      -2.022  11.032  17.742  0.00  0.00    +0.000 A 
BRANCH   7  15
ATOM     14  C   UNL     1      -3.400  10.151  14.460  0.00  0.00    +0.000 C 
ATOM     15  O   UNL     1      -2.499  10.166  15.571  0.00  0.00    +0.000 OA
ENDBRANCH   7  15
ENDBRANCH   3  13
ENDBRANCH   2   4
ENDBRANCH   1   2
BRANCH   1  16
ATOM     16  C   UNL     1       2.620   7.706  19.038  0.00  0.00    +0.000 C 
BRANCH  16  17
ATOM     17  N   UNL     1       2.845   6.287  18.750  0.00  0.00    +0.000 N 
ATOM     18  C   UNL     1       2.143   5.336  19.492  0.00  0.00    +0.000 A 
ATOM     19  O   UNL     1       1.351   5.650  20.380  0.00  0.00    +0.000 OA
ATOM     20  C   UNL     1       2.403   3.962  19.150  0.00  0.00    +0.000 A 
ATOM     21  C   UNL     1       1.895   2.803  19.702  0.00  0.00    +0.000 A 
ATOM     22  C   UNL     1       2.457   1.713  19.000  0.00  0.00    +0.000 A 
ATOM     23  C   UNL     1       3.296   2.238  18.041  0.00  0.00    +0.000 A 
ATOM     24  N   UNL     1       3.261   3.611  18.141  0.00  0.00    +0.000 N 
ATOM     25  C   UNL     1       3.944   4.571  17.381  0.00  0.00    +0.000 A 
ATOM     26  C   UNL     1       4.816   4.218  16.349  0.00  0.00    +0.000 A 
ATOM     27  C   UNL     1       5.458   5.229  15.645  0.00  0.00    +0.000 A 
ATOM     28  C   UNL     1       5.194   6.541  16.008  0.00  0.00    +0.000 A 
ATOM     29  N   UNL     1       4.354   6.900  17.003  0.00  0.00    +0.000 NA
ATOM     30  C   UNL     1       3.726   5.918  17.694  0.00  0.00    +0.000 A 
ENDBRANCH  16  17
ENDBRANCH   1  16
TORSDOF 6
ENDMDL
MODEL 2
REMARK VINA RESULT:      -8.5      6.681      8.653
REMARK  Name = 
REMARK  7 active torsions:
REMARK  status: ('A' for Active; 'I' for Inactive)
REMARK    1  A    between atoms: C_1  and  O_2
REMARK    2  A    between atoms: O_2  and  C_3
REMARK    3  A    between atoms: C_9  and  N_10
REMARK    4  A    between atoms: C_11  and  C_13
REMARK    5  A    between atoms: C_13  and  C_14
REMARK    6  A    between atoms: C_14  and  C_15
REMARK    7  A    between atoms: C_15  and  N_16
REMARK                            x       y       z     vdW  Elec       q    Type
REMARK                         _______ _______ _______ _____ _____    ______ ____
ROOT
ATOM      1  C   UNL     1       7.997   7.003  18.779  0.00  0.00    +0.000 C 
ENDROOT
BRANCH   1   2
ATOM      2  C   UNL     1       8.003   7.974  17.596  0.00  0.00    +0.000 C 
BRANCH   2   4
ATOM      3  N   UNL     1       9.217   9.501  19.095  0.00  0.00    +0.000 N 
ATOM      4  C   UNL     1       8.277   9.388  18.079  0.00  0.00    +0.000 C 
ATOM      5  O   UNL     1       7.652  10.318  17.574  0.00  0.00    +0.000 OA
ATOM      6  H   UNL     1       9.849   8.725  19.267  0.00  0.00    +0.000 HD
BRANCH   3  13
ATOM      7  C   UNL     1      10.377  11.667  19.228  0.00  0.00    +0.000 A 
ATOM      8  C   UNL     1      10.644  12.861  19.921  0.00  0.00    +0.000 A 
ATOM      9  C   UNL     1      10.110  13.082  21.191  0.00  0.00    +0.000 A 
ATOM     10  C   UNL     1       9.309  12.113  21.774  0.00  0.00    +0.000 A 
ATOM     11 CL   UNL     1       8.671  12.372  23.351  0.00  0.00    +0.000 Cl
ATOM     12  C   UNL     1       9.020  10.931  21.095  0.00  0.00    +0.000 A 
ATOM     13  C   UNL     1       9.523  10.698  19.807  0.00  0.00    +0.000 A 
BRANCH   7  15
ATOM     14  C   UNL     1      11.274  12.527  17.196  0.00  0.00    +0.000 C 
ATOM     15  O   UNL     1      10.890  11.392  17.977  0.00  0.00    +0.000 OA
ENDBRANCH   7  15
ENDBRANCH   3  13
ENDBRANCH   2   4
ENDBRANCH   1   2
BRANCH   1  16
ATOM     16  C   UNL     1       8.091   5.538  18.337  0.00  0.00    +0.000 C 
BRANCH  16  17
ATOM     17  N   UNL     1       6.789   5.004  17.929  0.00  0.00    +0.000 N 
ATOM     18  C   UNL     1       5.819   4.788  18.909  0.00  0.00    +0.000 A 
ATOM     19  O   UNL     1       6.025   5.025  20.099  0.00  0.00    +0.000 OA
ATOM     20  C   UNL     1       4.560   4.273  18.438  0.00  0.00    +0.000 A 
ATOM     21  C   UNL     1       3.423   3.936  19.146  0.00  0.00    +0.000 A 
ATOM     22  C   UNL     1       2.458   3.490  18.215  0.00  0.00    +0.000 A 
ATOM     23  C   UNL     1       3.035   3.562  16.965  0.00  0.00    +0.000 A 
ATOM     24  N   UNL     1       4.319   4.038  17.109  0.00  0.00    +0.000 N 
ATOM     25  C   UNL     1       5.289   4.280  16.126  0.00  0.00    +0.000 A 
ATOM     26  C   UNL     1       5.046   4.046  14.770  0.00  0.00    +0.000 A 
ATOM     27  C   UNL     1       6.060   4.309  13.858  0.00  0.00    +0.000 A 
ATOM     28  C   UNL     1       7.263   4.794  14.347  0.00  0.00    +0.000 A 
ATOM     29  N   UNL     1       7.515   5.026  15.653  0.00  0.00    +0.000 NA
ATOM     30  C   UNL     1       6.530   4.770  16.548  0.00  0.00    +0.000 A 
ENDBRANCH  16  17
ENDBRANCH   1  16
TORSDOF 6
ENDMDL
MODEL 3
REMARK VINA RESULT:      -8.4      1.375      2.877
REMARK  Name = 
REMARK  7 active torsions:
REMARK  status: ('A' for Active; 'I' for Inactive)
REMARK    1  A    between atoms: C_1  and  O_2
REMARK    2  A    between atoms: O_2  and  C_3
REMARK    3  A    between atoms: C_9  and  N_10
REMARK    4  A    between atoms: C_11  and  C_13
REMARK    5  A    between atoms: C_13  and  C_14
REMARK    6  A    between atoms: C_14  and  C_15
REMARK    7  A    between atoms: C_15  and  N_16
REMARK                            x       y       z     vdW  Elec       q    Type
REMARK                         _______ _______ _______ _____ _____    ______ ____
ROOT
ATOM      1  C   UNL     1       1.812   8.210  17.713  0.00  0.00    +0.000 C 
ENDROOT
BRANCH   1   2
ATOM      2  C   UNL     1       1.672   9.666  18.163  0.00  0.00    +0.000 C 
BRANCH   2   4
ATOM      3  N   UNL     1      -0.613  10.494  17.784  0.00  0.00    +0.000 N 
ATOM      4  C   UNL     1       0.269   9.920  18.689  0.00  0.00    +0.000 C 
ATOM      5  O   UNL     1       0.013   9.632  19.857  0.00  0.00    +0.000 OA
ATOM      6  H   UNL     1      -0.391  10.462  16.794  0.00  0.00    +0.000 HD
BRANCH   3  13
ATOM      7  C   UNL     1      -3.027  10.549  17.306  0.00  0.00    +0.000 A 
ATOM      8  C   UNL     1      -4.321  10.985  17.640  0.00  0.00    +0.000 A 
ATOM      9  C   UNL     1      -4.526  11.851  18.714  0.00  0.00    +0.000 A 
ATOM     10  C   UNL     1      -3.441  12.287  19.458  0.00  0.00    +0.000 A 
ATOM     11 CL   UNL     1      -3.688  13.377  20.766  0.00  0.00    +0.000 Cl
ATOM     12  C   UNL     1      -2.152  11.853  19.151  0.00  0.00    +0.000 A 
ATOM     13  C   UNL     1      -1.925  10.961  18.094  0.00  0.00    +0.000 A 
BRANCH   7  15
ATOM     14  C   UNL     1      -2.960  10.258  14.943  0.00  0.00    +0.000 C 
ATOM     15  O   UNL     1      -2.767   9.704  16.248  0.00  0.00    +0.000 OA
ENDBRANCH   7  15
ENDBRANCH   3  13
ENDBRANCH   2   4
ENDBRANCH   1   2
BRANCH   1  16
ATOM     16  C   UNL     1       2.721   7.393  18.637  0.00  0.00    +0.000 C 
BRANCH  16  17
ATOM     17  N   UNL     1       3.402   6.311  17.922  0.00  0.00    +0.000 N 
ATOM     18  C   UNL     1       4.565   6.610  17.209  0.00  0.00    +0.000 A 
ATOM     19  O   UNL     1       5.027   7.750  17.157  0.00  0.00    +0.000 OA
ATOM     20  C   UNL     1       5.189   5.500  16.539  0.00  0.00    +0.000 A 
ATOM     21  C   UNL     1       6.319   5.469  15.746  0.00  0.00    +0.000 A 
ATOM     22  C   UNL     1       6.518   4.130  15.340  0.00  0.00    +0.000 A 
ATOM     23  C   UNL     1       5.501   3.382  15.893  0.00  0.00    +0.000 A 
ATOM     24  N   UNL     1       4.692   4.226  16.621  0.00  0.00    +0.000 N 
ATOM     25  C   UNL     1       3.538   3.926  17.360  0.00  0.00    +0.000 A 
ATOM     26  C   UNL     1       3.031   2.627  17.450  0.00  0.00    +0.000 A 
ATOM     27  C   UNL     1       1.881   2.413  18.199  0.00  0.00    +0.000 A 
ATOM     28  C   UNL     1       1.299   3.507  18.821  0.00  0.00    +0.000 A 
ATOM     29  N   UNL     1       1.776   4.768  18.745  0.00  0.00    +0.000 NA
ATOM     30  C   UNL     1       2.896   4.983  18.015  0.00  0.00    +0.000 A 
ENDBRANCH  16  17
ENDBRANCH   1  16
TORSDOF 6
ENDMDL
MODEL 4
REMARK VINA RESULT:      -8.2      6.957     10.681
REMARK  Name = 
REMARK  7 active torsions:
REMARK  status: ('A' for Active; 'I' for Inactive)
REMARK    1  A    between atoms: C_1  and  O_2
REMARK    2  A    between atoms: O_2  and  C_3
REMARK    3  A    between atoms: C_9  and  N_10
REMARK    4  A    between atoms: C_11  and  C_13
REMARK    5  A    between atoms: C_13  and  C_14
REMARK    6  A    between atoms: C_14  and  C_15
REMARK    7  A    between atoms: C_15  and  N_16
REMARK                            x       y       z     vdW  Elec       q    Type
REMARK                         _______ _______ _______ _____ _____    ______ ____
ROOT
ATOM      1  C   UNL     1       8.875   9.726  19.208  0.00  0.00    +0.000 C 
ENDROOT
BRANCH   1   2
ATOM      2  C   UNL     1       8.437   9.308  17.803  0.00  0.00    +0.000 C 
BRANCH   2   4
ATOM      3  N   UNL     1       6.796   7.705  16.915  0.00  0.00    +0.000 N 
ATOM      4  C   UNL     1       7.808   7.925  17.839  0.00  0.00    +0.000 C 
ATOM      5  O   UNL     1       8.205   7.115  18.675  0.00  0.00    +0.000 OA
ATOM      6  H   UNL     1       6.713   8.329  16.119  0.00  0.00    +0.000 HD
BRANCH   3  13
ATOM      7  C   UNL     1       6.293   5.477  15.999  0.00  0.00    +0.000 A 
ATOM      8  C   UNL     1       5.486   4.326  15.981  0.00  0.00    +0.000 A 
ATOM      9  C   UNL     1       4.342   4.244  16.776  0.00  0.00    +0.000 A 
ATOM     10  C   UNL     1       3.997   5.312  17.590  0.00  0.00    +0.000 A 
ATOM     11 CL   UNL     1       2.573   5.226  18.550  0.00  0.00    +0.000 Cl
ATOM     12  C   UNL     1       4.794   6.455  17.632  0.00  0.00    +0.000 A 
ATOM     13  C   UNL     1       5.963   6.548  16.864  0.00  0.00    +0.000 A 
BRANCH   7  15
ATOM     14  C   UNL     1       7.389   4.976  13.946  0.00  0.00    +0.000 C 
ATOM     15  O   UNL     1       7.425   5.614  15.225  0.00  0.00    +0.000 OA
ENDBRANCH   7  15
ENDBRANCH   3  13
ENDBRANCH   2   4
ENDBRANCH   1   2
BRANCH   1  16
ATOM     16  C   UNL     1       9.945  10.823  19.188  0.00  0.00    +0.000 C 
BRANCH  16  17
ATOM     17  N   UNL     1       9.376  12.150  19.436  0.00  0.00    +0.000 N 
ATOM     18  C   UNL     1       9.290  13.049  18.373  0.00  0.00    +0.000 A 
ATOM     19  O   UNL     1       9.683  12.766  17.241  0.00  0.00    +0.000 OA
ATOM     20  C   UNL     1       8.711  14.330  18.683  0.00  0.00    +0.000 A 
ATOM     21  C   UNL     1       8.509  15.428  17.871  0.00  0.00    +0.000 A 
ATOM     22  C   UNL     1       7.894  16.431  18.655  0.00  0.00    +0.000 A 
ATOM     23  C   UNL     1       7.742  15.917  19.924  0.00  0.00    +0.000 A 
ATOM     24  N   UNL     1       8.246  14.636  19.935  0.00  0.00    +0.000 N 
ATOM     25  C   UNL     1       8.311  13.719  20.994  0.00  0.00    +0.000 A 
ATOM     26  C   UNL     1       7.834  14.025  22.271  0.00  0.00    +0.000 A 
ATOM     27  C   UNL     1       7.938  13.064  23.269  0.00  0.00    +0.000 A 
ATOM     28  C   UNL     1       8.511  11.845  22.937  0.00  0.00    +0.000 A 
ATOM     29  N   UNL     1       8.977  11.533  21.709  0.00  0.00    +0.000 NA
ATOM     30  C   UNL     1       8.880  12.467  20.733  0.00  0.00    +0.000 A 
ENDBRANCH  16  17
ENDBRANCH   1  16
TORSDOF 6
ENDMDL
MODEL 5
REMARK VINA RESULT:      -8.2      2.128      3.090
REMARK  Name = 
REMARK  7 active torsions:
REMARK  status: ('A' for Active; 'I' for Inactive)
REMARK    1  A    between atoms: C_1  and  O_2
REMARK    2  A    between atoms: O_2  and  C_3
REMARK    3  A    between atoms: C_9  and  N_10
REMARK    4  A    between atoms: C_11  and  C_13
REMARK    5  A    between atoms: C_13  and  C_14
REMARK    6  A    between atoms: C_14  and  C_15
REMARK    7  A    between atoms: C_15  and  N_16
REMARK                            x       y       z     vdW  Elec       q    Type
REMARK                         _______ _______ _______ _____ _____    ______ ____
ROOT
ATOM      1  C   UNL     1       1.593   8.249  18.237  0.00  0.00    +0.000 C 
ENDROOT
BRANCH   1   2
ATOM      2  C   UNL     1       1.962   9.672  17.815  0.00  0.00    +0.000 C 
BRANCH   2   4
ATOM      3  N   UNL     1       0.293  10.182  19.549  0.00  0.00    +0.000 N 
ATOM      4  C   UNL     1       1.308  10.681  18.744  0.00  0.00    +0.000 C 
ATOM      5  O   UNL     1       1.689  11.850  18.712  0.00  0.00    +0.000 OA
ATOM      6  H   UNL     1       0.223   9.178  19.685  0.00  0.00    +0.000 HD
BRANCH   3  13
ATOM      7  C   UNL     1      -0.280  11.091  21.763  0.00  0.00    +0.000 A 
ATOM      8  C   UNL     1      -1.106  11.895  22.568  0.00  0.00    +0.000 A 
ATOM      9  C   UNL     1      -2.222  12.535  22.030  0.00  0.00    +0.000 A 
ATOM     10  C   UNL     1      -2.520  12.374  20.685  0.00  0.00    +0.000 A 
ATOM     11 CL   UNL     1      -3.911  13.141  20.024  0.00  0.00    +0.000 Cl
ATOM     12  C   UNL     1      -1.703  11.595  19.868  0.00  0.00    +0.000 A 
ATOM     13  C   UNL     1      -0.561  10.965  20.381  0.00  0.00    +0.000 A 
BRANCH   7  15
ATOM     14  C   UNL     1       0.562   9.302  23.089  0.00  0.00    +0.000 C 
ATOM     15  O   UNL     1       0.827  10.427  22.246  0.00  0.00    +0.000 OA
ENDBRANCH   7  15
ENDBRANCH   3  13
ENDBRANCH   2   4
ENDBRANCH   1   2
BRANCH   1  16
ATOM     16  C   UNL     1       2.657   7.607  19.135  0.00  0.00    +0.000 C 
BRANCH  16  17
ATOM     17  N   UNL     1       2.874   6.196  18.807  0.00  0.00    +0.000 N 
ATOM     18  C   UNL     1       2.183   5.227  19.537  0.00  0.00    +0.000 A 
ATOM     19  O   UNL     1       1.407   5.520  20.446  0.00  0.00    +0.000 OA
ATOM     20  C   UNL     1       2.434   3.862  19.156  0.00  0.00    +0.000 A 
ATOM     21  C   UNL     1       1.933   2.690  19.688  0.00  0.00    +0.000 A 
ATOM     22  C   UNL     1       2.481   1.617  18.948  0.00  0.00    +0.000 A 
ATOM     23  C   UNL     1       3.305   2.165  17.988  0.00  0.00    +0.000 A 
ATOM     24  N   UNL     1       3.274   3.535  18.123  0.00  0.00    +0.000 N 
ATOM     25  C   UNL     1       3.946   4.514  17.377  0.00  0.00    +0.000 A 
ATOM     26  C   UNL     1       4.800   4.185  16.321  0.00  0.00    +0.000 A 
ATOM     27  C   UNL     1       5.432   5.213  15.632  0.00  0.00    +0.000 A 
ATOM     28  C   UNL     1       5.176   6.516  16.033  0.00  0.00    +0.000 A 
ATOM     29  N   UNL     1       4.354   6.850  17.051  0.00  0.00    +0.000 NA
ATOM     30  C   UNL     1       3.736   5.852  17.727  0.00  0.00    +0.000 A 
ENDBRANCH  16  17
ENDBRANCH   1  16
TORSDOF 6
ENDMDL
MODEL 6
REMARK VINA RESULT:      -8.1      1.175      2.804
REMARK  Name = 
REMARK  7 active torsions:
REMARK  status: ('A' for Active; 'I' for Inactive)
REMARK    1  A    between atoms: C_1  and  O_2
REMARK    2  A    between atoms: O_2  and  C_3
REMARK    3  A    between atoms: C_9  and  N_10
REMARK    4  A    between atoms: C_11  and  C_13
REMARK    5  A    between atoms: C_13  and  C_14
REMARK    6  A    between atoms: C_14  and  C_15
REMARK    7  A    between atoms: C_15  and  N_16
REMARK                            x       y       z     vdW  Elec       q    Type
REMARK                         _______ _______ _______ _____ _____    ______ ____
ROOT
ATOM      1  C   UNL     1       1.694   8.773  18.144  0.00  0.00    +0.000 C 
ENDROOT
BRANCH   1   2
ATOM      2  C   UNL     1       1.292  10.143  18.693  0.00  0.00    +0.000 C 
BRANCH   2   4
ATOM      3  N   UNL     1      -0.903  10.831  17.821  0.00  0.00    +0.000 N 
ATOM      4  C   UNL     1      -0.216  10.220  18.861  0.00  0.00    +0.000 C 
ATOM      5  O   UNL     1      -0.720   9.770  19.888  0.00  0.00    +0.000 OA
ATOM      6  H   UNL     1      -0.440  10.940  16.924  0.00  0.00    +0.000 HD
BRANCH   3  13
ATOM      7  C   UNL     1      -3.088  10.870  16.690  0.00  0.00    +0.000 A 
ATOM      8  C   UNL     1      -4.464  11.156  16.718  0.00  0.00    +0.000 A 
ATOM      9  C   UNL     1      -5.046  11.753  17.837  0.00  0.00    +0.000 A 
ATOM     10  C   UNL     1      -4.256  12.068  18.932  0.00  0.00    +0.000 A 
ATOM     11 CL   UNL     1      -4.966  12.829  20.302  0.00  0.00    +0.000 Cl
ATOM     12  C   UNL     1      -2.893  11.777  18.929  0.00  0.00    +0.000 A 
ATOM     13  C   UNL     1      -2.293  11.152  17.827  0.00  0.00    +0.000 A 
BRANCH   7  15
ATOM     14  C   UNL     1      -3.253  10.162  14.423  0.00  0.00    +0.000 C 
ATOM     15  O   UNL     1      -2.461  10.293  15.607  0.00  0.00    +0.000 OA
ENDBRANCH   7  15
ENDBRANCH   3  13
ENDBRANCH   2   4
ENDBRANCH   1   2
BRANCH   1  16
ATOM     16  C   UNL     1       2.209   7.830  19.237  0.00  0.00    +0.000 C 
BRANCH  16  17
ATOM     17  N   UNL     1       2.787   6.605  18.678  0.00  0.00    +0.000 N 
ATOM     18  C   UNL     1       3.749   6.719  17.673  0.00  0.00    +0.000 A 
ATOM     19  O   UNL     1       4.118   7.810  17.239  0.00  0.00    +0.000 OA
ATOM     20  C   UNL     1       4.283   5.478  17.176  0.00  0.00    +0.000 A 
ATOM     21  C   UNL     1       5.216   5.253  16.183  0.00  0.00    +0.000 A 
ATOM     22  C   UNL     1       5.407   3.855  16.087  0.00  0.00    +0.000 A 
ATOM     23  C   UNL     1       4.581   3.268  17.020  0.00  0.00    +0.000 A 
ATOM     24  N   UNL     1       3.895   4.264  17.679  0.00  0.00    +0.000 N 
ATOM     25  C   UNL     1       2.948   4.156  18.707  0.00  0.00    +0.000 A 
ATOM     26  C   UNL     1       2.553   2.920  19.226  0.00  0.00    +0.000 A 
ATOM     27  C   UNL     1       1.606   2.897  20.242  0.00  0.00    +0.000 A 
ATOM     28  C   UNL     1       1.104   4.111  20.688  0.00  0.00    +0.000 A 
ATOM     29  N   UNL     1       1.474   5.313  20.198  0.00  0.00    +0.000 NA
ATOM     30  C   UNL     1       2.396   5.341  19.206  0.00  0.00    +0.000 A 
ENDBRANCH  16  17
ENDBRANCH   1  16
TORSDOF 6
ENDMDL
MODEL 7
REMARK VINA RESULT:      -8.1      0.937      1.210
REMARK  Name = 
REMARK  7 active torsions:
REMARK  status: ('A' for Active; 'I' for Inactive)
REMARK    1  A    between atoms: C_1  and  O_2
REMARK    2  A    between atoms: O_2  and  C_3
REMARK    3  A    between atoms: C_9  and  N_10
REMARK    4  A    between atoms: C_11  and  C_13
REMARK    5  A    between atoms: C_13  and  C_14
REMARK    6  A    between atoms: C_14  and  C_15
REMARK    7  A    between atoms: C_15  and  N_16
REMARK                            x       y       z     vdW  Elec       q    Type
REMARK                         _______ _______ _______ _____ _____    ______ ____
ROOT
ATOM      1  C   UNL     1       1.873   8.495  17.829  0.00  0.00    +0.000 C 
ENDROOT
BRANCH   1   2
ATOM      2  C   UNL     1       1.649   9.987  18.082  0.00  0.00    +0.000 C 
BRANCH   2   4
ATOM      3  N   UNL     1      -0.474  11.213  18.287  0.00  0.00    +0.000 N 
ATOM      4  C   UNL     1       0.329  10.204  18.803  0.00  0.00    +0.000 C 
ATOM      5  O   UNL     1       0.069   9.511  19.784  0.00  0.00    +0.000 OA
ATOM      6  H   UNL     1      -0.295  11.551  17.346  0.00  0.00    +0.000 HD
BRANCH   3  13
ATOM      7  C   UNL     1      -2.904  11.589  18.187  0.00  0.00    +0.000 A 
ATOM      8  C   UNL     1      -4.089  12.036  18.798  0.00  0.00    +0.000 A 
ATOM      9  C   UNL     1      -4.062  12.621  20.064  0.00  0.00    +0.000 A 
ATOM     10  C   UNL     1      -2.852  12.765  20.726  0.00  0.00    +0.000 A 
ATOM     11 CL   UNL     1      -2.812  13.510  22.276  0.00  0.00    +0.000 Cl
ATOM     12  C   UNL     1      -1.669  12.313  20.143  0.00  0.00    +0.000 A 
ATOM     13  C   UNL     1      -1.676  11.697  18.883  0.00  0.00    +0.000 A 
BRANCH   7  15
ATOM     14  C   UNL     1      -4.121  10.969  16.237  0.00  0.00    +0.000 C 
ATOM     15  O   UNL     1      -2.872  11.016  16.934  0.00  0.00    +0.000 OA
ENDBRANCH   7  15
ENDBRANCH   3  13
ENDBRANCH   2   4
ENDBRANCH   1   2
BRANCH   1  16
ATOM     16  C   UNL     1       2.979   7.908  18.713  0.00  0.00    +0.000 C 
BRANCH  16  17
ATOM     17  N   UNL     1       2.963   6.442  18.712  0.00  0.00    +0.000 N 
ATOM     18  C   UNL     1       2.153   5.783  19.638  0.00  0.00    +0.000 A 
ATOM     19  O   UNL     1       1.462   6.391  20.455  0.00  0.00    +0.000 OA
ATOM     20  C   UNL     1       2.176   4.345  19.575  0.00  0.00    +0.000 A 
ATOM     21  C   UNL     1       1.516   3.416  20.354  0.00  0.00    +0.000 A 
ATOM     22  C   UNL     1       1.866   2.133  19.877  0.00  0.00    +0.000 A 
ATOM     23  C   UNL     1       2.734   2.315  18.822  0.00  0.00    +0.000 A 
ATOM     24  N   UNL     1       2.922   3.668  18.645  0.00  0.00    +0.000 N 
ATOM     25  C   UNL     1       3.714   4.336  17.701  0.00  0.00    +0.000 A 
ATOM     26  C   UNL     1       4.472   3.649  16.749  0.00  0.00    +0.000 A 
ATOM     27  C   UNL     1       5.234   4.384  15.849  0.00  0.00    +0.000 A 
ATOM     28  C   UNL     1       5.197   5.767  15.946  0.00  0.00    +0.000 A 
ATOM     29  N   UNL     1       4.470   6.446  16.859  0.00  0.00    +0.000 NA
ATOM     30  C   UNL     1       3.726   5.735  17.740  0.00  0.00    +0.000 A 
ENDBRANCH  16  17
ENDBRANCH   1  16
TORSDOF 6
ENDMDL
MODEL 8
REMARK VINA RESULT:      -8.0      2.495      3.302
REMARK  Name = 
REMARK  7 active torsions:
REMARK  status: ('A' for Active; 'I' for Inactive)
REMARK    1  A    between atoms: C_1  and  O_2
REMARK    2  A    between atoms: O_2  and  C_3
REMARK    3  A    between atoms: C_9  and  N_10
REMARK    4  A    between atoms: C_11  and  C_13
REMARK    5  A    between atoms: C_13  and  C_14
REMARK    6  A    between atoms: C_14  and  C_15
REMARK    7  A    between atoms: C_15  and  N_16
REMARK                            x       y       z     vdW  Elec       q    Type
REMARK                         _______ _______ _______ _____ _____    ______ ____
ROOT
ATOM      1  C   UNL     1       1.778   8.352  17.873  0.00  0.00    +0.000 C 
ENDROOT
BRANCH   1   2
ATOM      2  C   UNL     1       1.797   9.881  17.896  0.00  0.00    +0.000 C 
BRANCH   2   4
ATOM      3  N   UNL     1       1.028  11.086  19.898  0.00  0.00    +0.000 N 
ATOM      4  C   UNL     1       0.654  10.407  18.746  0.00  0.00    +0.000 C 
ATOM      5  O   UNL     1      -0.502  10.186  18.387  0.00  0.00    +0.000 OA
ATOM      6  H   UNL     1       1.980  11.431  19.977  0.00  0.00    +0.000 HD
BRANCH   3  13
ATOM      7  C   UNL     1      -0.314  10.626  21.908  0.00  0.00    +0.000 A 
ATOM      8  C   UNL     1      -1.162  11.083  22.933  0.00  0.00    +0.000 A 
ATOM      9  C   UNL     1      -1.595  12.408  22.962  0.00  0.00    +0.000 A 
ATOM     10  C   UNL     1      -1.186  13.283  21.967  0.00  0.00    +0.000 A 
ATOM     11 CL   UNL     1      -1.741  14.912  21.985  0.00  0.00    +0.000 Cl
ATOM     12  C   UNL     1      -0.332  12.853  20.953  0.00  0.00    +0.000 A 
ATOM     13  C   UNL     1       0.138  11.532  20.920  0.00  0.00    +0.000 A 
BRANCH   7  15
ATOM     14  C   UNL     1       1.352   9.037  22.516  0.00  0.00    +0.000 C 
ATOM     15  O   UNL     1       0.133   9.324  21.826  0.00  0.00    +0.000 OA
ENDBRANCH   7  15
ENDBRANCH   3  13
ENDBRANCH   2   4
ENDBRANCH   1   2
BRANCH   1  16
ATOM     16  C   UNL     1       2.819   7.736  18.816  0.00  0.00    +0.000 C 
BRANCH  16  17
ATOM     17  N   UNL     1       2.970   6.295  18.601  0.00  0.00    +0.000 N 
ATOM     18  C   UNL     1       2.230   5.420  19.397  0.00  0.00    +0.000 A 
ATOM     19  O   UNL     1       1.464   5.820  20.274  0.00  0.00    +0.000 OA
ATOM     20  C   UNL     1       2.418   4.019  19.127  0.00  0.00    +0.000 A 
ATOM     21  C   UNL     1       1.858   2.917  19.744  0.00  0.00    +0.000 A 
ATOM     22  C   UNL     1       2.358   1.765  19.095  0.00  0.00    +0.000 A 
ATOM     23  C   UNL     1       3.213   2.197  18.103  0.00  0.00    +0.000 A 
ATOM     24  N   UNL     1       3.246   3.573  18.131  0.00  0.00    +0.000 N 
ATOM     25  C   UNL     1       3.969   4.457  17.316  0.00  0.00    +0.000 A 
ATOM     26  C   UNL     1       4.811   4.007  16.297  0.00  0.00    +0.000 A 
ATOM     27  C   UNL     1       5.495   4.947  15.535  0.00  0.00    +0.000 A 
ATOM     28  C   UNL     1       5.299   6.287  15.831  0.00  0.00    +0.000 A 
ATOM     29  N   UNL     1       4.489   6.739  16.812  0.00  0.00    +0.000 NA
ATOM     30  C   UNL     1       3.821   5.828  17.559  0.00  0.00    +0.000 A 
ENDBRANCH  16  17
ENDBRANCH   1  16
TORSDOF 6
ENDMDL
MODEL 9
REMARK VINA RESULT:      -8.0      7.351     10.713
REMARK  Name = 
REMARK  7 active torsions:
REMARK  status: ('A' for Active; 'I' for Inactive)
REMARK    1  A    between atoms: C_1  and  O_2
REMARK    2  A    between atoms: O_2  and  C_3
REMARK    3  A    between atoms: C_9  and  N_10
REMARK    4  A    between atoms: C_11  and  C_13
REMARK    5  A    between atoms: C_13  and  C_14
REMARK    6  A    between atoms: C_14  and  C_15
REMARK    7  A    between atoms: C_15  and  N_16
REMARK                            x       y       z     vdW  Elec       q    Type
REMARK                         _______ _______ _______ _____ _____    ______ ____
ROOT
ATOM      1  C   UNL     1       8.242   9.879  18.441  0.00  0.00    +0.000 C 
ENDROOT
BRANCH   1   2
ATOM      2  C   UNL     1       8.449   8.836  17.341  0.00  0.00    +0.000 C 
BRANCH   2   4
ATOM      3  N   UNL     1       6.546   7.371  16.809  0.00  0.00    +0.000 N 
ATOM      4  C   UNL     1       7.636   7.588  17.641  0.00  0.00    +0.000 C 
ATOM      5  O   UNL     1       7.967   6.879  18.589  0.00  0.00    +0.000 OA
ATOM      6  H   UNL     1       6.501   7.860  15.920  0.00  0.00    +0.000 HD
BRANCH   3  13
ATOM      7  C   UNL     1       5.579   5.195  16.187  0.00  0.00    +0.000 A 
ATOM      8  C   UNL     1       4.622   4.187  16.398  0.00  0.00    +0.000 A 
ATOM      9  C   UNL     1       3.627   4.340  17.363  0.00  0.00    +0.000 A 
ATOM     10  C   UNL     1       3.581   5.501  18.120  0.00  0.00    +0.000 A 
ATOM     11 CL   UNL     1       2.338   5.704  19.292  0.00  0.00    +0.000 Cl
ATOM     12  C   UNL     1       4.531   6.504  17.936  0.00  0.00    +0.000 A 
ATOM     13  C   UNL     1       5.557   6.360  16.991  0.00  0.00    +0.000 A 
BRANCH   7  15
ATOM     14  C   UNL     1       6.448   4.026  14.303  0.00  0.00    +0.000 C 
ATOM     15  O   UNL     1       6.576   5.100  15.239  0.00  0.00    +0.000 OA
ENDBRANCH   7  15
ENDBRANCH   3  13
ENDBRANCH   2   4
ENDBRANCH   1   2
BRANCH   1  16
ATOM     16  C   UNL     1       9.450   9.992  19.378  0.00  0.00    +0.000 C 
BRANCH  16  17
ATOM     17  N   UNL     1       9.850  11.385  19.592  0.00  0.00    +0.000 N 
ATOM     18  C   UNL     1      10.588  12.028  18.597  0.00  0.00    +0.000 A 
ATOM     19  O   UNL     1      10.917  11.462  17.555  0.00  0.00    +0.000 OA
ATOM     20  C   UNL     1      10.939  13.398  18.867  0.00  0.00    +0.000 A 
ATOM     21  C   UNL     1      11.671  14.288  18.107  0.00  0.00    +0.000 A 
ATOM     22  C   UNL     1      11.718  15.512  18.811  0.00  0.00    +0.000 A 
ATOM     23  C   UNL     1      11.017  15.333  19.984  0.00  0.00    +0.000 A 
ATOM     24  N   UNL     1      10.547  14.039  20.013  0.00  0.00    +0.000 N 
ATOM     25  C   UNL     1       9.784  13.396  20.998  0.00  0.00    +0.000 A 
ATOM     26  C   UNL     1       9.379  14.047  22.166  0.00  0.00    +0.000 A 
ATOM     27  C   UNL     1       8.628  13.339  23.096  0.00  0.00    +0.000 A 
ATOM     28  C   UNL     1       8.318  12.018  22.809  0.00  0.00    +0.000 A 
ATOM     29  N   UNL     1       8.701  11.374  21.686  0.00  0.00    +0.000 NA
ATOM     30  C   UNL     1       9.435  12.059  20.776  0.00  0.00    +0.000 A 
ENDBRANCH  16  17
ENDBRANCH   1  16
TORSDOF 6
ENDMDL
