MODEL 1
REMARK VINA RESULT:      -7.4      0.000      0.000
REMARK  Name = 
REMARK  12 active torsions:
REMARK  status: ('A' for Active; 'I' for Inactive)
REMARK    1  A    between atoms: C_1  and  O_2
REMARK    2  A    between atoms: O_2  and  C_3
REMARK    3  A    between atoms: C_6  and  C_7
REMARK    4  A    between atoms: C_7  and  N_8
REMARK    5  A    between atoms: N_8  and  C_9
REMARK    6  A    between atoms: N_8  and  C_10
REMARK    7  A    between atoms: C_10  and  C_11
REMARK    8  A    between atoms: C_11  and  C_12
REMARK    9  A    between atoms: C_12  and  N_13
REMARK   10  A    between atoms: C_17  and  O_18
REMARK   11  A    between atoms: O_18  and  C_19
REMARK   12  A    between atoms: C_19  and  C_20
REMARK                            x       y       z     vdW  Elec       q    Type
REMARK                         _______ _______ _______ _____ _____    ______ ____
ROOT
ATOM      1  N   UNL     1       4.127   2.975  18.927  0.00  0.00    +0.000 N 
ATOM      2  C   UNL     1       3.363   2.713  17.822  0.00  0.00    +0.000 A 
ATOM      3  N   UNL     1       3.752   3.416  16.779  0.00  0.00    +0.000 NA
ATOM      4  C   UNL     1       4.813   4.169  17.239  0.00  0.00    +0.000 A 
ATOM      5  C   UNL     1       5.649   5.111  16.634  0.00  0.00    +0.000 A 
ATOM      6  N   UNL     1       6.631   5.706  17.360  0.00  0.00    +0.000 NA
ATOM      7  C   UNL     1       6.754   5.342  18.656  0.00  0.00    +0.000 A 
ATOM      8  N   UNL     1       6.016   4.454  19.352  0.00  0.00    +0.000 NA
ATOM      9  C   UNL     1       5.059   3.911  18.579  0.00  0.00    +0.000 A 
ENDROOT
BRANCH   1  10
ATOM     10  C   UNL     1       3.966   2.356  20.225  0.00  0.00    +0.000 C 
BRANCH  10  11
ATOM     11  C   UNL     1       2.679   2.810  20.909  0.00  0.00    +0.000 C 
BRANCH  11  12
ATOM     12  C   UNL     1       2.747   4.269  21.375  0.00  0.00    +0.000 C 
BRANCH  12  13
ATOM     13  N   UNL     1       1.854   5.182  20.634  0.00  0.00    +0.000 NA
ATOM     14  C   UNL     1       0.818   4.393  19.951  0.00  0.00    +0.000 C 
BRANCH  13  15
ATOM     15  C   UNL     1       2.610   6.005  19.671  0.00  0.00    +0.000 C 
BRANCH  15  19
ATOM     16  C   UNL     1       0.883   9.929  19.134  0.00  0.00    +0.000 A 
ATOM     17  C   UNL     1       1.516   9.291  18.062  0.00  0.00    +0.000 A 
ATOM     18  C   UNL     1       2.093   8.031  18.236  0.00  0.00    +0.000 A 
ATOM     19  C   UNL     1       2.064   7.404  19.487  0.00  0.00    +0.000 A 
ATOM     20  C   UNL     1       1.462   8.067  20.565  0.00  0.00    +0.000 A 
ATOM     21  C   UNL     1       0.879   9.323  20.388  0.00  0.00    +0.000 A 
BRANCH  16  23
ATOM     22  C   UNL     1       0.316  12.066  19.943  0.00  0.00    +0.000 C 
ATOM     23  O   UNL     1       0.340  11.151  18.852  0.00  0.00    +0.000 OA
ENDBRANCH  16  23
ENDBRANCH  15  19
ENDBRANCH  13  15
ENDBRANCH  12  13
ENDBRANCH  11  12
ENDBRANCH  10  11
ENDBRANCH   1  10
BRANCH   5  24
ATOM     24  O   UNL     1       5.527   5.378  15.288  0.00  0.00    +0.000 OA
BRANCH  24  25
ATOM     25  C   UNL     1       6.704   5.057  14.556  0.00  0.00    +0.000 C 
BRANCH  25  26
ATOM     26  C   UNL     1       6.295   4.186  13.389  0.00  0.00    +0.000 A 
ATOM     27  C   UNL     1       7.267   3.596  12.567  0.00  0.00    +0.000 A 
ATOM     28  C   UNL     1       6.892   2.809  11.477  0.00  0.00    +0.000 A 
ATOM     29  C   UNL     1       5.542   2.599  11.201  0.00  0.00    +0.000 A 
ATOM     30  C   UNL     1       4.568   3.176  12.013  0.00  0.00    +0.000 A 
ATOM     31  C   UNL     1       4.942   3.965  13.102  0.00  0.00    +0.000 A 
ENDBRANCH  25  26
ENDBRANCH  24  25
ENDBRANCH   5  24
TORSDOF 10
ENDMDL
MODEL 2
REMARK VINA RESULT:      -7.3      2.843      8.638
REMARK  Name = 
REMARK  12 active torsions:
REMARK  status: ('A' for Active; 'I' for Inactive)
REMARK    1  A    between atoms: C_1  and  O_2
REMARK    2  A    between atoms: O_2  and  C_3
REMARK    3  A    between atoms: C_6  and  C_7
REMARK    4  A    between atoms: C_7  and  N_8
REMARK    5  A    between atoms: N_8  and  C_9
REMARK    6  A    between atoms: N_8  and  C_10
REMARK    7  A    between atoms: C_10  and  C_11
REMARK    8  A    between atoms: C_11  and  C_12
REMARK    9  A    between atoms: C_12  and  N_13
REMARK   10  A    between atoms: C_17  and  O_18
REMARK   11  A    between atoms: O_18  and  C_19
REMARK   12  A    between atoms: C_19  and  C_20
REMARK                            x       y       z     vdW  Elec       q    Type
REMARK                         _______ _______ _______ _____ _____    ______ ____
ROOT
ATOM      1  N   UNL     1       2.086   7.873  19.337  0.00  0.00    +0.000 N 
ATOM      2  C   UNL     1       2.003   8.429  18.089  0.00  0.00    +0.000 A 
ATOM      3  N   UNL     1       1.252   9.509  18.081  0.00  0.00    +0.000 NA
ATOM      4  C   UNL     1       0.827   9.651  19.386  0.00  0.00    +0.000 A 
ATOM      5  C   UNL     1       0.010  10.584  20.029  0.00  0.00    +0.000 A 
ATOM      6  N   UNL     1      -0.238  10.460  21.359  0.00  0.00    +0.000 NA
ATOM      7  C   UNL     1       0.336   9.422  22.005  0.00  0.00    +0.000 A 
ATOM      8  N   UNL     1       1.137   8.460  21.503  0.00  0.00    +0.000 NA
ATOM      9  C   UNL     1       1.334   8.637  20.185  0.00  0.00    +0.000 A 
ENDROOT
BRANCH   1  10
ATOM     10  C   UNL     1       2.844   6.690  19.682  0.00  0.00    +0.000 C 
BRANCH  10  11
ATOM     11  C   UNL     1       1.946   5.462  19.801  0.00  0.00    +0.000 C 
BRANCH  11  12
ATOM     12  C   UNL     1       2.135   4.484  18.636  0.00  0.00    +0.000 C 
BRANCH  12  13
ATOM     13  N   UNL     1       2.646   3.158  19.037  0.00  0.00    +0.000 NA
ATOM     14  C   UNL     1       1.906   2.695  20.222  0.00  0.00    +0.000 C 
BRANCH  13  15
ATOM     15  C   UNL     1       4.095   3.203  19.306  0.00  0.00    +0.000 C 
BRANCH  15  19
ATOM     16  C   UNL     1       6.517   4.976  16.198  0.00  0.00    +0.000 A 
ATOM     17  C   UNL     1       6.701   5.358  17.530  0.00  0.00    +0.000 A 
ATOM     18  C   UNL     1       5.908   4.802  18.536  0.00  0.00    +0.000 A 
ATOM     19  C   UNL     1       4.906   3.876  18.220  0.00  0.00    +0.000 A 
ATOM     20  C   UNL     1       4.702   3.529  16.878  0.00  0.00    +0.000 A 
ATOM     21  C   UNL     1       5.501   4.079  15.874  0.00  0.00    +0.000 A 
BRANCH  16  23
ATOM     22  C   UNL     1       7.293   5.038  13.975  0.00  0.00    +0.000 C 
ATOM     23  O   UNL     1       7.355   5.569  15.295  0.00  0.00    +0.000 OA
ENDBRANCH  16  23
ENDBRANCH  15  19
ENDBRANCH  13  15
ENDBRANCH  12  13
ENDBRANCH  11  12
ENDBRANCH  10  11
ENDBRANCH   1  10
BRANCH   5  24
ATOM     24  O   UNL     1      -0.478  11.668  19.333  0.00  0.00    +0.000 OA
BRANCH  24  25
ATOM     25  C   UNL     1      -1.838  11.951  19.640  0.00  0.00    +0.000 C 
BRANCH  25  26
ATOM     26  C   UNL     1      -2.665  11.603  18.422  0.00  0.00    +0.000 A 
ATOM     27  C   UNL     1      -2.043  11.270  17.209  0.00  0.00    +0.000 A 
ATOM     28  C   UNL     1      -2.804  10.969  16.080  0.00  0.00    +0.000 A 
ATOM     29  C   UNL     1      -4.196  10.992  16.151  0.00  0.00    +0.000 A 
ATOM     30  C   UNL     1      -4.826  11.315  17.351  0.00  0.00    +0.000 A 
ATOM     31  C   UNL     1      -4.065  11.619  18.481  0.00  0.00    +0.000 A 
ENDBRANCH  25  26
ENDBRANCH  24  25
ENDBRANCH   5  24
TORSDOF 10
ENDMDL
MODEL 3
REMARK VINA RESULT:      -7.2      2.655      8.284
REMARK  Name = 
REMARK  12 active torsions:
REMARK  status: ('A' for Active; 'I' for Inactive)
REMARK    1  A    between atoms: C_1  and  O_2
REMARK    2  A    between atoms: O_2  and  C_3
REMARK    3  A    between atoms: C_6  and  C_7
REMARK    4  A    between atoms: C_7  and  N_8
REMARK    5  A    between atoms: N_8  and  C_9
REMARK    6  A    between atoms: N_8  and  C_10
REMARK    7  A    between atoms: C_10  and  C_11
REMARK    8  A    between atoms: C_11  and  C_12
REMARK    9  A    between atoms: C_12  and  N_13
REMARK   10  A    between atoms: C_17  and  O_18
REMARK   11  A    between atoms: O_18  and  C_19
REMARK   12  A    between atoms: C_19  and  C_20
REMARK                            x       y       z     vdW  Elec       q    Type
REMARK                         _______ _______ _______ _____ _____    ______ ____
ROOT
ATOM      1  N   UNL     1       1.872   7.117  20.322  0.00  0.00    +0.000 N 
ATOM      2  C   UNL     1       1.072   7.448  21.382  0.00  0.00    +0.000 A 
ATOM      3  N   UNL     1       0.527   8.636  21.233  0.00  0.00    +0.000 NA
ATOM      4  C   UNL     1       1.005   9.093  20.022  0.00  0.00    +0.000 A 
ATOM      5  C   UNL     1       0.810  10.275  19.302  0.00  0.00    +0.000 A 
ATOM      6  N   UNL     1       1.433  10.447  18.108  0.00  0.00    +0.000 NA
ATOM      7  C   UNL     1       2.221   9.442  17.665  0.00  0.00    +0.000 A 
ATOM      8  N   UNL     1       2.489   8.262  18.261  0.00  0.00    +0.000 NA
ATOM      9  C   UNL     1       1.850   8.161  19.440  0.00  0.00    +0.000 A 
ENDROOT
BRANCH   1  10
ATOM     10  C   UNL     1       2.602   5.876  20.174  0.00  0.00    +0.000 C 
BRANCH  10  11
ATOM     11  C   UNL     1       1.727   4.779  19.572  0.00  0.00    +0.000 C 
BRANCH  11  12
ATOM     12  C   UNL     1       2.017   4.550  18.084  0.00  0.00    +0.000 C 
BRANCH  12  13
ATOM     13  N   UNL     1       2.424   3.170  17.754  0.00  0.00    +0.000 NA
ATOM     14  C   UNL     1       1.536   2.226  18.450  0.00  0.00    +0.000 C 
BRANCH  13  15
ATOM     15  C   UNL     1       3.834   2.929  18.112  0.00  0.00    +0.000 C 
BRANCH  15  19
ATOM     16  C   UNL     1       6.664   5.933  16.833  0.00  0.00    +0.000 A 
ATOM     17  C   UNL     1       6.442   5.718  18.196  0.00  0.00    +0.000 A 
ATOM     18  C   UNL     1       5.514   4.761  18.615  0.00  0.00    +0.000 A 
ATOM     19  C   UNL     1       4.781   4.025  17.676  0.00  0.00    +0.000 A 
ATOM     20  C   UNL     1       4.981   4.275  16.312  0.00  0.00    +0.000 A 
ATOM     21  C   UNL     1       5.914   5.226  15.895  0.00  0.00    +0.000 A 
BRANCH  16  23
ATOM     22  C   UNL     1       7.795   7.877  17.531  0.00  0.00    +0.000 C 
ATOM     23  O   UNL     1       7.602   6.880  16.532  0.00  0.00    +0.000 OA
ENDBRANCH  16  23
ENDBRANCH  15  19
ENDBRANCH  13  15
ENDBRANCH  12  13
ENDBRANCH  11  12
ENDBRANCH  10  11
ENDBRANCH   1  10
BRANCH   5  24
ATOM     24  O   UNL     1      -0.070  11.227  19.766  0.00  0.00    +0.000 OA
BRANCH  24  25
ATOM     25  C   UNL     1      -0.512  12.111  18.743  0.00  0.00    +0.000 C 
BRANCH  25  26
ATOM     26  C   UNL     1      -1.901  11.678  18.330  0.00  0.00    +0.000 A 
ATOM     27  C   UNL     1      -3.024  12.091  19.063  0.00  0.00    +0.000 A 
ATOM     28  C   UNL     1      -4.304  11.675  18.696  0.00  0.00    +0.000 A 
ATOM     29  C   UNL     1      -4.477  10.846  17.588  0.00  0.00    +0.000 A 
ATOM     30  C   UNL     1      -3.370  10.434  16.849  0.00  0.00    +0.000 A 
ATOM     31  C   UNL     1      -2.089  10.847  17.217  0.00  0.00    +0.000 A 
ENDBRANCH  25  26
ENDBRANCH  24  25
ENDBRANCH   5  24
TORSDOF 10
ENDMDL
MODEL 4
REMARK VINA RESULT:      -7.1      6.324      8.740
REMARK  Name = 
REMARK  12 active torsions:
REMARK  status: ('A' for Active; 'I' for Inactive)
REMARK    1  A    between atoms: C_1  and  O_2
REMARK    2  A    between atoms: O_2  and  C_3
REMARK    3  A    between atoms: C_6  and  C_7
REMARK    4  A    between atoms: C_7  and  N_8
REMARK    5  A    between atoms: N_8  and  C_9
REMARK    6  A    between atoms: N_8  and  C_10
REMARK    7  A    between atoms: C_10  and  C_11
REMARK    8  A    between atoms: C_11  and  C_12
REMARK    9  A    between atoms: C_12  and  N_13
REMARK   10  A    between atoms: C_17  and  O_18
REMARK   11  A    between atoms: O_18  and  C_19
REMARK   12  A    between atoms: C_19  and  C_20
REMARK                            x       y       z     vdW  Elec       q    Type
REMARK                         _______ _______ _______ _____ _____    ______ ____
ROOT
ATOM      1  N   UNL     1       7.649   7.256  18.043  0.00  0.00    +0.000 N 
ATOM      2  C   UNL     1       8.012   6.475  19.106  0.00  0.00    +0.000 A 
ATOM      3  N   UNL     1       7.285   5.381  19.182  0.00  0.00    +0.000 NA
ATOM      4  C   UNL     1       6.409   5.467  18.119  0.00  0.00    +0.000 A 
ATOM      5  C   UNL     1       5.387   4.636  17.653  0.00  0.00    +0.000 A 
ATOM      6  N   UNL     1       4.674   4.995  16.554  0.00  0.00    +0.000 NA
ATOM      7  C   UNL     1       5.002   6.159  15.952  0.00  0.00    +0.000 A 
ATOM      8  N   UNL     1       5.959   7.044  16.301  0.00  0.00    +0.000 NA
ATOM      9  C   UNL     1       6.618   6.633  17.398  0.00  0.00    +0.000 A 
ENDROOT
BRANCH   1  10
ATOM     10  C   UNL     1       8.263   8.515  17.676  0.00  0.00    +0.000 C 
BRANCH  10  11
ATOM     11  C   UNL     1       8.769   9.272  18.901  0.00  0.00    +0.000 C 
BRANCH  11  12
ATOM     12  C   UNL     1       9.286  10.672  18.551  0.00  0.00    +0.000 C 
BRANCH  12  13
ATOM     13  N   UNL     1      10.569  11.020  19.194  0.00  0.00    +0.000 NA
ATOM     14  C   UNL     1      10.302  11.804  20.409  0.00  0.00    +0.000 C 
BRANCH  13  15
ATOM     15  C   UNL     1      11.445  11.764  18.269  0.00  0.00    +0.000 C 
BRANCH  15  19
ATOM     16  C   UNL     1      10.929  16.037  18.643  0.00  0.00    +0.000 A 
ATOM     17  C   UNL     1      10.044  15.293  17.858  0.00  0.00    +0.000 A 
ATOM     18  C   UNL     1      10.217  13.913  17.718  0.00  0.00    +0.000 A 
ATOM     19  C   UNL     1      11.291  13.267  18.342  0.00  0.00    +0.000 A 
ATOM     20  C   UNL     1      12.196  14.027  19.095  0.00  0.00    +0.000 A 
ATOM     21  C   UNL     1      12.016  15.403  19.241  0.00  0.00    +0.000 A 
BRANCH  16  23
ATOM     22  C   UNL     1      11.805  18.220  18.747  0.00  0.00    +0.000 C 
ATOM     23  O   UNL     1      10.660  17.375  18.725  0.00  0.00    +0.000 OA
ENDBRANCH  16  23
ENDBRANCH  15  19
ENDBRANCH  13  15
ENDBRANCH  12  13
ENDBRANCH  11  12
ENDBRANCH  10  11
ENDBRANCH   1  10
BRANCH   5  24
ATOM     24  O   UNL     1       5.156   3.421  18.261  0.00  0.00    +0.000 OA
BRANCH  24  25
ATOM     25  C   UNL     1       3.913   2.844  17.879  0.00  0.00    +0.000 C 
BRANCH  25  26
ATOM     26  C   UNL     1       2.984   2.927  19.070  0.00  0.00    +0.000 A 
ATOM     27  C   UNL     1       3.451   2.632  20.360  0.00  0.00    +0.000 A 
ATOM     28  C   UNL     1       2.590   2.688  21.456  0.00  0.00    +0.000 A 
ATOM     29  C   UNL     1       1.254   3.043  21.276  0.00  0.00    +0.000 A 
ATOM     30  C   UNL     1       0.779   3.342  20.001  0.00  0.00    +0.000 A 
ATOM     31  C   UNL     1       1.639   3.285  18.903  0.00  0.00    +0.000 A 
ENDBRANCH  25  26
ENDBRANCH  24  25
ENDBRANCH   5  24
TORSDOF 10
ENDMDL
MODEL 5
REMARK VINA RESULT:      -7.1      5.419      7.826
REMARK  Name = 
REMARK  12 active torsions:
REMARK  status: ('A' for Active; 'I' for Inactive)
REMARK    1  A    between atoms: C_1  and  O_2
REMARK    2  A    between atoms: O_2  and  C_3
REMARK    3  A    between atoms: C_6  and  C_7
REMARK    4  A    between atoms: C_7  and  N_8
REMARK    5  A    between atoms: N_8  and  C_9
REMARK    6  A    between atoms: N_8  and  C_10
REMARK    7  A    between atoms: C_10  and  C_11
REMARK    8  A    between atoms: C_11  and  C_12
REMARK    9  A    between atoms: C_12  and  N_13
REMARK   10  A    between atoms: C_17  and  O_18
REMARK   11  A    between atoms: O_18  and  C_19
REMARK   12  A    between atoms: C_19  and  C_20
REMARK                            x       y       z     vdW  Elec       q    Type
REMARK                         _______ _______ _______ _____ _____    ______ ____
ROOT
ATOM      1  N   UNL     1       7.649   7.379  17.995  0.00  0.00    +0.000 N 
ATOM      2  C   UNL     1       8.100   6.593  19.021  0.00  0.00    +0.000 A 
ATOM      3  N   UNL     1       7.410   5.479  19.126  0.00  0.00    +0.000 NA
ATOM      4  C   UNL     1       6.465   5.554  18.124  0.00  0.00    +0.000 A 
ATOM      5  C   UNL     1       5.437   4.701  17.712  0.00  0.00    +0.000 A 
ATOM      6  N   UNL     1       4.645   5.055  16.667  0.00  0.00    +0.000 NA
ATOM      7  C   UNL     1       4.902   6.237  16.063  0.00  0.00    +0.000 A 
ATOM      8  N   UNL     1       5.855   7.143  16.363  0.00  0.00    +0.000 NA
ATOM      9  C   UNL     1       6.595   6.736  17.409  0.00  0.00    +0.000 A 
ENDROOT
BRANCH   1  10
ATOM     10  C   UNL     1       8.203   8.658  17.609  0.00  0.00    +0.000 C 
BRANCH  10  11
ATOM     11  C   UNL     1       8.817   9.387  18.801  0.00  0.00    +0.000 C 
BRANCH  11  12
ATOM     12  C   UNL     1       9.629  10.619  18.380  0.00  0.00    +0.000 C 
BRANCH  12  13
ATOM     13  N   UNL     1       9.100  11.896  18.898  0.00  0.00    +0.000 NA
ATOM     14  C   UNL     1       8.861  12.811  17.771  0.00  0.00    +0.000 C 
BRANCH  13  15
ATOM     15  C   UNL     1      10.023  12.498  19.878  0.00  0.00    +0.000 C 
BRANCH  15  19
ATOM     16  C   UNL     1       8.164  13.045  23.740  0.00  0.00    +0.000 A 
ATOM     17  C   UNL     1       8.862  14.099  23.145  0.00  0.00    +0.000 A 
ATOM     18  C   UNL     1       9.481  13.922  21.905  0.00  0.00    +0.000 A 
ATOM     19  C   UNL     1       9.429  12.682  21.257  0.00  0.00    +0.000 A 
ATOM     20  C   UNL     1       8.761  11.619  21.879  0.00  0.00    +0.000 A 
ATOM     21  C   UNL     1       8.136  11.800  23.114  0.00  0.00    +0.000 A 
BRANCH  16  23
ATOM     22  C   UNL     1       7.509  12.234  25.851  0.00  0.00    +0.000 C 
ATOM     23  O   UNL     1       7.583  13.329  24.944  0.00  0.00    +0.000 OA
ENDBRANCH  16  23
ENDBRANCH  15  19
ENDBRANCH  13  15
ENDBRANCH  12  13
ENDBRANCH  11  12
ENDBRANCH  10  11
ENDBRANCH   1  10
BRANCH   5  24
ATOM     24  O   UNL     1       5.279   3.473  18.314  0.00  0.00    +0.000 OA
BRANCH  24  25
ATOM     25  C   UNL     1       4.765   3.571  19.637  0.00  0.00    +0.000 C 
BRANCH  25  26
ATOM     26  C   UNL     1       3.269   3.369  19.564  0.00  0.00    +0.000 A 
ATOM     27  C   UNL     1       2.408   4.130  20.371  0.00  0.00    +0.000 A 
ATOM     28  C   UNL     1       1.027   3.931  20.320  0.00  0.00    +0.000 A 
ATOM     29  C   UNL     1       0.492   2.973  19.460  0.00  0.00    +0.000 A 
ATOM     30  C   UNL     1       1.336   2.216  18.651  0.00  0.00    +0.000 A 
ATOM     31  C   UNL     1       2.717   2.412  18.702  0.00  0.00    +0.000 A 
ENDBRANCH  25  26
ENDBRANCH  24  25
ENDBRANCH   5  24
TORSDOF 10
ENDMDL
MODEL 6
REMARK VINA RESULT:      -7.1      2.851      9.029
REMARK  Name = 
REMARK  12 active torsions:
REMARK  status: ('A' for Active; 'I' for Inactive)
REMARK    1  A    between atoms: C_1  and  O_2
REMARK    2  A    between atoms: O_2  and  C_3
REMARK    3  A    between atoms: C_6  and  C_7
REMARK    4  A    between atoms: C_7  and  N_8
REMARK    5  A    between atoms: N_8  and  C_9
REMARK    6  A    between atoms: N_8  and  C_10
REMARK    7  A    between atoms: C_10  and  C_11
REMARK    8  A    between atoms: C_11  and  C_12
REMARK    9  A    between atoms: C_12  and  N_13
REMARK   10  A    between atoms: C_17  and  O_18
REMARK   11  A    between atoms: O_18  and  C_19
REMARK   12  A    between atoms: C_19  and  C_20
REMARK                            x       y       z     vdW  Elec       q    Type
REMARK                         _______ _______ _______ _____ _____    ______ ____
ROOT
ATOM      1  N   UNL     1       2.169   8.052  18.868  0.00  0.00    +0.000 N 
ATOM      2  C   UNL     1       2.153   8.958  17.842  0.00  0.00    +0.000 A 
ATOM      3  N   UNL     1       1.408  10.005  18.123  0.00  0.00    +0.000 NA
ATOM      4  C   UNL     1       0.917   9.757  19.389  0.00  0.00    +0.000 A 
ATOM      5  C   UNL     1       0.071  10.469  20.242  0.00  0.00    +0.000 A 
ATOM      6  N   UNL     1      -0.246   9.957  21.460  0.00  0.00    +0.000 NA
ATOM      7  C   UNL     1       0.290   8.762  21.791  0.00  0.00    +0.000 A 
ATOM      8  N   UNL     1       1.112   7.980  21.062  0.00  0.00    +0.000 NA
ATOM      9  C   UNL     1       1.378   8.540  19.869  0.00  0.00    +0.000 A 
ENDROOT
BRANCH   1  10
ATOM     10  C   UNL     1       2.905   6.806  18.877  0.00  0.00    +0.000 C 
BRANCH  10  11
ATOM     11  C   UNL     1       2.142   5.698  18.156  0.00  0.00    +0.000 C 
BRANCH  11  12
ATOM     12  C   UNL     1       2.258   4.346  18.871  0.00  0.00    +0.000 C 
BRANCH  12  13
ATOM     13  N   UNL     1       3.057   3.343  18.140  0.00  0.00    +0.000 NA
ATOM     14  C   UNL     1       2.358   2.050  18.176  0.00  0.00    +0.000 C 
BRANCH  13  15
ATOM     15  C   UNL     1       4.414   3.225  18.708  0.00  0.00    +0.000 C 
BRANCH  15  19
ATOM     16  C   UNL     1       7.075   6.347  17.355  0.00  0.00    +0.000 A 
ATOM     17  C   UNL     1       6.288   5.652  16.432  0.00  0.00    +0.000 A 
ATOM     18  C   UNL     1       5.439   4.629  16.862  0.00  0.00    +0.000 A 
ATOM     19  C   UNL     1       5.387   4.273  18.215  0.00  0.00    +0.000 A 
ATOM     20  C   UNL     1       6.209   4.948  19.127  0.00  0.00    +0.000 A 
ATOM     21  C   UNL     1       7.050   5.976  18.697  0.00  0.00    +0.000 A 
BRANCH  16  23
ATOM     22  C   UNL     1       7.977   8.504  17.640  0.00  0.00    +0.000 C 
ATOM     23  O   UNL     1       7.857   7.339  16.831  0.00  0.00    +0.000 OA
ENDBRANCH  16  23
ENDBRANCH  15  19
ENDBRANCH  13  15
ENDBRANCH  12  13
ENDBRANCH  11  12
ENDBRANCH  10  11
ENDBRANCH   1  10
BRANCH   5  24
ATOM     24  O   UNL     1      -0.377  11.721  19.882  0.00  0.00    +0.000 OA
BRANCH  24  25
ATOM     25  C   UNL     1      -1.161  11.704  18.696  0.00  0.00    +0.000 C 
BRANCH  25  26
ATOM     26  C   UNL     1      -2.594  11.989  19.088  0.00  0.00    +0.000 A 
ATOM     27  C   UNL     1      -2.881  12.748  20.233  0.00  0.00    +0.000 A 
ATOM     28  C   UNL     1      -4.202  12.994  20.608  0.00  0.00    +0.000 A 
ATOM     29  C   UNL     1      -5.251  12.489  19.840  0.00  0.00    +0.000 A 
ATOM     30  C   UNL     1      -4.978  11.739  18.698  0.00  0.00    +0.000 A 
ATOM     31  C   UNL     1      -3.657  11.490  18.323  0.00  0.00    +0.000 A 
ENDBRANCH  25  26
ENDBRANCH  24  25
ENDBRANCH   5  24
TORSDOF 10
ENDMDL
MODEL 7
REMARK VINA RESULT:      -7.1      2.829      8.644
REMARK  Name = 
REMARK  12 active torsions:
REMARK  status: ('A' for Active; 'I' for Inactive)
REMARK    1  A    between atoms: C_1  and  O_2
REMARK    2  A    between atoms: O_2  and  C_3
REMARK    3  A    between atoms: C_6  and  C_7
REMARK    4  A    between atoms: C_7  and  N_8
REMARK    5  A    between atoms: N_8  and  C_9
REMARK    6  A    between atoms: N_8  and  C_10
REMARK    7  A    between atoms: C_10  and  C_11
REMARK    8  A    between atoms: C_11  and  C_12
REMARK    9  A    between atoms: C_12  and  N_13
REMARK   10  A    between atoms: C_17  and  O_18
REMARK   11  A    between atoms: O_18  and  C_19
REMARK   12  A    between atoms: C_19  and  C_20
REMARK                            x       y       z     vdW  Elec       q    Type
REMARK                         _______ _______ _______ _____ _____    ______ ____
ROOT
ATOM      1  N   UNL     1       2.028   7.899  19.142  0.00  0.00    +0.000 N 
ATOM      2  C   UNL     1       1.998   8.502  17.914  0.00  0.00    +0.000 A 
ATOM      3  N   UNL     1       1.304   9.620  17.933  0.00  0.00    +0.000 NA
ATOM      4  C   UNL     1       0.863   9.738  19.235  0.00  0.00    +0.000 A 
ATOM      5  C   UNL     1       0.083  10.689  19.898  0.00  0.00    +0.000 A 
ATOM      6  N   UNL     1      -0.197  10.531  21.218  0.00  0.00    +0.000 NA
ATOM      7  C   UNL     1       0.310   9.441  21.835  0.00  0.00    +0.000 A 
ATOM      8  N   UNL     1       1.069   8.457  21.312  0.00  0.00    +0.000 NA
ATOM      9  C   UNL     1       1.301   8.670  20.005  0.00  0.00    +0.000 A 
ENDROOT
BRANCH   1  10
ATOM     10  C   UNL     1       2.717   6.666  19.457  0.00  0.00    +0.000 C 
BRANCH  10  11
ATOM     11  C   UNL     1       1.989   5.876  20.541  0.00  0.00    +0.000 C 
BRANCH  11  12
ATOM     12  C   UNL     1       2.368   4.391  20.538  0.00  0.00    +0.000 C 
BRANCH  12  13
ATOM     13  N   UNL     1       2.536   3.813  19.190  0.00  0.00    +0.000 NA
ATOM     14  C   UNL     1       1.401   2.923  18.901  0.00  0.00    +0.000 C 
BRANCH  13  15
ATOM     15  C   UNL     1       3.816   3.089  19.075  0.00  0.00    +0.000 C 
BRANCH  15  19
ATOM     16  C   UNL     1       6.525   5.019  16.318  0.00  0.00    +0.000 A 
ATOM     17  C   UNL     1       5.486   4.220  15.832  0.00  0.00    +0.000 A 
ATOM     18  C   UNL     1       4.618   3.579  16.719  0.00  0.00    +0.000 A 
ATOM     19  C   UNL     1       4.794   3.709  18.102  0.00  0.00    +0.000 A 
ATOM     20  C   UNL     1       5.863   4.479  18.581  0.00  0.00    +0.000 A 
ATOM     21  C   UNL     1       6.723   5.127  17.693  0.00  0.00    +0.000 A 
BRANCH  16  23
ATOM     22  C   UNL     1       7.220   5.030  14.068  0.00  0.00    +0.000 C 
ATOM     23  O   UNL     1       7.305   5.613  15.365  0.00  0.00    +0.000 OA
ENDBRANCH  16  23
ENDBRANCH  15  19
ENDBRANCH  13  15
ENDBRANCH  12  13
ENDBRANCH  11  12
ENDBRANCH  10  11
ENDBRANCH   1  10
BRANCH   5  24
ATOM     24  O   UNL     1      -0.335  11.821  19.234  0.00  0.00    +0.000 OA
BRANCH  24  25
ATOM     25  C   UNL     1      -1.669  12.190  19.562  0.00  0.00    +0.000 C 
BRANCH  25  26
ATOM     26  C   UNL     1      -2.556  11.778  18.410  0.00  0.00    +0.000 A 
ATOM     27  C   UNL     1      -3.953  11.840  18.529  0.00  0.00    +0.000 A 
ATOM     28  C   UNL     1      -4.774  11.440  17.473  0.00  0.00    +0.000 A 
ATOM     29  C   UNL     1      -4.208  10.979  16.286  0.00  0.00    +0.000 A 
ATOM     30  C   UNL     1      -2.822  10.918  16.154  0.00  0.00    +0.000 A 
ATOM     31  C   UNL     1      -2.000  11.315  17.210  0.00  0.00    +0.000 A 
ENDBRANCH  25  26
ENDBRANCH  24  25
ENDBRANCH   5  24
TORSDOF 10
ENDMDL
MODEL 8
REMARK VINA RESULT:      -7.1      5.448      7.988
REMARK  Name = 
REMARK  12 active torsions:
REMARK  status: ('A' for Active; 'I' for Inactive)
REMARK    1  A    between atoms: C_1  and  O_2
REMARK    2  A    between atoms: O_2  and  C_3
REMARK    3  A    between atoms: C_6  and  C_7
REMARK    4  A    between atoms: C_7  and  N_8
REMARK    5  A    between atoms: N_8  and  C_9
REMARK    6  A    between atoms: N_8  and  C_10
REMARK    7  A    between atoms: C_10  and  C_11
REMARK    8  A    between atoms: C_11  and  C_12
REMARK    9  A    between atoms: C_12  and  N_13
REMARK   10  A    between atoms: C_17  and  O_18
REMARK   11  A    between atoms: O_18  and  C_19
REMARK   12  A    between atoms: C_19  and  C_20
REMARK                            x       y       z     vdW  Elec       q    Type
REMARK                         _______ _______ _______ _____ _____    ______ ____
ROOT
ATOM      1  N   UNL     1       7.685   7.396  18.051  0.00  0.00    +0.000 N 
ATOM      2  C   UNL     1       8.176   6.683  19.111  0.00  0.00    +0.000 A 
ATOM      3  N   UNL     1       7.493   5.577  19.316  0.00  0.00    +0.000 NA
ATOM      4  C   UNL     1       6.513   5.584  18.345  0.00  0.00    +0.000 A 
ATOM      5  C   UNL     1       5.474   4.704  18.030  0.00  0.00    +0.000 A 
ATOM      6  N   UNL     1       4.643   4.986  16.992  0.00  0.00    +0.000 NA
ATOM      7  C   UNL     1       4.875   6.124  16.301  0.00  0.00    +0.000 A 
ATOM      8  N   UNL     1       5.834   7.049  16.504  0.00  0.00    +0.000 NA
ATOM      9  C   UNL     1       6.613   6.714  17.548  0.00  0.00    +0.000 A 
ENDROOT
BRANCH   1  10
ATOM     10  C   UNL     1       8.221   8.647  17.559  0.00  0.00    +0.000 C 
BRANCH  10  11
ATOM     11  C   UNL     1       8.744   9.521  18.697  0.00  0.00    +0.000 C 
BRANCH  11  12
ATOM     12  C   UNL     1       9.482  10.764  18.189  0.00  0.00    +0.000 C 
BRANCH  12  13
ATOM     13  N   UNL     1       9.655  11.821  19.205  0.00  0.00    +0.000 NA
ATOM     14  C   UNL     1      10.862  12.600  18.889  0.00  0.00    +0.000 C 
BRANCH  13  15
ATOM     15  C   UNL     1       9.737  11.249  20.562  0.00  0.00    +0.000 C 
BRANCH  15  19
ATOM     16  C   UNL     1       8.042  13.652  23.727  0.00  0.00    +0.000 A 
ATOM     17  C   UNL     1       7.618  12.332  23.549  0.00  0.00    +0.000 A 
ATOM     18  C   UNL     1       8.150  11.557  22.515  0.00  0.00    +0.000 A 
ATOM     19  C   UNL     1       9.092  12.100  21.634  0.00  0.00    +0.000 A 
ATOM     20  C   UNL     1       9.481  13.436  21.795  0.00  0.00    +0.000 A 
ATOM     21  C   UNL     1       8.956  14.207  22.833  0.00  0.00    +0.000 A 
BRANCH  16  23
ATOM     22  C   UNL     1       8.386  14.994  25.631  0.00  0.00    +0.000 C 
ATOM     23  O   UNL     1       7.471  14.317  24.776  0.00  0.00    +0.000 OA
ENDBRANCH  16  23
ENDBRANCH  15  19
ENDBRANCH  13  15
ENDBRANCH  12  13
ENDBRANCH  11  12
ENDBRANCH  10  11
ENDBRANCH   1  10
BRANCH   5  24
ATOM     24  O   UNL     1       5.341   3.519  18.719  0.00  0.00    +0.000 OA
BRANCH  24  25
ATOM     25  C   UNL     1       4.256   2.729  18.248  0.00  0.00    +0.000 C 
BRANCH  25  26
ATOM     26  C   UNL     1       3.144   2.821  19.268  0.00  0.00    +0.000 A 
ATOM     27  C   UNL     1       3.413   2.644  20.634  0.00  0.00    +0.000 A 
ATOM     28  C   UNL     1       2.384   2.709  21.575  0.00  0.00    +0.000 A 
ATOM     29  C   UNL     1       1.076   2.956  21.161  0.00  0.00    +0.000 A 
ATOM     30  C   UNL     1       0.797   3.139  19.809  0.00  0.00    +0.000 A 
ATOM     31  C   UNL     1       1.825   3.072  18.866  0.00  0.00    +0.000 A 
ENDBRANCH  25  26
ENDBRANCH  24  25
ENDBRANCH   5  24
TORSDOF 10
ENDMDL
MODEL 9
REMARK VINA RESULT:      -7.0      5.237      7.631
REMARK  Name = 
REMARK  12 active torsions:
REMARK  status: ('A' for Active; 'I' for Inactive)
REMARK    1  A    between atoms: C_1  and  O_2
REMARK    2  A    between atoms: O_2  and  C_3
REMARK    3  A    between atoms: C_6  and  C_7
REMARK    4  A    between atoms: C_7  and  N_8
REMARK    5  A    between atoms: N_8  and  C_9
REMARK    6  A    between atoms: N_8  and  C_10
REMARK    7  A    between atoms: C_10  and  C_11
REMARK    8  A    between atoms: C_11  and  C_12
REMARK    9  A    between atoms: C_12  and  N_13
REMARK   10  A    between atoms: C_17  and  O_18
REMARK   11  A    between atoms: O_18  and  C_19
REMARK   12  A    between atoms: C_19  and  C_20
REMARK                            x       y       z     vdW  Elec       q    Type
REMARK                         _______ _______ _______ _____ _____    ______ ____
ROOT
ATOM      1  N   UNL     1       7.240   6.232  18.338  0.00  0.00    +0.000 N 
ATOM      2  C   UNL     1       6.526   5.759  19.406  0.00  0.00    +0.000 A 
ATOM      3  N   UNL     1       5.640   4.857  19.043  0.00  0.00    +0.000 NA
ATOM      4  C   UNL     1       5.788   4.749  17.675  0.00  0.00    +0.000 A 
ATOM      5  C   UNL     1       5.148   3.977  16.702  0.00  0.00    +0.000 A 
ATOM      6  N   UNL     1       5.517   4.092  15.400  0.00  0.00    +0.000 NA
ATOM      7  C   UNL     1       6.509   4.962  15.108  0.00  0.00    +0.000 A 
ATOM      8  N   UNL     1       7.199   5.760  15.948  0.00  0.00    +0.000 NA
ATOM      9  C   UNL     1       6.780   5.603  17.216  0.00  0.00    +0.000 A 
ENDROOT
BRANCH   1  10
ATOM     10  C   UNL     1       8.296   7.219  18.404  0.00  0.00    +0.000 C 
BRANCH  10  11
ATOM     11  C   UNL     1       7.797   8.604  18.003  0.00  0.00    +0.000 C 
BRANCH  11  12
ATOM     12  C   UNL     1       8.932   9.630  17.906  0.00  0.00    +0.000 C 
BRANCH  12  13
ATOM     13  N   UNL     1       8.723  10.841  18.725  0.00  0.00    +0.000 NA
ATOM     14  C   UNL     1       8.707  12.020  17.846  0.00  0.00    +0.000 C 
BRANCH  13  15
ATOM     15  C   UNL     1       9.765  10.971  19.761  0.00  0.00    +0.000 C 
BRANCH  15  19
ATOM     16  C   UNL     1       9.041  13.870  22.881  0.00  0.00    +0.000 A 
ATOM     17  C   UNL     1       8.377  12.640  22.903  0.00  0.00    +0.000 A 
ATOM     18  C   UNL     1       8.593  11.706  21.886  0.00  0.00    +0.000 A 
ATOM     19  C   UNL     1       9.457  12.002  20.825  0.00  0.00    +0.000 A 
ATOM     20  C   UNL     1      10.087  13.253  20.790  0.00  0.00    +0.000 A 
ATOM     21  C   UNL     1       9.877  14.181  21.811  0.00  0.00    +0.000 A 
BRANCH  16  23
ATOM     22  C   UNL     1       7.975  14.131  24.965  0.00  0.00    +0.000 C 
ATOM     23  O   UNL     1       8.769  14.703  23.930  0.00  0.00    +0.000 OA
ENDBRANCH  16  23
ENDBRANCH  15  19
ENDBRANCH  13  15
ENDBRANCH  12  13
ENDBRANCH  11  12
ENDBRANCH  10  11
ENDBRANCH   1  10
BRANCH   5  24
ATOM     24  O   UNL     1       4.202   3.047  17.073  0.00  0.00    +0.000 OA
BRANCH  24  25
ATOM     25  C   UNL     1       2.876   3.556  17.007  0.00  0.00    +0.000 C 
BRANCH  25  26
ATOM     26  C   UNL     1       2.309   3.543  18.409  0.00  0.00    +0.000 A 
ATOM     27  C   UNL     1       1.997   4.746  19.062  0.00  0.00    +0.000 A 
ATOM     28  C   UNL     1       1.493   4.737  20.363  0.00  0.00    +0.000 A 
ATOM     29  C   UNL     1       1.291   3.526  21.024  0.00  0.00    +0.000 A 
ATOM     30  C   UNL     1       1.592   2.326  20.384  0.00  0.00    +0.000 A 
ATOM     31  C   UNL     1       2.098   2.333  19.083  0.00  0.00    +0.000 A 
ENDBRANCH  25  26
ENDBRANCH  24  25
ENDBRANCH   5  24
TORSDOF 10
ENDMDL
