MODEL 1
REMARK VINA RESULT:      -8.8      0.000      0.000
REMARK  Name = 
REMARK  5 active torsions:
REMARK  status: ('A' for Active; 'I' for Inactive)
REMARK    1  A    between atoms: C_1  and  C_2
REMARK    2  A    between atoms: C_2  and  N_3
REMARK    3  A    between atoms: C_2  and  C_21
REMARK    4  A    between atoms: C_4  and  C_6
REMARK    5  A    between atoms: C_12  and  C_13
REMARK                            x       y       z     vdW  Elec       q    Type
REMARK                         _______ _______ _______ _____ _____    ______ ____
ROOT
ATOM      1  C   UNL     1       1.965   6.653  20.075  0.00  0.00    +0.000 A 
ATOM      2  C   UNL     1       1.221   5.647  20.703  0.00  0.00    +0.000 A 
ATOM      3  C   UNL     1       1.470   4.298  20.437  0.00  0.00    +0.000 A 
ATOM      4  C   UNL     1       2.504   4.004  19.543  0.00  0.00    +0.000 A 
ATOM      5  N   UNL     1       2.961   2.811  19.058  0.00  0.00    +0.000 N 
ATOM      6  N   UNL     1       3.988   2.918  18.206  0.00  0.00    +0.000 NA
ATOM      7  C   UNL     1       4.239   4.237  18.140  0.00  0.00    +0.000 A 
ATOM      8  C   UNL     1       3.304   4.971  18.944  0.00  0.00    +0.000 A 
ATOM      9  C   UNL     1       3.031   6.329  19.218  0.00  0.00    +0.000 A 
ATOM     10  H   UNL     1       2.603   1.885  19.262  0.00  0.00    +0.000 HD
ENDROOT
BRANCH   7  11
ATOM     11  C   UNL     1       5.331   4.739  17.304  0.00  0.00    +0.000 A 
ATOM     12  C   UNL     1       5.549   4.191  16.035  0.00  0.00    +0.000 A 
ATOM     13  C   UNL     1       6.586   4.688  15.265  0.00  0.00    +0.000 A 
ATOM     14  N   UNL     1       7.411   5.678  15.666  0.00  0.00    +0.000 NA
ATOM     15  C   UNL     1       7.197   6.180  16.899  0.00  0.00    +0.000 A 
ATOM     16  C   UNL     1       6.190   5.747  17.747  0.00  0.00    +0.000 A 
ENDBRANCH   7  11
BRANCH   1  18
ATOM     17  N   UNL     1       1.511   8.824  19.116  0.00  0.00    +0.000 N 
ATOM     18  C   UNL     1       1.639   8.091  20.274  0.00  0.00    +0.000 C 
ATOM     19  O   UNL     1       1.541   8.556  21.402  0.00  0.00    +0.000 OA
ATOM     20  H   UNL     1       1.722   8.387  18.231  0.00  0.00    +0.000 HD
BRANCH  17  22
ATOM     21  C   UNL     1       2.123  10.972  18.128  0.00  0.00    +0.000 C 
ATOM     22  C   UNL     1       1.196  10.243  19.099  0.00  0.00    +0.000 C 
BRANCH  22  23
ATOM     23  C   UNL     1      -0.270  10.433  18.748  0.00  0.00    +0.000 A 
ATOM     24  C   UNL     1      -0.813   9.763  17.641  0.00  0.00    +0.000 A 
ATOM     25  C   UNL     1      -2.142   9.967  17.259  0.00  0.00    +0.000 A 
ATOM     26  C   UNL     1      -2.946  10.851  17.976  0.00  0.00    +0.000 A 
ATOM     27  C   UNL     1      -2.424  11.512  19.084  0.00  0.00    +0.000 A 
ATOM     28 CL   UNL     1      -3.407  12.620  19.961  0.00  0.00    +0.000 Cl
ATOM     29  C   UNL     1      -1.102  11.300  19.479  0.00  0.00    +0.000 A 
ENDBRANCH  22  23
ENDBRANCH  17  22
ENDBRANCH   1  18
TORSDOF 4
ENDMDL
MODEL 2
REMARK VINA RESULT:      -8.6      1.021      1.644
REMARK  Name = 
REMARK  5 active torsions:
REMARK  status: ('A' for Active; 'I' for Inactive)
REMARK    1  A    between atoms: C_1  and  C_2
REMARK    2  A    between atoms: C_2  and  N_3
REMARK    3  A    between atoms: C_2  and  C_21
REMARK    4  A    between atoms: C_4  and  C_6
REMARK    5  A    between atoms: C_12  and  C_13
REMARK                            x       y       z     vdW  Elec       q    Type
REMARK                         _______ _______ _______ _____ _____    ______ ____
ROOT
ATOM      1  C   UNL     1       1.918   6.734  20.011  0.00  0.00    +0.000 A 
ATOM      2  C   UNL     1       1.162   5.737  20.639  0.00  0.00    +0.000 A 
ATOM      3  C   UNL     1       1.372   4.387  20.349  0.00  0.00    +0.000 A 
ATOM      4  C   UNL     1       2.379   4.080  19.429  0.00  0.00    +0.000 A 
ATOM      5  N   UNL     1       2.796   2.884  18.917  0.00  0.00    +0.000 N 
ATOM      6  N   UNL     1       3.807   2.978  18.045  0.00  0.00    +0.000 NA
ATOM      7  C   UNL     1       4.089   4.292  17.993  0.00  0.00    +0.000 A 
ATOM      8  C   UNL     1       3.191   5.037  18.827  0.00  0.00    +0.000 A 
ATOM      9  C   UNL     1       2.957   6.396  19.126  0.00  0.00    +0.000 A 
ATOM     10  H   UNL     1       2.419   1.964  19.115  0.00  0.00    +0.000 HD
ENDROOT
BRANCH   7  11
ATOM     11  C   UNL     1       5.176   4.779  17.140  0.00  0.00    +0.000 A 
ATOM     12  C   UNL     1       6.148   5.635  17.669  0.00  0.00    +0.000 A 
ATOM     13  C   UNL     1       7.166   6.077  16.841  0.00  0.00    +0.000 A 
ATOM     14  N   UNL     1       7.281   5.730  15.542  0.00  0.00    +0.000 NA
ATOM     15  C   UNL     1       6.324   4.918  15.047  0.00  0.00    +0.000 A 
ATOM     16  C   UNL     1       5.263   4.428  15.792  0.00  0.00    +0.000 A 
ENDBRANCH   7  11
BRANCH   1  18
ATOM     17  N   UNL     1       1.520   8.933  19.093  0.00  0.00    +0.000 N 
ATOM     18  C   UNL     1       1.632   8.177  20.237  0.00  0.00    +0.000 C 
ATOM     19  O   UNL     1       1.552   8.623  21.374  0.00  0.00    +0.000 OA
ATOM     20  H   UNL     1       1.715   8.508  18.200  0.00  0.00    +0.000 HD
BRANCH  17  22
ATOM     21  C   UNL     1       2.218  11.088  18.179  0.00  0.00    +0.000 C 
ATOM     22  C   UNL     1       1.244  10.361  19.104  0.00  0.00    +0.000 C 
BRANCH  22  23
ATOM     23  C   UNL     1      -0.206  10.600  18.716  0.00  0.00    +0.000 A 
ATOM     24  C   UNL     1      -1.026  11.386  19.540  0.00  0.00    +0.000 A 
ATOM     25  C   UNL     1      -2.378  11.572  19.239  0.00  0.00    +0.000 A 
ATOM     26  C   UNL     1      -2.932  10.968  18.112  0.00  0.00    +0.000 A 
ATOM     27  C   UNL     1      -2.126  10.196  17.279  0.00  0.00    +0.000 A 
ATOM     28 CL   UNL     1      -2.810   9.431  15.897  0.00  0.00    +0.000 Cl
ATOM     29  C   UNL     1      -0.772  10.020  17.566  0.00  0.00    +0.000 A 
ENDBRANCH  22  23
ENDBRANCH  17  22
ENDBRANCH   1  18
TORSDOF 4
ENDMDL
MODEL 3
REMARK VINA RESULT:      -8.5      1.730      2.292
REMARK  Name = 
REMARK  5 active torsions:
REMARK  status: ('A' for Active; 'I' for Inactive)
REMARK    1  A    between atoms: C_1  and  C_2
REMARK    2  A    between atoms: C_2  and  N_3
REMARK    3  A    between atoms: C_2  and  C_21
REMARK    4  A    between atoms: C_4  and  C_6
REMARK    5  A    between atoms: C_12  and  C_13
REMARK                            x       y       z     vdW  Elec       q    Type
REMARK                         _______ _______ _______ _____ _____    ______ ____
ROOT
ATOM      1  C   UNL     1       2.232   7.211  19.407  0.00  0.00    +0.000 A 
ATOM      2  C   UNL     1       1.654   6.565  20.506  0.00  0.00    +0.000 A 
ATOM      3  C   UNL     1       1.994   5.248  20.826  0.00  0.00    +0.000 A 
ATOM      4  C   UNL     1       2.947   4.621  20.018  0.00  0.00    +0.000 A 
ATOM      5  N   UNL     1       3.456   3.354  20.046  0.00  0.00    +0.000 N 
ATOM      6  N   UNL     1       4.372   3.105  19.102  0.00  0.00    +0.000 NA
ATOM      7  C   UNL     1       4.494   4.264  18.432  0.00  0.00    +0.000 A 
ATOM      8  C   UNL     1       3.588   5.248  18.953  0.00  0.00    +0.000 A 
ATOM      9  C   UNL     1       3.224   6.575  18.641  0.00  0.00    +0.000 A 
ATOM     10  H   UNL     1       3.208   2.603  20.681  0.00  0.00    +0.000 HD
ENDROOT
BRANCH   7  11
ATOM     11  C   UNL     1       5.440   4.378  17.320  0.00  0.00    +0.000 A 
ATOM     12  C   UNL     1       5.008   4.152  16.008  0.00  0.00    +0.000 A 
ATOM     13  C   UNL     1       5.923   4.270  14.977  0.00  0.00    +0.000 A 
ATOM     14  N   UNL     1       7.221   4.592  15.159  0.00  0.00    +0.000 NA
ATOM     15  C   UNL     1       7.622   4.787  16.431  0.00  0.00    +0.000 A 
ATOM     16  C   UNL     1       6.785   4.687  17.531  0.00  0.00    +0.000 A 
ENDBRANCH   7  11
BRANCH   1  18
ATOM     17  N   UNL     1       0.742   9.088  19.714  0.00  0.00    +0.000 N 
ATOM     18  C   UNL     1       1.800   8.576  19.000  0.00  0.00    +0.000 C 
ATOM     19  O   UNL     1       2.347   9.147  18.065  0.00  0.00    +0.000 OA
ATOM     20  H   UNL     1       0.275   8.503  20.391  0.00  0.00    +0.000 HD
BRANCH  17  22
ATOM     21  C   UNL     1      -0.787  10.343  18.281  0.00  0.00    +0.000 C 
ATOM     22  C   UNL     1       0.174  10.404  19.468  0.00  0.00    +0.000 C 
BRANCH  22  23
ATOM     23  C   UNL     1      -0.503  10.909  20.731  0.00  0.00    +0.000 A 
ATOM     24  C   UNL     1      -0.338  10.210  21.936  0.00  0.00    +0.000 A 
ATOM     25  C   UNL     1      -0.998  10.618  23.098  0.00  0.00    +0.000 A 
ATOM     26  C   UNL     1      -1.839  11.729  23.070  0.00  0.00    +0.000 A 
ATOM     27  C   UNL     1      -2.001  12.439  21.885  0.00  0.00    +0.000 A 
ATOM     28 CL   UNL     1      -3.054  13.800  21.840  0.00  0.00    +0.000 Cl
ATOM     29  C   UNL     1      -1.332  12.046  20.724  0.00  0.00    +0.000 A 
ENDBRANCH  22  23
ENDBRANCH  17  22
ENDBRANCH   1  18
TORSDOF 4
ENDMDL
MODEL 4
REMARK VINA RESULT:      -8.1      1.860      2.655
REMARK  Name = 
REMARK  5 active torsions:
REMARK  status: ('A' for Active; 'I' for Inactive)
REMARK    1  A    between atoms: C_1  and  C_2
REMARK    2  A    between atoms: C_2  and  N_3
REMARK    3  A    between atoms: C_2  and  C_21
REMARK    4  A    between atoms: C_4  and  C_6
REMARK    5  A    between atoms: C_12  and  C_13
REMARK                            x       y       z     vdW  Elec       q    Type
REMARK                         _______ _______ _______ _____ _____    ______ ____
ROOT
ATOM      1  C   UNL     1       2.151   7.640  19.055  0.00  0.00    +0.000 A 
ATOM      2  C   UNL     1       1.561   7.140  20.222  0.00  0.00    +0.000 A 
ATOM      3  C   UNL     1       1.884   5.869  20.703  0.00  0.00    +0.000 A 
ATOM      4  C   UNL     1       2.835   5.137  19.985  0.00  0.00    +0.000 A 
ATOM      5  N   UNL     1       3.330   3.878  20.172  0.00  0.00    +0.000 N 
ATOM      6  N   UNL     1       4.248   3.505  19.272  0.00  0.00    +0.000 NA
ATOM      7  C   UNL     1       4.385   4.571  18.465  0.00  0.00    +0.000 A 
ATOM      8  C   UNL     1       3.488   5.621  18.856  0.00  0.00    +0.000 A 
ATOM      9  C   UNL     1       3.140   6.904  18.380  0.00  0.00    +0.000 A 
ATOM     10  H   UNL     1       3.070   3.214  20.893  0.00  0.00    +0.000 HD
ENDROOT
BRANCH   7  11
ATOM     11  C   UNL     1       5.338   4.537  17.353  0.00  0.00    +0.000 A 
ATOM     12  C   UNL     1       6.688   4.829  17.580  0.00  0.00    +0.000 A 
ATOM     13  C   UNL     1       7.566   4.785  16.512  0.00  0.00    +0.000 A 
ATOM     14  N   UNL     1       7.199   4.476  15.251  0.00  0.00    +0.000 NA
ATOM     15  C   UNL     1       5.891   4.216  15.049  0.00  0.00    +0.000 A 
ATOM     16  C   UNL     1       4.933   4.240  16.050  0.00  0.00    +0.000 A 
ENDBRANCH   7  11
BRANCH   1  18
ATOM     17  N   UNL     1       0.717   9.581  19.152  0.00  0.00    +0.000 N 
ATOM     18  C   UNL     1       1.736   8.948  18.480  0.00  0.00    +0.000 C 
ATOM     19  O   UNL     1       2.262   9.372  17.459  0.00  0.00    +0.000 OA
ATOM     20  H   UNL     1       0.262   9.106  19.918  0.00  0.00    +0.000 HD
BRANCH  17  22
ATOM     21  C   UNL     1      -1.104  10.658  17.931  0.00  0.00    +0.000 C 
ATOM     22  C   UNL     1       0.171  10.866  18.748  0.00  0.00    +0.000 C 
BRANCH  22  23
ATOM     23  C   UNL     1      -0.068  11.726  19.977  0.00  0.00    +0.000 A 
ATOM     24  C   UNL     1       0.682  12.898  20.164  0.00  0.00    +0.000 A 
ATOM     25  C   UNL     1       0.527  13.675  21.315  0.00  0.00    +0.000 A 
ATOM     26  C   UNL     1      -0.377  13.287  22.301  0.00  0.00    +0.000 A 
ATOM     27  C   UNL     1      -1.137  12.134  22.124  0.00  0.00    +0.000 A 
ATOM     28 CL   UNL     1      -2.241  11.640  23.349  0.00  0.00    +0.000 Cl
ATOM     29  C   UNL     1      -0.997  11.363  20.969  0.00  0.00    +0.000 A 
ENDBRANCH  22  23
ENDBRANCH  17  22
ENDBRANCH   1  18
TORSDOF 4
ENDMDL
MODEL 5
REMARK VINA RESULT:      -8.1      2.449      3.425
REMARK  Name = 
REMARK  5 active torsions:
REMARK  status: ('A' for Active; 'I' for Inactive)
REMARK    1  A    between atoms: C_1  and  C_2
REMARK    2  A    between atoms: C_2  and  N_3
REMARK    3  A    between atoms: C_2  and  C_21
REMARK    4  A    between atoms: C_4  and  C_6
REMARK    5  A    between atoms: C_12  and  C_13
REMARK                            x       y       z     vdW  Elec       q    Type
REMARK                         _______ _______ _______ _____ _____    ______ ____
ROOT
ATOM      1  C   UNL     1       2.138   7.724  19.029  0.00  0.00    +0.000 A 
ATOM      2  C   UNL     1       1.511   7.256  20.190  0.00  0.00    +0.000 A 
ATOM      3  C   UNL     1       1.800   5.989  20.701  0.00  0.00    +0.000 A 
ATOM      4  C   UNL     1       2.753   5.227  20.019  0.00  0.00    +0.000 A 
ATOM      5  N   UNL     1       3.219   3.962  20.239  0.00  0.00    +0.000 N 
ATOM      6  N   UNL     1       4.150   3.555  19.367  0.00  0.00    +0.000 NA
ATOM      7  C   UNL     1       4.326   4.605  18.545  0.00  0.00    +0.000 A 
ATOM      8  C   UNL     1       3.441   5.678  18.896  0.00  0.00    +0.000 A 
ATOM      9  C   UNL     1       3.128   6.957  18.389  0.00  0.00    +0.000 A 
ATOM     10  H   UNL     1       2.930   3.316  20.965  0.00  0.00    +0.000 HD
ENDROOT
BRANCH   7  11
ATOM     11  C   UNL     1       5.304   4.533  17.457  0.00  0.00    +0.000 A 
ATOM     12  C   UNL     1       6.663   4.729  17.724  0.00  0.00    +0.000 A 
ATOM     13  C   UNL     1       7.564   4.651  16.677  0.00  0.00    +0.000 A 
ATOM     14  N   UNL     1       7.211   4.396  15.400  0.00  0.00    +0.000 NA
ATOM     15  C   UNL     1       5.894   4.228  15.159  0.00  0.00    +0.000 A 
ATOM     16  C   UNL     1       4.914   4.292  16.137  0.00  0.00    +0.000 A 
ENDBRANCH   7  11
BRANCH   1  18
ATOM     17  N   UNL     1       0.885   9.785  19.165  0.00  0.00    +0.000 N 
ATOM     18  C   UNL     1       1.761   9.028  18.421  0.00  0.00    +0.000 C 
ATOM     19  O   UNL     1       2.189   9.347  17.319  0.00  0.00    +0.000 OA
ATOM     20  H   UNL     1       0.491   9.396  20.008  0.00  0.00    +0.000 HD
BRANCH  17  22
ATOM     21  C   UNL     1      -1.040  11.288  19.221  0.00  0.00    +0.000 C 
ATOM     22  C   UNL     1       0.398  11.088  18.743  0.00  0.00    +0.000 C 
BRANCH  22  23
ATOM     23  C   UNL     1       1.331  12.171  19.259  0.00  0.00    +0.000 A 
ATOM     24  C   UNL     1       1.228  12.603  20.590  0.00  0.00    +0.000 A 
ATOM     25  C   UNL     1       2.031  13.639  21.073  0.00  0.00    +0.000 A 
ATOM     26  C   UNL     1       2.947  14.263  20.229  0.00  0.00    +0.000 A 
ATOM     27  C   UNL     1       3.069  13.836  18.910  0.00  0.00    +0.000 A 
ATOM     28 CL   UNL     1       4.185  14.618  17.858  0.00  0.00    +0.000 Cl
ATOM     29  C   UNL     1       2.280  12.791  18.426  0.00  0.00    +0.000 A 
ENDBRANCH  22  23
ENDBRANCH  17  22
ENDBRANCH   1  18
TORSDOF 4
ENDMDL
MODEL 6
REMARK VINA RESULT:      -8.0      1.948      2.730
REMARK  Name = 
REMARK  5 active torsions:
REMARK  status: ('A' for Active; 'I' for Inactive)
REMARK    1  A    between atoms: C_1  and  C_2
REMARK    2  A    between atoms: C_2  and  N_3
REMARK    3  A    between atoms: C_2  and  C_21
REMARK    4  A    between atoms: C_4  and  C_6
REMARK    5  A    between atoms: C_12  and  C_13
REMARK                            x       y       z     vdW  Elec       q    Type
REMARK                         _______ _______ _______ _____ _____    ______ ____
ROOT
ATOM      1  C   UNL     1       2.696   6.801  18.614  0.00  0.00    +0.000 A 
ATOM      2  C   UNL     1       2.252   6.037  19.699  0.00  0.00    +0.000 A 
ATOM      3  C   UNL     1       2.601   4.690  19.820  0.00  0.00    +0.000 A 
ATOM      4  C   UNL     1       3.426   4.153  18.828  0.00  0.00    +0.000 A 
ATOM      5  N   UNL     1       3.905   2.886  18.644  0.00  0.00    +0.000 N 
ATOM      6  N   UNL     1       4.683   2.741  17.565  0.00  0.00    +0.000 NA
ATOM      7  C   UNL     1       4.743   3.969  17.020  0.00  0.00    +0.000 A 
ATOM      8  C   UNL     1       3.936   4.893  17.765  0.00  0.00    +0.000 A 
ATOM      9  C   UNL     1       3.565   6.250  17.656  0.00  0.00    +0.000 A 
ATOM     10  H   UNL     1       3.725   2.070  19.217  0.00  0.00    +0.000 HD
ENDROOT
BRANCH   7  11
ATOM     11  C   UNL     1       5.538   4.202  15.813  0.00  0.00    +0.000 A 
ATOM     12  C   UNL     1       6.662   5.033  15.866  0.00  0.00    +0.000 A 
ATOM     13  C   UNL     1       7.397   5.232  14.710  0.00  0.00    +0.000 A 
ATOM     14  N   UNL     1       7.093   4.670  13.521  0.00  0.00    +0.000 NA
ATOM     15  C   UNL     1       5.995   3.888  13.486  0.00  0.00    +0.000 A 
ATOM     16  C   UNL     1       5.192   3.631  14.586  0.00  0.00    +0.000 A 
ENDBRANCH   7  11
BRANCH   1  18
ATOM     17  N   UNL     1       1.398   8.682  19.398  0.00  0.00    +0.000 N 
ATOM     18  C   UNL     1       2.246   8.207  18.424  0.00  0.00    +0.000 C 
ATOM     19  O   UNL     1       2.595   8.843  17.438  0.00  0.00    +0.000 OA
ATOM     20  H   UNL     1       1.068   8.053  20.114  0.00  0.00    +0.000 HD
BRANCH  17  22
ATOM     21  C   UNL     1      -0.137  10.184  18.234  0.00  0.00    +0.000 C 
ATOM     22  C   UNL     1       0.849  10.028  19.391  0.00  0.00    +0.000 C 
BRANCH  22  23
ATOM     23  C   UNL     1       0.208  10.322  20.737  0.00  0.00    +0.000 A 
ATOM     24  C   UNL     1       0.110   9.304  21.699  0.00  0.00    +0.000 A 
ATOM     25  C   UNL     1      -0.529   9.529  22.920  0.00  0.00    +0.000 A 
ATOM     26  C   UNL     1      -1.087  10.776  23.196  0.00  0.00    +0.000 A 
ATOM     27  C   UNL     1      -0.987  11.798  22.257  0.00  0.00    +0.000 A 
ATOM     28 CL   UNL     1      -1.692  13.333  22.585  0.00  0.00    +0.000 Cl
ATOM     29  C   UNL     1      -0.335  11.583  21.041  0.00  0.00    +0.000 A 
ENDBRANCH  22  23
ENDBRANCH  17  22
ENDBRANCH   1  18
TORSDOF 4
ENDMDL
MODEL 7
REMARK VINA RESULT:      -8.0      2.041      2.648
REMARK  Name = 
REMARK  5 active torsions:
REMARK  status: ('A' for Active; 'I' for Inactive)
REMARK    1  A    between atoms: C_1  and  C_2
REMARK    2  A    between atoms: C_2  and  N_3
REMARK    3  A    between atoms: C_2  and  C_21
REMARK    4  A    between atoms: C_4  and  C_6
REMARK    5  A    between atoms: C_12  and  C_13
REMARK                            x       y       z     vdW  Elec       q    Type
REMARK                         _______ _______ _______ _____ _____    ______ ____
ROOT
ATOM      1  C   UNL     1       2.217   7.561  18.997  0.00  0.00    +0.000 A 
ATOM      2  C   UNL     1       1.705   7.028  20.185  0.00  0.00    +0.000 A 
ATOM      3  C   UNL     1       2.073   5.752  20.618  0.00  0.00    +0.000 A 
ATOM      4  C   UNL     1       2.988   5.049  19.828  0.00  0.00    +0.000 A 
ATOM      5  N   UNL     1       3.509   3.793  19.957  0.00  0.00    +0.000 N 
ATOM      6  N   UNL     1       4.375   3.452  18.994  0.00  0.00    +0.000 NA
ATOM      7  C   UNL     1       4.450   4.538  18.205  0.00  0.00    +0.000 A 
ATOM      8  C   UNL     1       3.565   5.566  18.672  0.00  0.00    +0.000 A 
ATOM      9  C   UNL     1       3.173   6.853  18.246  0.00  0.00    +0.000 A 
ATOM     10  H   UNL     1       3.302   3.110  20.677  0.00  0.00    +0.000 HD
ENDROOT
BRANCH   7  11
ATOM     11  C   UNL     1       5.334   4.541  17.037  0.00  0.00    +0.000 A 
ATOM     12  C   UNL     1       4.807   4.322  15.760  0.00  0.00    +0.000 A 
ATOM     13  C   UNL     1       5.666   4.335  14.675  0.00  0.00    +0.000 A 
ATOM     14  N   UNL     1       6.995   4.546  14.772  0.00  0.00    +0.000 NA
ATOM     15  C   UNL     1       7.487   4.736  16.013  0.00  0.00    +0.000 A 
ATOM     16  C   UNL     1       6.711   4.737  17.162  0.00  0.00    +0.000 A 
ENDBRANCH   7  11
BRANCH   1  18
ATOM     17  N   UNL     1       0.818   9.513  19.261  0.00  0.00    +0.000 N 
ATOM     18  C   UNL     1       1.751   8.875  18.477  0.00  0.00    +0.000 C 
ATOM     19  O   UNL     1       2.163   9.300  17.405  0.00  0.00    +0.000 OA
ATOM     20  H   UNL     1       0.447   9.038  20.070  0.00  0.00    +0.000 HD
BRANCH  17  22
ATOM     21  C   UNL     1      -1.038  10.609  18.112  0.00  0.00    +0.000 C 
ATOM     22  C   UNL     1       0.241  10.804  18.925  0.00  0.00    +0.000 C 
BRANCH  22  23
ATOM     23  C   UNL     1      -0.002  11.599  20.197  0.00  0.00    +0.000 A 
ATOM     24  C   UNL     1      -0.965  11.160  21.119  0.00  0.00    +0.000 A 
ATOM     25  C   UNL     1      -1.252  11.904  22.266  0.00  0.00    +0.000 A 
ATOM     26  C   UNL     1      -0.583  13.102  22.507  0.00  0.00    +0.000 A 
ATOM     27  C   UNL     1       0.384  13.542  21.608  0.00  0.00    +0.000 A 
ATOM     28 CL   UNL     1       1.199  15.032  21.890  0.00  0.00    +0.000 Cl
ATOM     29  C   UNL     1       0.686  12.796  20.468  0.00  0.00    +0.000 A 
ENDBRANCH  22  23
ENDBRANCH  17  22
ENDBRANCH   1  18
TORSDOF 4
ENDMDL
MODEL 8
REMARK VINA RESULT:      -7.9      1.178      1.234
REMARK  Name = 
REMARK  5 active torsions:
REMARK  status: ('A' for Active; 'I' for Inactive)
REMARK    1  A    between atoms: C_1  and  C_2
REMARK    2  A    between atoms: C_2  and  N_3
REMARK    3  A    between atoms: C_2  and  C_21
REMARK    4  A    between atoms: C_4  and  C_6
REMARK    5  A    between atoms: C_12  and  C_13
REMARK                            x       y       z     vdW  Elec       q    Type
REMARK                         _______ _______ _______ _____ _____    ______ ____
ROOT
ATOM      1  C   UNL     1       2.193   7.426  19.224  0.00  0.00    +0.000 A 
ATOM      2  C   UNL     1       1.570   6.833  20.328  0.00  0.00    +0.000 A 
ATOM      3  C   UNL     1       1.867   5.521  20.703  0.00  0.00    +0.000 A 
ATOM      4  C   UNL     1       2.826   4.843  19.944  0.00  0.00    +0.000 A 
ATOM      5  N   UNL     1       3.301   3.565  20.030  0.00  0.00    +0.000 N 
ATOM      6  N   UNL     1       4.235   3.260  19.121  0.00  0.00    +0.000 NA
ATOM      7  C   UNL     1       4.404   4.391  18.414  0.00  0.00    +0.000 A 
ATOM      8  C   UNL     1       3.510   5.415  18.876  0.00  0.00    +0.000 A 
ATOM      9  C   UNL     1       3.189   6.739  18.508  0.00  0.00    +0.000 A 
ATOM     10  H   UNL     1       3.017   2.844  20.684  0.00  0.00    +0.000 HD
ENDROOT
BRANCH   7  11
ATOM     11  C   UNL     1       5.382   4.442  17.326  0.00  0.00    +0.000 A 
ATOM     12  C   UNL     1       4.973   4.217  16.007  0.00  0.00    +0.000 A 
ATOM     13  C   UNL     1       5.918   4.275  14.998  0.00  0.00    +0.000 A 
ATOM     14  N   UNL     1       7.225   4.538  15.209  0.00  0.00    +0.000 NA
ATOM     15  C   UNL     1       7.604   4.734  16.488  0.00  0.00    +0.000 A 
ATOM     16  C   UNL     1       6.735   4.691  17.567  0.00  0.00    +0.000 A 
ENDBRANCH   7  11
BRANCH   1  18
ATOM     17  N   UNL     1       0.997   9.487  19.620  0.00  0.00    +0.000 N 
ATOM     18  C   UNL     1       1.807   8.785  18.757  0.00  0.00    +0.000 C 
ATOM     19  O   UNL     1       2.170   9.192  17.662  0.00  0.00    +0.000 OA
ATOM     20  H   UNL     1       0.649   9.032  20.450  0.00  0.00    +0.000 HD
BRANCH  17  22
ATOM     21  C   UNL     1       1.517  11.579  18.470  0.00  0.00    +0.000 C 
ATOM     22  C   UNL     1       0.513  10.830  19.345  0.00  0.00    +0.000 C 
BRANCH  22  23
ATOM     23  C   UNL     1      -0.863  10.753  18.704  0.00  0.00    +0.000 A 
ATOM     24  C   UNL     1      -1.047   9.989  17.541  0.00  0.00    +0.000 A 
ATOM     25  C   UNL     1      -2.286   9.950  16.896  0.00  0.00    +0.000 A 
ATOM     26  C   UNL     1      -3.359  10.680  17.403  0.00  0.00    +0.000 A 
ATOM     27  C   UNL     1      -3.194  11.432  18.563  0.00  0.00    +0.000 A 
ATOM     28 CL   UNL     1      -4.512  12.351  19.180  0.00  0.00    +0.000 Cl
ATOM     29  C   UNL     1      -1.963  11.462  19.219  0.00  0.00    +0.000 A 
ENDBRANCH  22  23
ENDBRANCH  17  22
ENDBRANCH   1  18
TORSDOF 4
ENDMDL
MODEL 9
REMARK VINA RESULT:      -7.8      3.720      8.438
REMARK  Name = 
REMARK  5 active torsions:
REMARK  status: ('A' for Active; 'I' for Inactive)
REMARK    1  A    between atoms: C_1  and  C_2
REMARK    2  A    between atoms: C_2  and  N_3
REMARK    3  A    between atoms: C_2  and  C_21
REMARK    4  A    between atoms: C_4  and  C_6
REMARK    5  A    between atoms: C_12  and  C_13
REMARK                            x       y       z     vdW  Elec       q    Type
REMARK                         _______ _______ _______ _____ _____    ______ ____
ROOT
ATOM      1  C   UNL     1       1.185   9.201  19.622  0.00  0.00    +0.000 A 
ATOM      2  C   UNL     1       0.638   8.539  20.727  0.00  0.00    +0.000 A 
ATOM      3  C   UNL     1       0.074   9.254  21.786  0.00  0.00    +0.000 A 
ATOM      4  C   UNL     1       0.060  10.648  21.679  0.00  0.00    +0.000 A 
ATOM      5  N   UNL     1      -0.378  11.612  22.542  0.00  0.00    +0.000 N 
ATOM      6  N   UNL     1      -0.232  12.865  22.092  0.00  0.00    +0.000 NA
ATOM      7  C   UNL     1       0.305  12.726  20.868  0.00  0.00    +0.000 A 
ATOM      8  C   UNL     1       0.540  11.342  20.572  0.00  0.00    +0.000 A 
ATOM      9  C   UNL     1       1.114  10.601  19.516  0.00  0.00    +0.000 A 
ATOM     10  H   UNL     1      -0.777  11.479  23.464  0.00  0.00    +0.000 HD
ENDROOT
BRANCH   7  11
ATOM     11  C   UNL     1       0.591  13.907  20.050  0.00  0.00    +0.000 A 
ATOM     12  C   UNL     1      -0.460  14.658  19.515  0.00  0.00    +0.000 A 
ATOM     13  C   UNL     1      -0.160  15.771  18.749  0.00  0.00    +0.000 A 
ATOM     14  N   UNL     1       1.098  16.181  18.482  0.00  0.00    +0.000 NA
ATOM     15  C   UNL     1       2.098  15.433  18.992  0.00  0.00    +0.000 A 
ATOM     16  C   UNL     1       1.901  14.300  19.765  0.00  0.00    +0.000 A 
ENDBRANCH   7  11
BRANCH   1  18
ATOM     17  N   UNL     1       2.244   7.166  18.864  0.00  0.00    +0.000 N 
ATOM     18  C   UNL     1       1.879   8.452  18.539  0.00  0.00    +0.000 C 
ATOM     19  O   UNL     1       2.124   8.992  17.468  0.00  0.00    +0.000 OA
ATOM     20  H   UNL     1       2.106   6.838  19.809  0.00  0.00    +0.000 HD
BRANCH  17  22
ATOM     21  C   UNL     1       4.428   6.576  17.944  0.00  0.00    +0.000 C 
ATOM     22  C   UNL     1       2.930   6.274  17.944  0.00  0.00    +0.000 C 
BRANCH  22  23
ATOM     23  C   UNL     1       2.634   4.831  18.319  0.00  0.00    +0.000 A 
ATOM     24  C   UNL     1       2.765   3.820  17.355  0.00  0.00    +0.000 A 
ATOM     25  C   UNL     1       2.440   2.495  17.655  0.00  0.00    +0.000 A 
ATOM     26  C   UNL     1       1.973   2.162  18.925  0.00  0.00    +0.000 A 
ATOM     27  C   UNL     1       1.850   3.152  19.895  0.00  0.00    +0.000 A 
ATOM     28 CL   UNL     1       1.255   2.749  21.459  0.00  0.00    +0.000 Cl
ATOM     29  C   UNL     1       2.188   4.475  19.605  0.00  0.00    +0.000 A 
ENDBRANCH  22  23
ENDBRANCH  17  22
ENDBRANCH   1  18
TORSDOF 4
ENDMDL
