MODEL 1
REMARK VINA RESULT:      -5.8      0.000      0.000
REMARK  Name = 
REMARK  10 active torsions:
REMARK  status: ('A' for Active; 'I' for Inactive)
REMARK    1  A    between atoms: C_1  and  N_2
REMARK    2  A    between atoms: N_2  and  C_3
REMARK    3  A    between atoms: C_3  and  C_4
REMARK    4  A    between atoms: C_5  and  C_6
REMARK    5  A    between atoms: C_12  and  C_13
REMARK    6  A    between atoms: C_16  and  C_17
REMARK    7  A    between atoms: C_26  and  O_27
REMARK    8  A    between atoms: O_27  and  C_28
REMARK    9  A    between atoms: C_30  and  O_31
REMARK   10  A    between atoms: C_32  and  O_33
REMARK                            x       y       z     vdW  Elec       q    Type
REMARK                         _______ _______ _______ _____ _____    ______ ____
ROOT
ATOM      1  C   UNL     1      -1.119  14.743  20.860  0.00  0.00    +0.000 C 
ATOM      2  C   UNL     1      -2.226  13.711  21.204  0.00  0.00    +0.000 C 
ATOM      3  C   UNL     1      -1.806  13.150  22.638  0.00  0.00    +0.000 C 
ATOM      4  O   UNL     1      -2.941  12.620  23.392  0.00  0.00    +0.000 OA
ATOM      5  C   UNL     1      -3.661  13.735  23.730  0.00  0.00    +0.000 A 
ATOM      6  C   UNL     1      -5.024  13.697  23.899  0.00  0.00    +0.000 A 
ATOM      7  N   UNL     1      -5.765  14.815  23.848  0.00  0.00    +0.000 NA
ATOM      8  C   UNL     1      -5.093  15.979  23.624  0.00  0.00    +0.000 A 
ATOM      9  C   UNL     1      -3.704  16.109  23.497  0.00  0.00    +0.000 A 
ATOM     10  C   UNL     1      -2.955  14.936  23.591  0.00  0.00    +0.000 A 
ATOM     11  C   UNL     1      -1.503  14.552  23.314  0.00  0.00    +0.000 C 
ATOM     12  C   UNL     1      -0.676  15.299  22.239  0.00  0.00    +0.000 C 
ENDROOT
BRANCH   2  13
ATOM     13  C   UNL     1      -2.703  12.778  20.117  0.00  0.00    +0.000 A 
ATOM     14  C   UNL     1      -1.861  12.238  19.150  0.00  0.00    +0.000 A 
ATOM     15  C   UNL     1      -2.397  11.593  18.038  0.00  0.00    +0.000 A 
ATOM     16  C   UNL     1      -3.781  11.467  17.895  0.00  0.00    +0.000 A 
ATOM     17  C   UNL     1      -4.630  11.939  18.889  0.00  0.00    +0.000 A 
ATOM     18  C   UNL     1      -4.095  12.576  20.003  0.00  0.00    +0.000 A 
ENDBRANCH   2  13
BRANCH   3  19
ATOM     19  C   UNL     1      -0.818  11.983  22.440  0.00  0.00    +0.000 A 
ATOM     20  C   UNL     1       0.275  11.976  21.569  0.00  0.00    +0.000 A 
ATOM     21  C   UNL     1       0.915  10.767  21.200  0.00  0.00    +0.000 A 
ATOM     22  C   UNL     1       0.489   9.539  21.712  0.00  0.00    +0.000 A 
ATOM     23  C   UNL     1      -0.502   9.531  22.670  0.00  0.00    +0.000 A 
ATOM     24  C   UNL     1      -1.140  10.734  23.034  0.00  0.00    +0.000 A 
BRANCH  22  25
ATOM     25  C   UNL     1       1.060   8.319  21.264  0.00  0.00    +0.000 C 
ATOM     26  N   UNL     1       1.545   7.339  20.868  0.00  0.00    +0.000 NA
ENDBRANCH  22  25
ENDBRANCH   3  19
BRANCH   9  27
ATOM     27  O   UNL     1      -3.067  17.280  23.197  0.00  0.00    +0.000 OA
ATOM     28  C   UNL     1      -3.814  18.489  23.390  0.00  0.00    +0.000 C 
ENDBRANCH   9  27
BRANCH  11  29
ATOM     29  O   UNL     1      -0.803  14.477  24.551  0.00  0.00    +0.000 OA
ATOM     30  H   UNL     1      -1.465  14.500  25.265  0.00  0.00    +0.000 HD
ENDBRANCH  11  29
BRANCH  12  31
ATOM     31  O   UNL     1      -0.656  16.718  22.352  0.00  0.00    +0.000 OA
ATOM     32  H   UNL     1      -1.123  16.970  23.169  0.00  0.00    +0.000 HD
ENDBRANCH  12  31
BRANCH   1  33
ATOM     33  C   UNL     1      -1.597  15.786  19.843  0.00  0.00    +0.000 C 
BRANCH  33  35
ATOM     34  C   UNL     1      -3.130  17.638  19.713  0.00  0.00    +0.000 C 
ATOM     35  N   UNL     1      -2.902  16.304  20.243  0.00  0.00    +0.000 NA
ATOM     36  H   UNL     1      -3.627  15.667  19.888  0.00  0.00    +0.000 HD
ENDBRANCH  33  35
ENDBRANCH   1  33
TORSDOF 8
ENDMDL
MODEL 2
REMARK VINA RESULT:      -5.6      2.104      3.610
REMARK  Name = 
REMARK  10 active torsions:
REMARK  status: ('A' for Active; 'I' for Inactive)
REMARK    1  A    between atoms: C_1  and  N_2
REMARK    2  A    between atoms: N_2  and  C_3
REMARK    3  A    between atoms: C_3  and  C_4
REMARK    4  A    between atoms: C_5  and  C_6
REMARK    5  A    between atoms: C_12  and  C_13
REMARK    6  A    between atoms: C_16  and  C_17
REMARK    7  A    between atoms: C_26  and  O_27
REMARK    8  A    between atoms: O_27  and  C_28
REMARK    9  A    between atoms: C_30  and  O_31
REMARK   10  A    between atoms: C_32  and  O_33
REMARK                            x       y       z     vdW  Elec       q    Type
REMARK                         _______ _______ _______ _____ _____    ______ ____
ROOT
ATOM      1  C   UNL     1      -1.604  14.426  23.970  0.00  0.00    +0.000 C 
ATOM      2  C   UNL     1      -1.929  14.465  22.453  0.00  0.00    +0.000 C 
ATOM      3  C   UNL     1      -2.944  13.252  22.239  0.00  0.00    +0.000 C 
ATOM      4  O   UNL     1      -3.800  13.430  21.068  0.00  0.00    +0.000 OA
ATOM      5  C   UNL     1      -4.649  14.441  21.433  0.00  0.00    +0.000 A 
ATOM      6  C   UNL     1      -5.187  15.307  20.511  0.00  0.00    +0.000 A 
ATOM      7  N   UNL     1      -5.689  16.496  20.881  0.00  0.00    +0.000 NA
ATOM      8  C   UNL     1      -5.638  16.789  22.210  0.00  0.00    +0.000 A 
ATOM      9  C   UNL     1      -5.159  15.941  23.217  0.00  0.00    +0.000 A 
ATOM     10  C   UNL     1      -4.677  14.697  22.809  0.00  0.00    +0.000 A 
ATOM     11  C   UNL     1      -3.889  13.569  23.472  0.00  0.00    +0.000 C 
ATOM     12  C   UNL     1      -2.895  13.866  24.622  0.00  0.00    +0.000 C 
ENDROOT
BRANCH   2  13
ATOM     13  C   UNL     1      -0.800  14.711  21.481  0.00  0.00    +0.000 A 
ATOM     14  C   UNL     1      -0.986  15.267  20.219  0.00  0.00    +0.000 A 
ATOM     15  C   UNL     1       0.045  15.237  19.284  0.00  0.00    +0.000 A 
ATOM     16  C   UNL     1       1.278  14.667  19.611  0.00  0.00    +0.000 A 
ATOM     17  C   UNL     1       1.499  14.174  20.892  0.00  0.00    +0.000 A 
ATOM     18  C   UNL     1       0.473  14.210  21.828  0.00  0.00    +0.000 A 
ENDBRANCH   2  13
BRANCH   3  19
ATOM     19  C   UNL     1      -2.128  11.964  22.004  0.00  0.00    +0.000 A 
ATOM     20  C   UNL     1      -1.529  11.183  22.996  0.00  0.00    +0.000 A 
ATOM     21  C   UNL     1      -0.530  10.229  22.679  0.00  0.00    +0.000 A 
ATOM     22  C   UNL     1      -0.123  10.021  21.359  0.00  0.00    +0.000 A 
ATOM     23  C   UNL     1      -0.787  10.686  20.351  0.00  0.00    +0.000 A 
ATOM     24  C   UNL     1      -1.780  11.636  20.667  0.00  0.00    +0.000 A 
BRANCH  22  25
ATOM     25  C   UNL     1       0.949   9.144  21.052  0.00  0.00    +0.000 C 
ATOM     26  N   UNL     1       1.829   8.438  20.765  0.00  0.00    +0.000 NA
ENDBRANCH  22  25
ENDBRANCH   3  19
BRANCH   9  27
ATOM     27  O   UNL     1      -5.051  16.295  24.532  0.00  0.00    +0.000 OA
ATOM     28  C   UNL     1      -4.812  17.682  24.809  0.00  0.00    +0.000 C 
ENDBRANCH   9  27
BRANCH  11  29
ATOM     29  O   UNL     1      -4.788  12.521  23.818  0.00  0.00    +0.000 OA
ATOM     30  H   UNL     1      -4.706  12.367  24.776  0.00  0.00    +0.000 HD
ENDBRANCH  11  29
BRANCH  12  31
ATOM     31  O   UNL     1      -3.415  14.626  25.707  0.00  0.00    +0.000 OA
ATOM     32  H   UNL     1      -3.237  15.569  25.539  0.00  0.00    +0.000 HD
ENDBRANCH  12  31
BRANCH   1  33
ATOM     33  C   UNL     1      -1.129  15.786  24.494  0.00  0.00    +0.000 C 
BRANCH  33  35
ATOM     34  C   UNL     1      -0.683  16.861  26.601  0.00  0.00    +0.000 C 
ATOM     35  N   UNL     1      -0.571  15.633  25.834  0.00  0.00    +0.000 NA
ATOM     36  H   UNL     1      -1.082  14.881  26.315  0.00  0.00    +0.000 HD
ENDBRANCH  33  35
ENDBRANCH   1  33
TORSDOF 8
ENDMDL
MODEL 3
REMARK VINA RESULT:      -5.5      2.181      3.807
REMARK  Name = 
REMARK  10 active torsions:
REMARK  status: ('A' for Active; 'I' for Inactive)
REMARK    1  A    between atoms: C_1  and  N_2
REMARK    2  A    between atoms: N_2  and  C_3
REMARK    3  A    between atoms: C_3  and  C_4
REMARK    4  A    between atoms: C_5  and  C_6
REMARK    5  A    between atoms: C_12  and  C_13
REMARK    6  A    between atoms: C_16  and  C_17
REMARK    7  A    between atoms: C_26  and  O_27
REMARK    8  A    between atoms: O_27  and  C_28
REMARK    9  A    between atoms: C_30  and  O_31
REMARK   10  A    between atoms: C_32  and  O_33
REMARK                            x       y       z     vdW  Elec       q    Type
REMARK                         _______ _______ _______ _____ _____    ______ ____
ROOT
ATOM      1  C   UNL     1      -1.774  14.557  23.462  0.00  0.00    +0.000 C 
ATOM      2  C   UNL     1      -2.208  14.864  22.004  0.00  0.00    +0.000 C 
ATOM      3  C   UNL     1      -3.205  13.674  21.634  0.00  0.00    +0.000 C 
ATOM      4  O   UNL     1      -4.148  14.034  20.576  0.00  0.00    +0.000 OA
ATOM      5  C   UNL     1      -4.993  14.927  21.179  0.00  0.00    +0.000 A 
ATOM      6  C   UNL     1      -5.617  15.927  20.474  0.00  0.00    +0.000 A 
ATOM      7  N   UNL     1      -6.121  17.007  21.093  0.00  0.00    +0.000 NA
ATOM      8  C   UNL     1      -5.981  17.051  22.447  0.00  0.00    +0.000 A 
ATOM      9  C   UNL     1      -5.411  16.049  23.243  0.00  0.00    +0.000 A 
ATOM     10  C   UNL     1      -4.928  14.922  22.578  0.00  0.00    +0.000 A 
ATOM     11  C   UNL     1      -4.067  13.721  22.964  0.00  0.00    +0.000 C 
ATOM     12  C   UNL     1      -3.000  13.837  24.081  0.00  0.00    +0.000 C 
ENDROOT
BRANCH   2  13
ATOM     13  C   UNL     1      -1.159  15.329  21.023  0.00  0.00    +0.000 A 
ATOM     14  C   UNL     1      -1.438  16.156  19.940  0.00  0.00    +0.000 A 
ATOM     15  C   UNL     1      -0.487  16.343  18.940  0.00  0.00    +0.000 A 
ATOM     16  C   UNL     1       0.760  15.719  19.028  0.00  0.00    +0.000 A 
ATOM     17  C   UNL     1       1.078  14.949  20.141  0.00  0.00    +0.000 A 
ATOM     18  C   UNL     1       0.131  14.768  21.142  0.00  0.00    +0.000 A 
ENDBRANCH   2  13
BRANCH   3  19
ATOM     19  C   UNL     1      -2.377  12.484  21.108  0.00  0.00    +0.000 A 
ATOM     20  C   UNL     1      -1.515  11.688  21.867  0.00  0.00    +0.000 A 
ATOM     21  C   UNL     1      -0.550  10.852  21.252  0.00  0.00    +0.000 A 
ATOM     22  C   UNL     1      -0.441  10.778  19.861  0.00  0.00    +0.000 A 
ATOM     23  C   UNL     1      -1.361  11.454  19.089  0.00  0.00    +0.000 A 
ATOM     24  C   UNL     1      -2.319  12.287  19.702  0.00  0.00    +0.000 A 
BRANCH  22  25
ATOM     25  C   UNL     1       0.593  10.025  19.246  0.00  0.00    +0.000 C 
ATOM     26  N   UNL     1       1.463   9.435  18.748  0.00  0.00    +0.000 NA
ENDBRANCH  22  25
ENDBRANCH   3  19
BRANCH   9  27
ATOM     27  O   UNL     1      -5.217  16.157  24.591  0.00  0.00    +0.000 OA
ATOM     28  C   UNL     1      -4.890  17.460  25.093  0.00  0.00    +0.000 C 
ENDBRANCH   9  27
BRANCH  11  29
ATOM     29  O   UNL     1      -4.913  12.594  23.165  0.00  0.00    +0.000 OA
ATOM     30  H   UNL     1      -4.567  11.866  22.618  0.00  0.00    +0.000 HD
ENDBRANCH  11  29
BRANCH  12  31
ATOM     31  O   UNL     1      -3.460  14.361  25.322  0.00  0.00    +0.000 OA
ATOM     32  H   UNL     1      -3.532  15.330  25.241  0.00  0.00    +0.000 HD
ENDBRANCH  12  31
BRANCH   1  33
ATOM     33  C   UNL     1      -1.297  15.813  24.199  0.00  0.00    +0.000 C 
BRANCH  33  35
ATOM     34  C   UNL     1      -0.774  16.557  26.429  0.00  0.00    +0.000 C 
ATOM     35  N   UNL     1      -0.739  15.443  25.497  0.00  0.00    +0.000 NA
ATOM     36  H   UNL     1      -1.290  14.662  25.877  0.00  0.00    +0.000 HD
ENDBRANCH  33  35
ENDBRANCH   1  33
TORSDOF 8
ENDMDL
MODEL 4
REMARK VINA RESULT:      -5.5      2.063      3.506
REMARK  Name = 
REMARK  10 active torsions:
REMARK  status: ('A' for Active; 'I' for Inactive)
REMARK    1  A    between atoms: C_1  and  N_2
REMARK    2  A    between atoms: N_2  and  C_3
REMARK    3  A    between atoms: C_3  and  C_4
REMARK    4  A    between atoms: C_5  and  C_6
REMARK    5  A    between atoms: C_12  and  C_13
REMARK    6  A    between atoms: C_16  and  C_17
REMARK    7  A    between atoms: C_26  and  O_27
REMARK    8  A    between atoms: O_27  and  C_28
REMARK    9  A    between atoms: C_30  and  O_31
REMARK   10  A    between atoms: C_32  and  O_33
REMARK                            x       y       z     vdW  Elec       q    Type
REMARK                         _______ _______ _______ _____ _____    ______ ____
ROOT
ATOM      1  C   UNL     1      -1.541  14.540  23.733  0.00  0.00    +0.000 C 
ATOM      2  C   UNL     1      -1.887  14.475  22.221  0.00  0.00    +0.000 C 
ATOM      3  C   UNL     1      -2.599  13.058  22.044  0.00  0.00    +0.000 C 
ATOM      4  O   UNL     1      -3.489  13.013  20.885  0.00  0.00    +0.000 OA
ATOM      5  C   UNL     1      -4.542  13.810  21.249  0.00  0.00    +0.000 A 
ATOM      6  C   UNL     1      -5.277  14.511  20.324  0.00  0.00    +0.000 A 
ATOM      7  N   UNL     1      -6.034  15.560  20.684  0.00  0.00    +0.000 NA
ATOM      8  C   UNL     1      -6.032  15.882  22.008  0.00  0.00    +0.000 A 
ATOM      9  C   UNL     1      -5.358  15.185  23.019  0.00  0.00    +0.000 A 
ATOM     10  C   UNL     1      -4.609  14.078  22.622  0.00  0.00    +0.000 A 
ATOM     11  C   UNL     1      -3.575  13.173  23.288  0.00  0.00    +0.000 C 
ATOM     12  C   UNL     1      -2.660  13.711  24.415  0.00  0.00    +0.000 C 
ENDROOT
BRANCH   2  13
ATOM     13  C   UNL     1      -0.858  14.955  21.226  0.00  0.00    +0.000 A 
ATOM     14  C   UNL     1      -1.182  15.415  19.953  0.00  0.00    +0.000 A 
ATOM     15  C   UNL     1      -0.182  15.604  19.003  0.00  0.00    +0.000 A 
ATOM     16  C   UNL     1       1.154  15.354  19.326  0.00  0.00    +0.000 A 
ATOM     17  C   UNL     1       1.498  14.964  20.615  0.00  0.00    +0.000 A 
ATOM     18  C   UNL     1       0.501  14.781  21.566  0.00  0.00    +0.000 A 
ENDBRANCH   2  13
BRANCH   3  19
ATOM     19  C   UNL     1      -1.513  11.987  21.814  0.00  0.00    +0.000 A 
ATOM     20  C   UNL     1      -0.980  11.615  20.577  0.00  0.00    +0.000 A 
ATOM     21  C   UNL     1      -0.252  10.408  20.421  0.00  0.00    +0.000 A 
ATOM     22  C   UNL     1      -0.023   9.558  21.505  0.00  0.00    +0.000 A 
ATOM     23  C   UNL     1      -0.428   9.963  22.759  0.00  0.00    +0.000 A 
ATOM     24  C   UNL     1      -1.153  11.162  22.913  0.00  0.00    +0.000 A 
BRANCH  22  25
ATOM     25  C   UNL     1       0.612   8.301  21.330  0.00  0.00    +0.000 C 
ATOM     26  N   UNL     1       1.164   7.286  21.200  0.00  0.00    +0.000 NA
ENDBRANCH  22  25
ENDBRANCH   3  19
BRANCH   9  27
ATOM     27  O   UNL     1      -5.316  15.580  24.327  0.00  0.00    +0.000 OA
ATOM     28  C   UNL     1      -5.292  16.992  24.574  0.00  0.00    +0.000 C 
ENDBRANCH   9  27
BRANCH  11  29
ATOM     29  O   UNL     1      -4.205  11.954  23.665  0.00  0.00    +0.000 OA
ATOM     30  H   UNL     1      -3.586  11.229  23.465  0.00  0.00    +0.000 HD
ENDBRANCH  11  29
BRANCH  12  31
ATOM     31  O   UNL     1      -3.326  14.352  25.498  0.00  0.00    +0.000 OA
ATOM     32  H   UNL     1      -3.073  13.903  26.326  0.00  0.00    +0.000 HD
ENDBRANCH  12  31
BRANCH   1  33
ATOM     33  C   UNL     1      -1.383  15.982  24.227  0.00  0.00    +0.000 C 
BRANCH  33  35
ATOM     34  C   UNL     1      -0.971  16.803  26.453  0.00  0.00    +0.000 C 
ATOM     35  N   UNL     1      -0.446  16.022  25.345  0.00  0.00    +0.000 NA
ATOM     36  H   UNL     1      -0.272  15.059  25.658  0.00  0.00    +0.000 HD
ENDBRANCH  33  35
ENDBRANCH   1  33
TORSDOF 8
ENDMDL
MODEL 5
REMARK VINA RESULT:      -5.5      2.717      4.312
REMARK  Name = 
REMARK  10 active torsions:
REMARK  status: ('A' for Active; 'I' for Inactive)
REMARK    1  A    between atoms: C_1  and  N_2
REMARK    2  A    between atoms: N_2  and  C_3
REMARK    3  A    between atoms: C_3  and  C_4
REMARK    4  A    between atoms: C_5  and  C_6
REMARK    5  A    between atoms: C_12  and  C_13
REMARK    6  A    between atoms: C_16  and  C_17
REMARK    7  A    between atoms: C_26  and  O_27
REMARK    8  A    between atoms: O_27  and  C_28
REMARK    9  A    between atoms: C_30  and  O_31
REMARK   10  A    between atoms: C_32  and  O_33
REMARK                            x       y       z     vdW  Elec       q    Type
REMARK                         _______ _______ _______ _____ _____    ______ ____
ROOT
ATOM      1  C   UNL     1      -2.292  13.583  20.329  0.00  0.00    +0.000 C 
ATOM      2  C   UNL     1      -1.417  13.309  21.581  0.00  0.00    +0.000 C 
ATOM      3  C   UNL     1      -0.466  14.586  21.680  0.00  0.00    +0.000 C 
ATOM      4  O   UNL     1       0.024  14.823  23.037  0.00  0.00    +0.000 OA
ATOM      5  C   UNL     1      -1.087  15.250  23.716  0.00  0.00    +0.000 A 
ATOM      6  C   UNL     1      -1.247  15.025  25.062  0.00  0.00    +0.000 A 
ATOM      7  N   UNL     1      -2.456  15.089  25.641  0.00  0.00    +0.000 NA
ATOM      8  C   UNL     1      -3.504  15.391  24.825  0.00  0.00    +0.000 A 
ATOM      9  C   UNL     1      -3.417  15.690  23.459  0.00  0.00    +0.000 A 
ATOM     10  C   UNL     1      -2.144  15.651  22.890  0.00  0.00    +0.000 A 
ATOM     11  C   UNL     1      -1.590  15.684  21.468  0.00  0.00    +0.000 C 
ATOM     12  C   UNL     1      -2.417  15.128  20.282  0.00  0.00    +0.000 C 
ENDROOT
BRANCH   2  13
ATOM     13  C   UNL     1      -0.869  11.917  21.785  0.00  0.00    +0.000 A 
ATOM     14  C   UNL     1      -0.356  11.139  20.753  0.00  0.00    +0.000 A 
ATOM     15  C   UNL     1      -0.101   9.785  20.958  0.00  0.00    +0.000 A 
ATOM     16  C   UNL     1      -0.338   9.205  22.207  0.00  0.00    +0.000 A 
ATOM     17  C   UNL     1      -0.781   9.987  23.267  0.00  0.00    +0.000 A 
ATOM     18  C   UNL     1      -1.030  11.340  23.063  0.00  0.00    +0.000 A 
ENDBRANCH   2  13
BRANCH   3  19
ATOM     19  C   UNL     1       0.774  14.346  20.794  0.00  0.00    +0.000 A 
ATOM     20  C   UNL     1       2.037  13.954  21.244  0.00  0.00    +0.000 A 
ATOM     21  C   UNL     1       3.186  14.087  20.424  0.00  0.00    +0.000 A 
ATOM     22  C   UNL     1       3.091  14.597  19.127  0.00  0.00    +0.000 A 
ATOM     23  C   UNL     1       1.842  14.871  18.614  0.00  0.00    +0.000 A 
ATOM     24  C   UNL     1       0.700  14.740  19.431  0.00  0.00    +0.000 A 
BRANCH  22  25
ATOM     25  C   UNL     1       4.252  14.829  18.344  0.00  0.00    +0.000 C 
ATOM     26  N   UNL     1       5.214  14.985  17.710  0.00  0.00    +0.000 NA
ENDBRANCH  22  25
ENDBRANCH   3  19
BRANCH   9  27
ATOM     27  O   UNL     1      -4.497  15.914  22.652  0.00  0.00    +0.000 OA
ATOM     28  C   UNL     1      -5.763  16.086  23.302  0.00  0.00    +0.000 C 
ENDBRANCH   9  27
BRANCH  11  29
ATOM     29  O   UNL     1      -1.101  16.992  21.194  0.00  0.00    +0.000 OA
ATOM     30  H   UNL     1      -0.321  17.138  21.759  0.00  0.00    +0.000 HD
ENDBRANCH  11  29
BRANCH  12  31
ATOM     31  O   UNL     1      -3.742  15.635  20.162  0.00  0.00    +0.000 OA
ATOM     32  H   UNL     1      -4.364  14.886  20.198  0.00  0.00    +0.000 HD
ENDBRANCH  12  31
BRANCH   1  33
ATOM     33  C   UNL     1      -3.614  12.808  20.368  0.00  0.00    +0.000 C 
BRANCH  33  35
ATOM     34  C   UNL     1      -5.673  12.714  21.613  0.00  0.00    +0.000 C 
ATOM     35  N   UNL     1      -4.244  12.970  21.675  0.00  0.00    +0.000 NA
ATOM     36  H   UNL     1      -3.806  12.309  22.330  0.00  0.00    +0.000 HD
ENDBRANCH  33  35
ENDBRANCH   1  33
TORSDOF 8
ENDMDL
MODEL 6
REMARK VINA RESULT:      -5.4      2.488      3.494
REMARK  Name = 
REMARK  10 active torsions:
REMARK  status: ('A' for Active; 'I' for Inactive)
REMARK    1  A    between atoms: C_1  and  N_2
REMARK    2  A    between atoms: N_2  and  C_3
REMARK    3  A    between atoms: C_3  and  C_4
REMARK    4  A    between atoms: C_5  and  C_6
REMARK    5  A    between atoms: C_12  and  C_13
REMARK    6  A    between atoms: C_16  and  C_17
REMARK    7  A    between atoms: C_26  and  O_27
REMARK    8  A    between atoms: O_27  and  C_28
REMARK    9  A    between atoms: C_30  and  O_31
REMARK   10  A    between atoms: C_32  and  O_33
REMARK                            x       y       z     vdW  Elec       q    Type
REMARK                         _______ _______ _______ _____ _____    ______ ____
ROOT
ATOM      1  C   UNL     1       0.406  13.664  18.517  0.00  0.00    +0.000 C 
ATOM      2  C   UNL     1      -0.553  12.934  19.495  0.00  0.00    +0.000 C 
ATOM      3  C   UNL     1       0.422  12.139  20.477  0.00  0.00    +0.000 C 
ATOM      4  O   UNL     1      -0.190  11.855  21.775  0.00  0.00    +0.000 OA
ATOM      5  C   UNL     1      -0.257  13.082  22.381  0.00  0.00    +0.000 A 
ATOM      6  C   UNL     1      -1.239  13.390  23.291  0.00  0.00    +0.000 A 
ATOM      7  N   UNL     1      -1.539  14.664  23.590  0.00  0.00    +0.000 NA
ATOM      8  C   UNL     1      -0.817  15.623  22.946  0.00  0.00    +0.000 A 
ATOM      9  C   UNL     1       0.234  15.393  22.050  0.00  0.00    +0.000 A 
ATOM     10  C   UNL     1       0.549  14.060  21.786  0.00  0.00    +0.000 A 
ATOM     11  C   UNL     1       1.424  13.333  20.766  0.00  0.00    +0.000 C 
ATOM     12  C   UNL     1       1.675  13.940  19.363  0.00  0.00    +0.000 C 
ENDROOT
BRANCH   2  13
ATOM     13  C   UNL     1      -1.791  12.276  18.933  0.00  0.00    +0.000 A 
ATOM     14  C   UNL     1      -1.845  11.708  17.665  0.00  0.00    +0.000 A 
ATOM     15  C   UNL     1      -3.071  11.345  17.113  0.00  0.00    +0.000 A 
ATOM     16  C   UNL     1      -4.252  11.530  17.837  0.00  0.00    +0.000 A 
ATOM     17  C   UNL     1      -4.204  12.029  19.134  0.00  0.00    +0.000 A 
ATOM     18  C   UNL     1      -2.979  12.385  19.687  0.00  0.00    +0.000 A 
ENDBRANCH   2  13
BRANCH   3  19
ATOM     19  C   UNL     1       0.763  10.778  19.838  0.00  0.00    +0.000 A 
ATOM     20  C   UNL     1       0.712   9.537  20.479  0.00  0.00    +0.000 A 
ATOM     21  C   UNL     1       1.359   8.399  19.934  0.00  0.00    +0.000 A 
ATOM     22  C   UNL     1       2.052   8.473  18.723  0.00  0.00    +0.000 A 
ATOM     23  C   UNL     1       2.009   9.651  18.009  0.00  0.00    +0.000 A 
ATOM     24  C   UNL     1       1.368  10.783  18.553  0.00  0.00    +0.000 A 
BRANCH  22  25
ATOM     25  C   UNL     1       2.787   7.364  18.230  0.00  0.00    +0.000 C 
ATOM     26  N   UNL     1       3.374   6.460  17.793  0.00  0.00    +0.000 NA
ENDBRANCH  22  25
ENDBRANCH   3  19
BRANCH   9  27
ATOM     27  O   UNL     1       0.887  16.377  21.362  0.00  0.00    +0.000 OA
ATOM     28  C   UNL     1       0.812  17.702  21.905  0.00  0.00    +0.000 C 
ENDBRANCH   9  27
BRANCH  11  29
ATOM     29  O   UNL     1       2.642  12.950  21.395  0.00  0.00    +0.000 OA
ATOM     30  H   UNL     1       3.260  13.699  21.318  0.00  0.00    +0.000 HD
ENDBRANCH  11  29
BRANCH  12  31
ATOM     31  O   UNL     1       2.146  15.283  19.347  0.00  0.00    +0.000 OA
ATOM     32  H   UNL     1       2.460  15.512  20.240  0.00  0.00    +0.000 HD
ENDBRANCH  12  31
BRANCH   1  33
ATOM     33  C   UNL     1      -0.249  14.893  17.877  0.00  0.00    +0.000 C 
BRANCH  33  35
ATOM     34  C   UNL     1      -0.876  17.136  18.486  0.00  0.00    +0.000 C 
ATOM     35  N   UNL     1      -0.813  15.750  18.916  0.00  0.00    +0.000 NA
ATOM     36  H   UNL     1      -1.761  15.416  19.133  0.00  0.00    +0.000 HD
ENDBRANCH  33  35
ENDBRANCH   1  33
TORSDOF 8
ENDMDL
MODEL 7
REMARK VINA RESULT:      -5.4      0.919      1.097
REMARK  Name = 
REMARK  10 active torsions:
REMARK  status: ('A' for Active; 'I' for Inactive)
REMARK    1  A    between atoms: C_1  and  N_2
REMARK    2  A    between atoms: N_2  and  C_3
REMARK    3  A    between atoms: C_3  and  C_4
REMARK    4  A    between atoms: C_5  and  C_6
REMARK    5  A    between atoms: C_12  and  C_13
REMARK    6  A    between atoms: C_16  and  C_17
REMARK    7  A    between atoms: C_26  and  O_27
REMARK    8  A    between atoms: O_27  and  C_28
REMARK    9  A    between atoms: C_30  and  O_31
REMARK   10  A    between atoms: C_32  and  O_33
REMARK                            x       y       z     vdW  Elec       q    Type
REMARK                         _______ _______ _______ _____ _____    ______ ____
ROOT
ATOM      1  C   UNL     1      -1.922  14.844  21.287  0.00  0.00    +0.000 C 
ATOM      2  C   UNL     1      -2.878  13.634  21.462  0.00  0.00    +0.000 C 
ATOM      3  C   UNL     1      -2.457  13.003  22.866  0.00  0.00    +0.000 C 
ATOM      4  O   UNL     1      -3.538  12.244  23.493  0.00  0.00    +0.000 OA
ATOM      5  C   UNL     1      -4.434  13.206  23.877  0.00  0.00    +0.000 A 
ATOM      6  C   UNL     1      -5.783  12.954  23.951  0.00  0.00    +0.000 A 
ATOM      7  N   UNL     1      -6.680  13.953  23.948  0.00  0.00    +0.000 NA
ATOM      8  C   UNL     1      -6.179  15.218  23.873  0.00  0.00    +0.000 A 
ATOM      9  C   UNL     1      -4.820  15.560  23.853  0.00  0.00    +0.000 A 
ATOM     10  C   UNL     1      -3.910  14.504  23.893  0.00  0.00    +0.000 A 
ATOM     11  C   UNL     1      -2.404  14.362  23.682  0.00  0.00    +0.000 C 
ATOM     12  C   UNL     1      -1.643  15.322  22.735  0.00  0.00    +0.000 C 
ENDROOT
BRANCH   2  13
ATOM     13  C   UNL     1      -3.151  12.752  20.267  0.00  0.00    +0.000 A 
ATOM     14  C   UNL     1      -2.165  12.360  19.367  0.00  0.00    +0.000 A 
ATOM     15  C   UNL     1      -2.519  11.761  18.161  0.00  0.00    +0.000 A 
ATOM     16  C   UNL     1      -3.863  11.532  17.855  0.00  0.00    +0.000 A 
ATOM     17  C   UNL     1      -4.852  11.853  18.777  0.00  0.00    +0.000 A 
ATOM     18  C   UNL     1      -4.499  12.445  19.984  0.00  0.00    +0.000 A 
ENDBRANCH   2  13
BRANCH   3  19
ATOM     19  C   UNL     1      -1.295  12.016  22.633  0.00  0.00    +0.000 A 
ATOM     20  C   UNL     1      -0.200  12.226  21.790  0.00  0.00    +0.000 A 
ATOM     21  C   UNL     1       0.627  11.152  21.376  0.00  0.00    +0.000 A 
ATOM     22  C   UNL     1       0.390   9.847  21.815  0.00  0.00    +0.000 A 
ATOM     23  C   UNL     1      -0.603   9.634  22.747  0.00  0.00    +0.000 A 
ATOM     24  C   UNL     1      -1.427  10.702  23.156  0.00  0.00    +0.000 A 
BRANCH  22  25
ATOM     25  C   UNL     1       1.151   8.757  21.319  0.00  0.00    +0.000 C 
ATOM     26  N   UNL     1       1.744   7.850  20.897  0.00  0.00    +0.000 NA
ENDBRANCH  22  25
ENDBRANCH   3  19
BRANCH   9  27
ATOM     27  O   UNL     1      -4.351  16.834  23.700  0.00  0.00    +0.000 OA
ATOM     28  C   UNL     1      -4.476  17.707  24.831  0.00  0.00    +0.000 C 
ENDBRANCH   9  27
BRANCH  11  29
ATOM     29  O   UNL     1      -1.768  14.269  24.952  0.00  0.00    +0.000 OA
ATOM     30  H   UNL     1      -2.142  13.496  25.412  0.00  0.00    +0.000 HD
ENDBRANCH  11  29
BRANCH  12  31
ATOM     31  O   UNL     1      -1.841  16.711  22.974  0.00  0.00    +0.000 OA
ATOM     32  H   UNL     1      -1.546  17.205  22.187  0.00  0.00    +0.000 HD
ENDBRANCH  12  31
BRANCH   1  33
ATOM     33  C   UNL     1      -2.495  15.900  20.335  0.00  0.00    +0.000 C 
BRANCH  33  35
ATOM     34  C   UNL     1      -0.246  15.582  19.537  0.00  0.00    +0.000 C 
ATOM     35  N   UNL     1      -1.550  16.156  19.253  0.00  0.00    +0.000 NA
ATOM     36  H   UNL     1      -1.925  15.743  18.389  0.00  0.00    +0.000 HD
ENDBRANCH  33  35
ENDBRANCH   1  33
TORSDOF 8
ENDMDL
MODEL 8
REMARK VINA RESULT:      -5.4      1.281      1.620
REMARK  Name = 
REMARK  10 active torsions:
REMARK  status: ('A' for Active; 'I' for Inactive)
REMARK    1  A    between atoms: C_1  and  N_2
REMARK    2  A    between atoms: N_2  and  C_3
REMARK    3  A    between atoms: C_3  and  C_4
REMARK    4  A    between atoms: C_5  and  C_6
REMARK    5  A    between atoms: C_12  and  C_13
REMARK    6  A    between atoms: C_16  and  C_17
REMARK    7  A    between atoms: C_26  and  O_27
REMARK    8  A    between atoms: O_27  and  C_28
REMARK    9  A    between atoms: C_30  and  O_31
REMARK   10  A    between atoms: C_32  and  O_33
REMARK                            x       y       z     vdW  Elec       q    Type
REMARK                         _______ _______ _______ _____ _____    ______ ____
ROOT
ATOM      1  C   UNL     1      -0.193  14.033  20.111  0.00  0.00    +0.000 C 
ATOM      2  C   UNL     1      -1.443  13.137  20.314  0.00  0.00    +0.000 C 
ATOM      3  C   UNL     1      -1.316  12.624  21.820  0.00  0.00    +0.000 C 
ATOM      4  O   UNL     1      -2.605  12.254  22.402  0.00  0.00    +0.000 OA
ATOM      5  C   UNL     1      -3.247  13.452  22.569  0.00  0.00    +0.000 A 
ATOM      6  C   UNL     1      -4.616  13.557  22.515  0.00  0.00    +0.000 A 
ATOM      7  N   UNL     1      -5.217  14.737  22.296  0.00  0.00    +0.000 NA
ATOM      8  C   UNL     1      -4.399  15.814  22.133  0.00  0.00    +0.000 A 
ATOM      9  C   UNL     1      -3.001  15.801  22.229  0.00  0.00    +0.000 A 
ATOM     10  C   UNL     1      -2.405  14.568  22.495  0.00  0.00    +0.000 A 
ATOM     11  C   UNL     1      -0.976  14.028  22.475  0.00  0.00    +0.000 C 
ATOM     12  C   UNL     1       0.084  14.625  21.517  0.00  0.00    +0.000 C 
ENDROOT
BRANCH   2  13
ATOM     13  C   UNL     1      -1.839  12.191  19.205  0.00  0.00    +0.000 A 
ATOM     14  C   UNL     1      -3.160  11.873  18.907  0.00  0.00    +0.000 A 
ATOM     15  C   UNL     1      -3.448  10.815  18.049  0.00  0.00    +0.000 A 
ATOM     16  C   UNL     1      -2.413  10.079  17.466  0.00  0.00    +0.000 A 
ATOM     17  C   UNL     1      -1.089  10.433  17.698  0.00  0.00    +0.000 A 
ATOM     18  C   UNL     1      -0.802  11.494  18.550  0.00  0.00    +0.000 A 
ENDBRANCH   2  13
BRANCH   3  19
ATOM     19  C   UNL     1      -0.438  11.357  21.837  0.00  0.00    +0.000 A 
ATOM     20  C   UNL     1       0.835  11.237  21.274  0.00  0.00    +0.000 A 
ATOM     21  C   UNL     1       1.419   9.967  21.036  0.00  0.00    +0.000 A 
ATOM     22  C   UNL     1       0.749   8.789  21.376  0.00  0.00    +0.000 A 
ATOM     23  C   UNL     1      -0.451   8.883  22.048  0.00  0.00    +0.000 A 
ATOM     24  C   UNL     1      -1.031  10.146  22.282  0.00  0.00    +0.000 A 
BRANCH  22  25
ATOM     25  C   UNL     1       1.285   7.519  21.042  0.00  0.00    +0.000 C 
ATOM     26  N   UNL     1       1.692   6.469  20.750  0.00  0.00    +0.000 NA
ENDBRANCH  22  25
ENDBRANCH   3  19
BRANCH   9  27
ATOM     27  O   UNL     1      -2.205  16.884  21.986  0.00  0.00    +0.000 OA
ATOM     28  C   UNL     1      -2.331  17.993  22.886  0.00  0.00    +0.000 C 
ENDBRANCH   9  27
BRANCH  11  29
ATOM     29  O   UNL     1      -0.492  13.959  23.812  0.00  0.00    +0.000 OA
ATOM     30  H   UNL     1      -0.542  14.856  24.189  0.00  0.00    +0.000 HD
ENDBRANCH  11  29
BRANCH  12  31
ATOM     31  O   UNL     1       0.236  16.040  21.570  0.00  0.00    +0.000 OA
ATOM     32  H   UNL     1      -0.434  16.401  22.178  0.00  0.00    +0.000 HD
ENDBRANCH  12  31
BRANCH   1  33
ATOM     33  C   UNL     1      -0.391  15.054  18.985  0.00  0.00    +0.000 C 
BRANCH  33  35
ATOM     34  C   UNL     1      -1.271  17.279  18.717  0.00  0.00    +0.000 C 
ATOM     35  N   UNL     1      -1.461  15.981  19.341  0.00  0.00    +0.000 NA
ATOM     36  H   UNL     1      -2.356  15.580  19.030  0.00  0.00    +0.000 HD
ENDBRANCH  33  35
ENDBRANCH   1  33
TORSDOF 8
ENDMDL
MODEL 9
REMARK VINA RESULT:      -5.4      2.042      3.516
REMARK  Name = 
REMARK  10 active torsions:
REMARK  status: ('A' for Active; 'I' for Inactive)
REMARK    1  A    between atoms: C_1  and  N_2
REMARK    2  A    between atoms: N_2  and  C_3
REMARK    3  A    between atoms: C_3  and  C_4
REMARK    4  A    between atoms: C_5  and  C_6
REMARK    5  A    between atoms: C_12  and  C_13
REMARK    6  A    between atoms: C_16  and  C_17
REMARK    7  A    between atoms: C_26  and  O_27
REMARK    8  A    between atoms: O_27  and  C_28
REMARK    9  A    between atoms: C_30  and  O_31
REMARK   10  A    between atoms: C_32  and  O_33
REMARK                            x       y       z     vdW  Elec       q    Type
REMARK                         _______ _______ _______ _____ _____    ______ ____
ROOT
ATOM      1  C   UNL     1      -1.105  14.412  22.851  0.00  0.00    +0.000 C 
ATOM      2  C   UNL     1      -1.734  14.669  21.456  0.00  0.00    +0.000 C 
ATOM      3  C   UNL     1      -2.734  13.442  21.247  0.00  0.00    +0.000 C 
ATOM      4  O   UNL     1      -3.816  13.748  20.313  0.00  0.00    +0.000 OA
ATOM      5  C   UNL     1      -4.603  14.633  21.001  0.00  0.00    +0.000 A 
ATOM      6  C   UNL     1      -5.344  15.597  20.361  0.00  0.00    +0.000 A 
ATOM      7  N   UNL     1      -5.796  16.679  21.015  0.00  0.00    +0.000 NA
ATOM      8  C   UNL     1      -5.483  16.762  22.338  0.00  0.00    +0.000 A 
ATOM      9  C   UNL     1      -4.783  15.798  23.075  0.00  0.00    +0.000 A 
ATOM     10  C   UNL     1      -4.357  14.667  22.379  0.00  0.00    +0.000 A 
ATOM     11  C   UNL     1      -3.416  13.501  22.677  0.00  0.00    +0.000 C 
ATOM     12  C   UNL     1      -2.218  13.676  23.641  0.00  0.00    +0.000 C 
ENDROOT
BRANCH   2  13
ATOM     13  C   UNL     1      -0.836  15.135  20.336  0.00  0.00    +0.000 A 
ATOM     14  C   UNL     1       0.452  14.649  20.137  0.00  0.00    +0.000 A 
ATOM     15  C   UNL     1       1.313  15.292  19.251  0.00  0.00    +0.000 A 
ATOM     16  C   UNL     1       0.883  16.416  18.541  0.00  0.00    +0.000 A 
ATOM     17  C   UNL     1      -0.424  16.868  18.676  0.00  0.00    +0.000 A 
ATOM     18  C   UNL     1      -1.286  16.222  19.556  0.00  0.00    +0.000 A 
ENDBRANCH   2  13
BRANCH   3  19
ATOM     19  C   UNL     1      -1.945  12.262  20.645  0.00  0.00    +0.000 A 
ATOM     20  C   UNL     1      -0.962  11.515  21.300  0.00  0.00    +0.000 A 
ATOM     21  C   UNL     1      -0.062  10.690  20.582  0.00  0.00    +0.000 A 
ATOM     22  C   UNL     1      -0.139  10.577  19.191  0.00  0.00    +0.000 A 
ATOM     23  C   UNL     1      -1.177  11.201  18.535  0.00  0.00    +0.000 A 
ATOM     24  C   UNL     1      -2.071  12.024  19.250  0.00  0.00    +0.000 A 
BRANCH  22  25
ATOM     25  C   UNL     1       0.827   9.835  18.461  0.00  0.00    +0.000 C 
ATOM     26  N   UNL     1       1.629   9.260  17.847  0.00  0.00    +0.000 NA
ENDBRANCH  22  25
ENDBRANCH   3  19
BRANCH   9  27
ATOM     27  O   UNL     1      -4.419  15.948  24.384  0.00  0.00    +0.000 OA
ATOM     28  C   UNL     1      -4.854  17.145  25.042  0.00  0.00    +0.000 C 
ENDBRANCH   9  27
BRANCH  11  29
ATOM     29  O   UNL     1      -4.194  12.357  23.013  0.00  0.00    +0.000 OA
ATOM     30  H   UNL     1      -4.018  11.675  22.340  0.00  0.00    +0.000 HD
ENDBRANCH  11  29
BRANCH  12  31
ATOM     31  O   UNL     1      -2.528  14.221  24.919  0.00  0.00    +0.000 OA
ATOM     32  H   UNL     1      -3.490  14.154  25.059  0.00  0.00    +0.000 HD
ENDBRANCH  12  31
BRANCH   1  33
ATOM     33  C   UNL     1      -0.574  15.700  23.491  0.00  0.00    +0.000 C 
BRANCH  33  35
ATOM     34  C   UNL     1      -1.268  17.870  24.272  0.00  0.00    +0.000 C 
ATOM     35  N   UNL     1      -1.587  16.749  23.405  0.00  0.00    +0.000 NA
ATOM     36  H   UNL     1      -1.637  17.073  22.431  0.00  0.00    +0.000 HD
ENDBRANCH  33  35
ENDBRANCH   1  33
TORSDOF 8
ENDMDL
