MODEL 1
REMARK VINA RESULT:      -8.3      0.000      0.000
REMARK  Name = 
REMARK  7 active torsions:
REMARK  status: ('A' for Active; 'I' for Inactive)
REMARK    1  A    between atoms: C_1  and  C_2
REMARK    2  A    between atoms: C_2  and  O_3
REMARK    3  A    between atoms: O_3  and  C_4
REMARK    4  A    between atoms: C_9  and  N_10
REMARK    5  A    between atoms: C_11  and  C_13
REMARK    6  A    between atoms: C_13  and  N_14
REMARK    7  A    between atoms: C_19  and  C_20
REMARK                            x       y       z     vdW  Elec       q    Type
REMARK                         _______ _______ _______ _____ _____    ______ ____
ROOT
ATOM      1  N   UNL     1      -0.443  11.492  19.624  0.00  0.00    +0.000 N 
ATOM      2  N   UNL     1       0.258  10.654  18.777  0.00  0.00    +0.000 NA
ATOM      3  C   UNL     1       0.707   9.733  19.574  0.00  0.00    +0.000 A 
ATOM      4  C   UNL     1       1.518   8.622  19.224  0.00  0.00    +0.000 A 
ATOM      5  C   UNL     1       2.045   8.188  18.042  0.00  0.00    +0.000 A 
ATOM      6  C   UNL     1       2.803   7.039  18.381  0.00  0.00    +0.000 A 
ATOM      7  N   UNL     1       2.733   6.783  19.699  0.00  0.00    +0.000 NA
ATOM      8  N   UNL     1       1.929   7.746  20.212  0.00  0.00    +0.000 N 
ATOM      9  C   UNL     1       1.526   7.945  21.540  0.00  0.00    +0.000 A 
ATOM     10  C   UNL     1       0.746   8.994  21.871  0.00  0.00    +0.000 A 
ATOM     11  N   UNL     1       0.360   9.868  20.882  0.00  0.00    +0.000 N 
ATOM     12  C   UNL     1      -0.425  10.996  20.943  0.00  0.00    +0.000 A 
ATOM     13  O   UNL     1      -0.991  11.467  21.915  0.00  0.00    +0.000 OA
ENDROOT
BRANCH   6  14
ATOM     14  C   UNL     1       3.617   6.240  17.460  0.00  0.00    +0.000 A 
ATOM     15  C   UNL     1       3.537   4.841  17.455  0.00  0.00    +0.000 A 
ATOM     16  C   UNL     1       4.397   4.084  16.650  0.00  0.00    +0.000 A 
ATOM     17  C   UNL     1       5.333   4.723  15.838  0.00  0.00    +0.000 A 
ATOM     18 CL   UNL     1       6.418   3.795  14.881  0.00  0.00    +0.000 Cl
ATOM     19  C   UNL     1       5.402   6.113  15.806  0.00  0.00    +0.000 A 
ATOM     20  C   UNL     1       4.545   6.867  16.612  0.00  0.00    +0.000 A 
ENDBRANCH   6  14
BRANCH   1  21
ATOM     21  C   UNL     1      -1.301  12.544  19.117  0.00  0.00    +0.000 C 
BRANCH  21  23
ATOM     22  N   UNL     1      -3.602  12.968  19.856  0.00  0.00    +0.000 N 
ATOM     23  C   UNL     1      -2.786  12.175  19.062  0.00  0.00    +0.000 C 
ATOM     24  O   UNL     1      -3.138  11.182  18.429  0.00  0.00    +0.000 OA
ATOM     25  H   UNL     1      -3.152  13.774  20.256  0.00  0.00    +0.000 HD
BRANCH  22  31
ATOM     26  C   UNL     1      -5.567  12.558  21.292  0.00  0.00    +0.000 A 
ATOM     27  C   UNL     1      -6.960  12.402  21.411  0.00  0.00    +0.000 A 
ATOM     28  C   UNL     1      -7.804  12.556  20.312  0.00  0.00    +0.000 A 
ATOM     29  C   UNL     1      -7.256  12.849  19.072  0.00  0.00    +0.000 A 
ATOM     30  C   UNL     1      -5.872  12.998  18.938  0.00  0.00    +0.000 A 
ATOM     31  C   UNL     1      -5.002  12.860  20.034  0.00  0.00    +0.000 A 
BRANCH  26  32
ATOM     32  O   UNL     1      -4.913  12.310  22.473  0.00  0.00    +0.000 OA
BRANCH  32  34
ATOM     33  C   UNL     1      -3.293  13.494  23.785  0.00  0.00    +0.000 C 
ATOM     34  C   UNL     1      -4.757  13.381  23.397  0.00  0.00    +0.000 C 
ENDBRANCH  32  34
ENDBRANCH  26  32
ENDBRANCH  22  31
ENDBRANCH  21  23
ENDBRANCH   1  21
TORSDOF 6
ENDMDL
MODEL 2
REMARK VINA RESULT:      -8.2      0.812      1.210
REMARK  Name = 
REMARK  7 active torsions:
REMARK  status: ('A' for Active; 'I' for Inactive)
REMARK    1  A    between atoms: C_1  and  C_2
REMARK    2  A    between atoms: C_2  and  O_3
REMARK    3  A    between atoms: O_3  and  C_4
REMARK    4  A    between atoms: C_9  and  N_10
REMARK    5  A    between atoms: C_11  and  C_13
REMARK    6  A    between atoms: C_13  and  N_14
REMARK    7  A    between atoms: C_19  and  C_20
REMARK                            x       y       z     vdW  Elec       q    Type
REMARK                         _______ _______ _______ _____ _____    ______ ____
ROOT
ATOM      1  N   UNL     1      -0.264  11.473  19.255  0.00  0.00    +0.000 N 
ATOM      2  N   UNL     1       0.502  10.628  18.474  0.00  0.00    +0.000 NA
ATOM      3  C   UNL     1       0.836   9.681  19.297  0.00  0.00    +0.000 A 
ATOM      4  C   UNL     1       1.649   8.553  19.017  0.00  0.00    +0.000 A 
ATOM      5  C   UNL     1       2.289   8.121  17.891  0.00  0.00    +0.000 A 
ATOM      6  C   UNL     1       2.973   6.945  18.289  0.00  0.00    +0.000 A 
ATOM      7  N   UNL     1       2.753   6.672  19.587  0.00  0.00    +0.000 NA
ATOM      8  N   UNL     1       1.926   7.650  20.027  0.00  0.00    +0.000 N 
ATOM      9  C   UNL     1       1.387   7.840  21.308  0.00  0.00    +0.000 A 
ATOM     10  C   UNL     1       0.605   8.907  21.572  0.00  0.00    +0.000 A 
ATOM     11  N   UNL     1       0.353   9.807  20.563  0.00  0.00    +0.000 N 
ATOM     12  C   UNL     1      -0.402  10.957  20.560  0.00  0.00    +0.000 A 
ATOM     13  O   UNL     1      -1.057  11.430  21.473  0.00  0.00    +0.000 OA
ENDROOT
BRANCH   6  14
ATOM     14  C   UNL     1       3.860   6.137  17.447  0.00  0.00    +0.000 A 
ATOM     15  C   UNL     1       4.793   6.742  16.593  0.00  0.00    +0.000 A 
ATOM     16  C   UNL     1       5.558   5.966  15.715  0.00  0.00    +0.000 A 
ATOM     17  C   UNL     1       5.402   4.582  15.693  0.00  0.00    +0.000 A 
ATOM     18 CL   UNL     1       6.311   3.631  14.585  0.00  0.00    +0.000 Cl
ATOM     19  C   UNL     1       4.505   3.962  16.558  0.00  0.00    +0.000 A 
ATOM     20  C   UNL     1       3.740   4.737  17.433  0.00  0.00    +0.000 A 
ENDBRANCH   6  14
BRANCH   1  21
ATOM     21  C   UNL     1      -1.032  12.557  18.678  0.00  0.00    +0.000 C 
BRANCH  21  23
ATOM     22  N   UNL     1      -3.371  12.463  19.412  0.00  0.00    +0.000 N 
ATOM     23  C   UNL     1      -2.489  12.204  18.373  0.00  0.00    +0.000 C 
ATOM     24  O   UNL     1      -2.766  11.645  17.314  0.00  0.00    +0.000 OA
ATOM     25  H   UNL     1      -2.980  12.981  20.182  0.00  0.00    +0.000 HD
BRANCH  22  31
ATOM     26  C   UNL     1      -5.619  12.925  20.322  0.00  0.00    +0.000 A 
ATOM     27  C   UNL     1      -6.990  12.614  20.360  0.00  0.00    +0.000 A 
ATOM     28  C   UNL     1      -7.534  11.633  19.530  0.00  0.00    +0.000 A 
ATOM     29  C   UNL     1      -6.702  10.938  18.666  0.00  0.00    +0.000 A 
ATOM     30  C   UNL     1      -5.336  11.231  18.625  0.00  0.00    +0.000 A 
ATOM     31  C   UNL     1      -4.766  12.224  19.442  0.00  0.00    +0.000 A 
BRANCH  26  32
ATOM     32  O   UNL     1      -5.275  13.874  21.252  0.00  0.00    +0.000 OA
BRANCH  32  34
ATOM     33  C   UNL     1      -4.651  12.932  23.367  0.00  0.00    +0.000 C 
ATOM     34  C   UNL     1      -5.713  13.694  22.594  0.00  0.00    +0.000 C 
ENDBRANCH  32  34
ENDBRANCH  26  32
ENDBRANCH  22  31
ENDBRANCH  21  23
ENDBRANCH   1  21
TORSDOF 6
ENDMDL
MODEL 3
REMARK VINA RESULT:      -8.2      1.393      2.610
REMARK  Name = 
REMARK  7 active torsions:
REMARK  status: ('A' for Active; 'I' for Inactive)
REMARK    1  A    between atoms: C_1  and  C_2
REMARK    2  A    between atoms: C_2  and  O_3
REMARK    3  A    between atoms: O_3  and  C_4
REMARK    4  A    between atoms: C_9  and  N_10
REMARK    5  A    between atoms: C_11  and  C_13
REMARK    6  A    between atoms: C_13  and  N_14
REMARK    7  A    between atoms: C_19  and  C_20
REMARK                            x       y       z     vdW  Elec       q    Type
REMARK                         _______ _______ _______ _____ _____    ______ ____
ROOT
ATOM      1  N   UNL     1      -0.123  12.009  20.009  0.00  0.00    +0.000 N 
ATOM      2  N   UNL     1       0.533  11.140  19.156  0.00  0.00    +0.000 NA
ATOM      3  C   UNL     1       0.779  10.112  19.909  0.00  0.00    +0.000 A 
ATOM      4  C   UNL     1       1.461   8.924  19.538  0.00  0.00    +0.000 A 
ATOM      5  C   UNL     1       2.029   8.502  18.370  0.00  0.00    +0.000 A 
ATOM      6  C   UNL     1       2.591   7.237  18.675  0.00  0.00    +0.000 A 
ATOM      7  N   UNL     1       2.368   6.904  19.959  0.00  0.00    +0.000 NA
ATOM      8  N   UNL     1       1.659   7.934  20.481  0.00  0.00    +0.000 N 
ATOM      9  C   UNL     1       1.168   8.095  21.785  0.00  0.00    +0.000 A 
ATOM     10  C   UNL     1       0.510   9.219  22.136  0.00  0.00    +0.000 A 
ATOM     11  N   UNL     1       0.337  10.205  21.192  0.00  0.00    +0.000 N 
ATOM     12  C   UNL     1      -0.291  11.426  21.281  0.00  0.00    +0.000 A 
ATOM     13  O   UNL     1      -0.873  11.904  22.240  0.00  0.00    +0.000 OA
ENDROOT
BRANCH   6  14
ATOM     14  C   UNL     1       3.370   6.396  17.761  0.00  0.00    +0.000 A 
ATOM     15  C   UNL     1       3.249   5.000  17.786  0.00  0.00    +0.000 A 
ATOM     16  C   UNL     1       4.076   4.202  16.986  0.00  0.00    +0.000 A 
ATOM     17  C   UNL     1       5.019   4.796  16.150  0.00  0.00    +0.000 A 
ATOM     18 CL   UNL     1       6.064   3.817  15.198  0.00  0.00    +0.000 Cl
ATOM     19  C   UNL     1       5.129   6.183  16.088  0.00  0.00    +0.000 A 
ATOM     20  C   UNL     1       4.305   6.978  16.888  0.00  0.00    +0.000 A 
ENDBRANCH   6  14
BRANCH   1  21
ATOM     21  C   UNL     1      -0.782  13.203  19.522  0.00  0.00    +0.000 C 
BRANCH  21  23
ATOM     22  N   UNL     1      -3.029  12.333  19.060  0.00  0.00    +0.000 N 
ATOM     23  C   UNL     1      -2.287  13.248  19.793  0.00  0.00    +0.000 C 
ATOM     24  O   UNL     1      -2.741  14.118  20.533  0.00  0.00    +0.000 OA
ATOM     25  H   UNL     1      -2.485  11.656  18.551  0.00  0.00    +0.000 HD
BRANCH  22  31
ATOM     26  C   UNL     1      -5.164  11.955  17.880  0.00  0.00    +0.000 A 
ATOM     27  C   UNL     1      -6.564  11.836  17.934  0.00  0.00    +0.000 A 
ATOM     28  C   UNL     1      -7.251  11.891  19.147  0.00  0.00    +0.000 A 
ATOM     29  C   UNL     1      -6.540  12.086  20.321  0.00  0.00    +0.000 A 
ATOM     30  C   UNL     1      -5.148  12.214  20.281  0.00  0.00    +0.000 A 
ATOM     31  C   UNL     1      -4.432  12.151  19.072  0.00  0.00    +0.000 A 
BRANCH  26  32
ATOM     32  O   UNL     1      -4.689  11.932  16.593  0.00  0.00    +0.000 OA
BRANCH  32  34
ATOM     33  C   UNL     1      -2.738  10.855  15.710  0.00  0.00    +0.000 C 
ATOM     34  C   UNL     1      -4.204  10.700  16.073  0.00  0.00    +0.000 C 
ENDBRANCH  32  34
ENDBRANCH  26  32
ENDBRANCH  22  31
ENDBRANCH  21  23
ENDBRANCH   1  21
TORSDOF 6
ENDMDL
MODEL 4
REMARK VINA RESULT:      -8.1      1.942      3.354
REMARK  Name = 
REMARK  7 active torsions:
REMARK  status: ('A' for Active; 'I' for Inactive)
REMARK    1  A    between atoms: C_1  and  C_2
REMARK    2  A    between atoms: C_2  and  O_3
REMARK    3  A    between atoms: O_3  and  C_4
REMARK    4  A    between atoms: C_9  and  N_10
REMARK    5  A    between atoms: C_11  and  C_13
REMARK    6  A    between atoms: C_13  and  N_14
REMARK    7  A    between atoms: C_19  and  C_20
REMARK                            x       y       z     vdW  Elec       q    Type
REMARK                         _______ _______ _______ _____ _____    ______ ____
ROOT
ATOM      1  N   UNL     1       0.937   9.873  20.471  0.00  0.00    +0.000 N 
ATOM      2  N   UNL     1       1.704   9.374  19.435  0.00  0.00    +0.000 NA
ATOM      3  C   UNL     1       1.802   8.111  19.717  0.00  0.00    +0.000 A 
ATOM      4  C   UNL     1       2.510   7.124  18.984  0.00  0.00    +0.000 A 
ATOM      5  C   UNL     1       3.251   7.167  17.837  0.00  0.00    +0.000 A 
ATOM      6  C   UNL     1       3.729   5.844  17.663  0.00  0.00    +0.000 A 
ATOM      7  N   UNL     1       3.294   5.037  18.647  0.00  0.00    +0.000 NA
ATOM      8  N   UNL     1       2.532   5.821  19.447  0.00  0.00    +0.000 N 
ATOM      9  C   UNL     1       1.840   5.479  20.618  0.00  0.00    +0.000 A 
ATOM     10  C   UNL     1       1.158   6.415  21.309  0.00  0.00    +0.000 A 
ATOM     11  N   UNL     1       1.161   7.711  20.848  0.00  0.00    +0.000 N 
ATOM     12  C   UNL     1       0.553   8.839  21.349  0.00  0.00    +0.000 A 
ATOM     13  O   UNL     1      -0.167   8.933  22.328  0.00  0.00    +0.000 OA
ENDROOT
BRANCH   6  14
ATOM     14  C   UNL     1       4.628   5.385  16.599  0.00  0.00    +0.000 A 
ATOM     15  C   UNL     1       5.153   6.284  15.661  0.00  0.00    +0.000 A 
ATOM     16  C   UNL     1       5.921   5.820  14.587  0.00  0.00    +0.000 A 
ATOM     17  C   UNL     1       6.176   4.458  14.451  0.00  0.00    +0.000 A 
ATOM     18 CL   UNL     1       7.084   3.881  13.109  0.00  0.00    +0.000 Cl
ATOM     19  C   UNL     1       5.690   3.554  15.392  0.00  0.00    +0.000 A 
ATOM     20  C   UNL     1       4.922   4.018  16.463  0.00  0.00    +0.000 A 
ENDBRANCH   6  14
BRANCH   1  21
ATOM     21  C   UNL     1       0.392  11.214  20.439  0.00  0.00    +0.000 C 
BRANCH  21  23
ATOM     22  N   UNL     1      -1.381  10.615  18.852  0.00  0.00    +0.000 N 
ATOM     23  C   UNL     1      -0.400  11.543  19.171  0.00  0.00    +0.000 C 
ATOM     24  O   UNL     1      -0.069  12.509  18.487  0.00  0.00    +0.000 OA
ATOM     25  H   UNL     1      -1.555   9.921  19.559  0.00  0.00    +0.000 HD
BRANCH  22  31
ATOM     26  C   UNL     1      -3.449  11.380  17.743  0.00  0.00    +0.000 A 
ATOM     27  C   UNL     1      -4.316  11.318  16.637  0.00  0.00    +0.000 A 
ATOM     28  C   UNL     1      -4.011  10.542  15.519  0.00  0.00    +0.000 A 
ATOM     29  C   UNL     1      -2.839   9.800  15.507  0.00  0.00    +0.000 A 
ATOM     30  C   UNL     1      -1.974   9.845  16.605  0.00  0.00    +0.000 A 
ATOM     31  C   UNL     1      -2.253  10.629  17.737  0.00  0.00    +0.000 A 
BRANCH  26  32
ATOM     32  O   UNL     1      -3.957  12.151  18.759  0.00  0.00    +0.000 OA
BRANCH  32  34
ATOM     33  C   UNL     1      -5.447  12.493  20.605  0.00  0.00    +0.000 C 
ATOM     34  C   UNL     1      -5.267  11.864  19.235  0.00  0.00    +0.000 C 
ENDBRANCH  32  34
ENDBRANCH  26  32
ENDBRANCH  22  31
ENDBRANCH  21  23
ENDBRANCH   1  21
TORSDOF 6
ENDMDL
MODEL 5
REMARK VINA RESULT:      -8.1      1.872      3.104
REMARK  Name = 
REMARK  7 active torsions:
REMARK  status: ('A' for Active; 'I' for Inactive)
REMARK    1  A    between atoms: C_1  and  C_2
REMARK    2  A    between atoms: C_2  and  O_3
REMARK    3  A    between atoms: O_3  and  C_4
REMARK    4  A    between atoms: C_9  and  N_10
REMARK    5  A    between atoms: C_11  and  C_13
REMARK    6  A    between atoms: C_13  and  N_14
REMARK    7  A    between atoms: C_19  and  C_20
REMARK                            x       y       z     vdW  Elec       q    Type
REMARK                         _______ _______ _______ _____ _____    ______ ____
ROOT
ATOM      1  N   UNL     1       0.623  11.012  20.273  0.00  0.00    +0.000 N 
ATOM      2  N   UNL     1       1.348  10.320  19.322  0.00  0.00    +0.000 NA
ATOM      3  C   UNL     1       1.430   9.124  19.821  0.00  0.00    +0.000 A 
ATOM      4  C   UNL     1       2.097   8.007  19.255  0.00  0.00    +0.000 A 
ATOM      5  C   UNL     1       2.803   7.828  18.101  0.00  0.00    +0.000 A 
ATOM      6  C   UNL     1       3.250   6.484  18.150  0.00  0.00    +0.000 A 
ATOM      7  N   UNL     1       2.829   5.875  19.273  0.00  0.00    +0.000 NA
ATOM      8  N   UNL     1       2.107   6.806  19.941  0.00  0.00    +0.000 N 
ATOM      9  C   UNL     1       1.443   6.693  21.171  0.00  0.00    +0.000 A 
ATOM     10  C   UNL     1       0.801   7.752  21.704  0.00  0.00    +0.000 A 
ATOM     11  N   UNL     1       0.815   8.946  21.021  0.00  0.00    +0.000 N 
ATOM     12  C   UNL     1       0.245  10.159  21.330  0.00  0.00    +0.000 A 
ATOM     13  O   UNL     1      -0.443  10.442  22.296  0.00  0.00    +0.000 OA
ENDROOT
BRANCH   6  14
ATOM     14  C   UNL     1       4.107   5.823  17.162  0.00  0.00    +0.000 A 
ATOM     15  C   UNL     1       4.844   6.570  16.232  0.00  0.00    +0.000 A 
ATOM     16  C   UNL     1       5.573   5.927  15.224  0.00  0.00    +0.000 A 
ATOM     17  C   UNL     1       5.578   4.536  15.148  0.00  0.00    +0.000 A 
ATOM     18 CL   UNL     1       6.438   3.747  13.886  0.00  0.00    +0.000 Cl
ATOM     19  C   UNL     1       4.878   3.779  16.083  0.00  0.00    +0.000 A 
ATOM     20  C   UNL     1       4.150   4.421  17.088  0.00  0.00    +0.000 A 
ENDBRANCH   6  14
BRANCH   1  21
ATOM     21  C   UNL     1       0.103  12.340  20.019  0.00  0.00    +0.000 C 
BRANCH  21  23
ATOM     22  N   UNL     1      -1.586  11.332  18.553  0.00  0.00    +0.000 N 
ATOM     23  C   UNL     1      -0.785  12.442  18.777  0.00  0.00    +0.000 C 
ATOM     24  O   UNL     1      -0.668  13.411  18.029  0.00  0.00    +0.000 OA
ATOM     25  H   UNL     1      -1.600  10.660  19.302  0.00  0.00    +0.000 HD
BRANCH  22  31
ATOM     26  C   UNL     1      -3.829  11.560  17.547  0.00  0.00    +0.000 A 
ATOM     27  C   UNL     1      -4.707  11.275  16.485  0.00  0.00    +0.000 A 
ATOM     28  C   UNL     1      -4.277  10.578  15.356  0.00  0.00    +0.000 A 
ATOM     29  C   UNL     1      -2.963  10.140  15.288  0.00  0.00    +0.000 A 
ATOM     30  C   UNL     1      -2.083  10.408  16.340  0.00  0.00    +0.000 A 
ATOM     31  C   UNL     1      -2.489  11.119  17.483  0.00  0.00    +0.000 A 
BRANCH  26  32
ATOM     32  O   UNL     1      -4.458  12.201  18.584  0.00  0.00    +0.000 OA
BRANCH  32  34
ATOM     33  C   UNL     1      -6.646  11.710  19.433  0.00  0.00    +0.000 C 
ATOM     34  C   UNL     1      -5.836  12.526  18.441  0.00  0.00    +0.000 C 
ENDBRANCH  32  34
ENDBRANCH  26  32
ENDBRANCH  22  31
ENDBRANCH  21  23
ENDBRANCH   1  21
TORSDOF 6
ENDMDL
MODEL 6
REMARK VINA RESULT:      -7.9      2.970      4.779
REMARK  Name = 
REMARK  7 active torsions:
REMARK  status: ('A' for Active; 'I' for Inactive)
REMARK    1  A    between atoms: C_1  and  C_2
REMARK    2  A    between atoms: C_2  and  O_3
REMARK    3  A    between atoms: O_3  and  C_4
REMARK    4  A    between atoms: C_9  and  N_10
REMARK    5  A    between atoms: C_11  and  C_13
REMARK    6  A    between atoms: C_13  and  N_14
REMARK    7  A    between atoms: C_19  and  C_20
REMARK                            x       y       z     vdW  Elec       q    Type
REMARK                         _______ _______ _______ _____ _____    ______ ____
ROOT
ATOM      1  N   UNL     1      -0.358  11.281  19.572  0.00  0.00    +0.000 N 
ATOM      2  N   UNL     1       0.417  10.505  18.730  0.00  0.00    +0.000 NA
ATOM      3  C   UNL     1       0.794   9.524  19.492  0.00  0.00    +0.000 A 
ATOM      4  C   UNL     1       1.635   8.439  19.133  0.00  0.00    +0.000 A 
ATOM      5  C   UNL     1       2.265   8.091  17.973  0.00  0.00    +0.000 A 
ATOM      6  C   UNL     1       2.991   6.916  18.290  0.00  0.00    +0.000 A 
ATOM      7  N   UNL     1       2.805   6.563  19.574  0.00  0.00    +0.000 NA
ATOM      8  N   UNL     1       1.958   7.489  20.085  0.00  0.00    +0.000 N 
ATOM      9  C   UNL     1       1.439   7.590  21.384  0.00  0.00    +0.000 A 
ATOM     10  C   UNL     1       0.632   8.616  21.722  0.00  0.00    +0.000 A 
ATOM     11  N   UNL     1       0.333   9.564  20.771  0.00  0.00    +0.000 N 
ATOM     12  C   UNL     1      -0.455  10.688  20.847  0.00  0.00    +0.000 A 
ATOM     13  O   UNL     1      -1.106  11.088  21.798  0.00  0.00    +0.000 OA
ENDROOT
BRANCH   6  14
ATOM     14  C   UNL     1       3.884   6.184  17.387  0.00  0.00    +0.000 A 
ATOM     15  C   UNL     1       4.673   6.862  16.447  0.00  0.00    +0.000 A 
ATOM     16  C   UNL     1       5.439   6.148  15.518  0.00  0.00    +0.000 A 
ATOM     17  C   UNL     1       5.429   4.755  15.531  0.00  0.00    +0.000 A 
ATOM     18 CL   UNL     1       6.337   3.877  14.364  0.00  0.00    +0.000 Cl
ATOM     19  C   UNL     1       4.678   4.067  16.480  0.00  0.00    +0.000 A 
ATOM     20  C   UNL     1       3.912   4.779  17.406  0.00  0.00    +0.000 A 
ENDBRANCH   6  14
BRANCH   1  21
ATOM     21  C   UNL     1      -1.169  12.372  19.072  0.00  0.00    +0.000 C 
BRANCH  21  23
ATOM     22  N   UNL     1      -0.402  14.617  18.445  0.00  0.00    +0.000 N 
ATOM     23  C   UNL     1      -0.689  13.762  19.499  0.00  0.00    +0.000 C 
ATOM     24  O   UNL     1      -0.498  13.994  20.690  0.00  0.00    +0.000 OA
ATOM     25  H   UNL     1      -0.678  14.280  17.537  0.00  0.00    +0.000 HD
BRANCH  22  31
ATOM     26  C   UNL     1       1.422  16.229  18.854  0.00  0.00    +0.000 A 
ATOM     27  C   UNL     1       1.843  17.565  18.973  0.00  0.00    +0.000 A 
ATOM     28  C   UNL     1       0.966  18.625  18.746  0.00  0.00    +0.000 A 
ATOM     29  C   UNL     1      -0.354  18.355  18.417  0.00  0.00    +0.000 A 
ATOM     30  C   UNL     1      -0.788  17.031  18.306  0.00  0.00    +0.000 A 
ATOM     31  C   UNL     1       0.080  15.946  18.517  0.00  0.00    +0.000 A 
BRANCH  26  32
ATOM     32  O   UNL     1       2.417  15.339  19.173  0.00  0.00    +0.000 OA
BRANCH  32  34
ATOM     33  C   UNL     1       2.848  13.165  18.259  0.00  0.00    +0.000 C 
ATOM     34  C   UNL     1       3.079  14.659  18.113  0.00  0.00    +0.000 C 
ENDBRANCH  32  34
ENDBRANCH  26  32
ENDBRANCH  22  31
ENDBRANCH  21  23
ENDBRANCH   1  21
TORSDOF 6
ENDMDL
MODEL 7
REMARK VINA RESULT:      -7.9      3.305      5.352
REMARK  Name = 
REMARK  7 active torsions:
REMARK  status: ('A' for Active; 'I' for Inactive)
REMARK    1  A    between atoms: C_1  and  C_2
REMARK    2  A    between atoms: C_2  and  O_3
REMARK    3  A    between atoms: O_3  and  C_4
REMARK    4  A    between atoms: C_9  and  N_10
REMARK    5  A    between atoms: C_11  and  C_13
REMARK    6  A    between atoms: C_13  and  N_14
REMARK    7  A    between atoms: C_19  and  C_20
REMARK                            x       y       z     vdW  Elec       q    Type
REMARK                         _______ _______ _______ _____ _____    ______ ____
ROOT
ATOM      1  N   UNL     1      -0.102  11.864  19.501  0.00  0.00    +0.000 N 
ATOM      2  N   UNL     1       0.650  11.004  18.722  0.00  0.00    +0.000 NA
ATOM      3  C   UNL     1       0.838   9.983  19.501  0.00  0.00    +0.000 A 
ATOM      4  C   UNL     1       1.575   8.807  19.204  0.00  0.00    +0.000 A 
ATOM      5  C   UNL     1       2.263   8.391  18.101  0.00  0.00    +0.000 A 
ATOM      6  C   UNL     1       2.814   7.137  18.465  0.00  0.00    +0.000 A 
ATOM      7  N   UNL     1       2.471   6.805  19.723  0.00  0.00    +0.000 NA
ATOM      8  N   UNL     1       1.696   7.823  20.167  0.00  0.00    +0.000 N 
ATOM      9  C   UNL     1       1.076   7.980  21.416  0.00  0.00    +0.000 A 
ATOM     10  C   UNL     1       0.367   9.093  21.694  0.00  0.00    +0.000 A 
ATOM     11  N   UNL     1       0.270  10.072  20.733  0.00  0.00    +0.000 N 
ATOM     12  C   UNL     1      -0.384  11.282  20.754  0.00  0.00    +0.000 A 
ATOM     13  O   UNL     1      -1.067  11.753  21.647  0.00  0.00    +0.000 OA
ENDROOT
BRANCH   6  14
ATOM     14  C   UNL     1       3.695   6.308  17.637  0.00  0.00    +0.000 A 
ATOM     15  C   UNL     1       4.648   6.891  16.791  0.00  0.00    +0.000 A 
ATOM     16  C   UNL     1       5.408   6.096  15.924  0.00  0.00    +0.000 A 
ATOM     17  C   UNL     1       5.225   4.715  15.907  0.00  0.00    +0.000 A 
ATOM     18 CL   UNL     1       6.127   3.741  14.814  0.00  0.00    +0.000 Cl
ATOM     19  C   UNL     1       4.306   4.117  16.765  0.00  0.00    +0.000 A 
ATOM     20  C   UNL     1       3.547   4.911  17.628  0.00  0.00    +0.000 A 
ENDBRANCH   6  14
BRANCH   1  21
ATOM     21  C   UNL     1      -0.730  13.045  18.945  0.00  0.00    +0.000 C 
BRANCH  21  23
ATOM     22  N   UNL     1       1.540  13.967  19.078  0.00  0.00    +0.000 N 
ATOM     23  C   UNL     1       0.216  14.234  18.760  0.00  0.00    +0.000 C 
ATOM     24  O   UNL     1      -0.246  15.330  18.453  0.00  0.00    +0.000 OA
ATOM     25  H   UNL     1       1.748  12.998  19.251  0.00  0.00    +0.000 HD
BRANCH  22  31
ATOM     26  C   UNL     1       2.719  15.974  19.898  0.00  0.00    +0.000 A 
ATOM     27  C   UNL     1       3.797  16.870  19.780  0.00  0.00    +0.000 A 
ATOM     28  C   UNL     1       4.802  16.674  18.832  0.00  0.00    +0.000 A 
ATOM     29  C   UNL     1       4.726  15.585  17.977  0.00  0.00    +0.000 A 
ATOM     30  C   UNL     1       3.655  14.692  18.079  0.00  0.00    +0.000 A 
ATOM     31  C   UNL     1       2.636  14.861  19.033  0.00  0.00    +0.000 A 
BRANCH  26  32
ATOM     32  O   UNL     1       1.812  16.374  20.847  0.00  0.00    +0.000 OA
BRANCH  32  34
ATOM     33  C   UNL     1       0.939  16.530  23.075  0.00  0.00    +0.000 C 
ATOM     34  C   UNL     1       1.903  15.808  22.150  0.00  0.00    +0.000 C 
ENDBRANCH  32  34
ENDBRANCH  26  32
ENDBRANCH  22  31
ENDBRANCH  21  23
ENDBRANCH   1  21
TORSDOF 6
ENDMDL
MODEL 8
REMARK VINA RESULT:      -7.9      2.119      3.449
REMARK  Name = 
REMARK  7 active torsions:
REMARK  status: ('A' for Active; 'I' for Inactive)
REMARK    1  A    between atoms: C_1  and  C_2
REMARK    2  A    between atoms: C_2  and  O_3
REMARK    3  A    between atoms: O_3  and  C_4
REMARK    4  A    between atoms: C_9  and  N_10
REMARK    5  A    between atoms: C_11  and  C_13
REMARK    6  A    between atoms: C_13  and  N_14
REMARK    7  A    between atoms: C_19  and  C_20
REMARK                            x       y       z     vdW  Elec       q    Type
REMARK                         _______ _______ _______ _____ _____    ______ ____
ROOT
ATOM      1  N   UNL     1      -0.968  11.616  21.959  0.00  0.00    +0.000 N 
ATOM      2  N   UNL     1      -0.374  10.368  21.972  0.00  0.00    +0.000 NA
ATOM      3  C   UNL     1       0.238  10.316  20.829  0.00  0.00    +0.000 A 
ATOM      4  C   UNL     1       0.997   9.233  20.315  0.00  0.00    +0.000 A 
ATOM      5  C   UNL     1       1.313   7.999  20.807  0.00  0.00    +0.000 A 
ATOM      6  C   UNL     1       2.064   7.377  19.777  0.00  0.00    +0.000 A 
ATOM      7  N   UNL     1       2.203   8.194  18.718  0.00  0.00    +0.000 NA
ATOM      8  N   UNL     1       1.562   9.339  19.057  0.00  0.00    +0.000 N 
ATOM      9  C   UNL     1       1.404  10.516  18.312  0.00  0.00    +0.000 A 
ATOM     10  C   UNL     1       0.692  11.550  18.805  0.00  0.00    +0.000 A 
ATOM     11  N   UNL     1       0.119  11.424  20.049  0.00  0.00    +0.000 N 
ATOM     12  C   UNL     1      -0.639  12.311  20.777  0.00  0.00    +0.000 A 
ATOM     13  O   UNL     1      -0.955  13.451  20.480  0.00  0.00    +0.000 OA
ENDROOT
BRANCH   6  14
ATOM     14  C   UNL     1       2.586   6.008  19.798  0.00  0.00    +0.000 A 
ATOM     15  C   UNL     1       1.981   5.017  20.584  0.00  0.00    +0.000 A 
ATOM     16  C   UNL     1       2.552   3.743  20.682  0.00  0.00    +0.000 A 
ATOM     17  C   UNL     1       3.723   3.449  19.986  0.00  0.00    +0.000 A 
ATOM     18 CL   UNL     1       4.448   1.898  20.137  0.00  0.00    +0.000 Cl
ATOM     19  C   UNL     1       4.318   4.411  19.174  0.00  0.00    +0.000 A 
ATOM     20  C   UNL     1       3.749   5.684  19.079  0.00  0.00    +0.000 A 
ENDBRANCH   6  14
BRANCH   1  21
ATOM     21  C   UNL     1      -1.575  12.185  23.144  0.00  0.00    +0.000 C 
BRANCH  21  23
ATOM     22  N   UNL     1      -3.643  12.849  22.002  0.00  0.00    +0.000 N 
ATOM     23  C   UNL     1      -3.105  12.217  23.115  0.00  0.00    +0.000 C 
ATOM     24  O   UNL     1      -3.737  11.793  24.080  0.00  0.00    +0.000 OA
ATOM     25  H   UNL     1      -2.979  13.080  21.282  0.00  0.00    +0.000 HD
BRANCH  22  31
ATOM     26  C   UNL     1      -5.601  12.541  20.530  0.00  0.00    +0.000 A 
ATOM     27  C   UNL     1      -6.949  12.822  20.246  0.00  0.00    +0.000 A 
ATOM     28  C   UNL     1      -7.728  13.590  21.111  0.00  0.00    +0.000 A 
ATOM     29  C   UNL     1      -7.156  14.103  22.265  0.00  0.00    +0.000 A 
ATOM     30  C   UNL     1      -5.814  13.839  22.555  0.00  0.00    +0.000 A 
ATOM     31  C   UNL     1      -5.012  13.058  21.705  0.00  0.00    +0.000 A 
BRANCH  26  32
ATOM     32  O   UNL     1      -4.997  11.821  19.530  0.00  0.00    +0.000 OA
BRANCH  32  34
ATOM     33  C   UNL     1      -5.163  11.818  17.138  0.00  0.00    +0.000 C 
ATOM     34  C   UNL     1      -5.798  11.372  18.443  0.00  0.00    +0.000 C 
ENDBRANCH  32  34
ENDBRANCH  26  32
ENDBRANCH  22  31
ENDBRANCH  21  23
ENDBRANCH   1  21
TORSDOF 6
ENDMDL
MODEL 9
REMARK VINA RESULT:      -7.8      1.028      1.028
REMARK  Name = 
REMARK  7 active torsions:
REMARK  status: ('A' for Active; 'I' for Inactive)
REMARK    1  A    between atoms: C_1  and  C_2
REMARK    2  A    between atoms: C_2  and  O_3
REMARK    3  A    between atoms: O_3  and  C_4
REMARK    4  A    between atoms: C_9  and  N_10
REMARK    5  A    between atoms: C_11  and  C_13
REMARK    6  A    between atoms: C_13  and  N_14
REMARK    7  A    between atoms: C_19  and  C_20
REMARK                            x       y       z     vdW  Elec       q    Type
REMARK                         _______ _______ _______ _____ _____    ______ ____
ROOT
ATOM      1  N   UNL     1      -0.119  12.167  20.113  0.00  0.00    +0.000 N 
ATOM      2  N   UNL     1       0.520  11.280  19.267  0.00  0.00    +0.000 NA
ATOM      3  C   UNL     1       0.742  10.251  20.027  0.00  0.00    +0.000 A 
ATOM      4  C   UNL     1       1.400   9.047  19.663  0.00  0.00    +0.000 A 
ATOM      5  C   UNL     1       1.961   8.606  18.500  0.00  0.00    +0.000 A 
ATOM      6  C   UNL     1       2.495   7.331  18.813  0.00  0.00    +0.000 A 
ATOM      7  N   UNL     1       2.263   7.011  20.098  0.00  0.00    +0.000 NA
ATOM      8  N   UNL     1       1.576   8.058  20.613  0.00  0.00    +0.000 N 
ATOM      9  C   UNL     1       1.086   8.238  21.915  0.00  0.00    +0.000 A 
ATOM     10  C   UNL     1       0.451   9.377  22.258  0.00  0.00    +0.000 A 
ATOM     11  N   UNL     1       0.300  10.361  21.308  0.00  0.00    +0.000 N 
ATOM     12  C   UNL     1      -0.301  11.595  21.389  0.00  0.00    +0.000 A 
ATOM     13  O   UNL     1      -0.875  12.092  22.343  0.00  0.00    +0.000 OA
ENDROOT
BRANCH   6  14
ATOM     14  C   UNL     1       3.258   6.468  17.905  0.00  0.00    +0.000 A 
ATOM     15  C   UNL     1       3.086   5.077  17.918  0.00  0.00    +0.000 A 
ATOM     16  C   UNL     1       3.896   4.255  17.125  0.00  0.00    +0.000 A 
ATOM     17  C   UNL     1       4.874   4.820  16.310  0.00  0.00    +0.000 A 
ATOM     18 CL   UNL     1       5.898   3.810  15.368  0.00  0.00    +0.000 Cl
ATOM     19  C   UNL     1       5.035   6.202  16.260  0.00  0.00    +0.000 A 
ATOM     20  C   UNL     1       4.228   7.022  17.052  0.00  0.00    +0.000 A 
ENDBRANCH   6  14
BRANCH   1  21
ATOM     21  C   UNL     1      -0.751  13.372  19.618  0.00  0.00    +0.000 C 
BRANCH  21  23
ATOM     22  N   UNL     1      -3.082  12.607  19.564  0.00  0.00    +0.000 N 
ATOM     23  C   UNL     1      -2.203  13.554  20.069  0.00  0.00    +0.000 C 
ATOM     24  O   UNL     1      -2.508  14.539  20.737  0.00  0.00    +0.000 OA
ATOM     25  H   UNL     1      -2.647  11.836  19.086  0.00  0.00    +0.000 HD
BRANCH  22  31
ATOM     26  C   UNL     1      -5.023  12.413  21.077  0.00  0.00    +0.000 A 
ATOM     27  C   UNL     1      -6.413  12.274  21.240  0.00  0.00    +0.000 A 
ATOM     28  C   UNL     1      -7.274  12.260  20.143  0.00  0.00    +0.000 A 
ATOM     29  C   UNL     1      -6.747  12.366  18.865  0.00  0.00    +0.000 A 
ATOM     30  C   UNL     1      -5.366  12.495  18.688  0.00  0.00    +0.000 A 
ATOM     31  C   UNL     1      -4.479  12.524  19.779  0.00  0.00    +0.000 A 
BRANCH  26  32
ATOM     32  O   UNL     1      -4.350  12.346  22.271  0.00  0.00    +0.000 OA
BRANCH  32  34
ATOM     33  C   UNL     1      -3.726  13.414  24.325  0.00  0.00    +0.000 C 
ATOM     34  C   UNL     1      -4.865  13.075  23.379  0.00  0.00    +0.000 C 
ENDBRANCH  32  34
ENDBRANCH  26  32
ENDBRANCH  22  31
ENDBRANCH  21  23
ENDBRANCH   1  21
TORSDOF 6
ENDMDL
