MODEL 1
REMARK VINA RESULT:      -6.9      0.000      0.000
REMARK  Name = 
REMARK  6 active torsions:
REMARK  status: ('A' for Active; 'I' for Inactive)
REMARK    1  A    between atoms: C_1  and  C_2
REMARK    2  A    between atoms: C_2  and  O_3
REMARK    3  A    between atoms: O_3  and  C_4
REMARK    4  A    between atoms: C_7  and  C_8
REMARK    5  A    between atoms: N_10  and  C_11
REMARK    6  A    between atoms: C_11  and  C_12
REMARK                            x       y       z     vdW  Elec       q    Type
REMARK                         _______ _______ _______ _____ _____    ______ ____
ROOT
ATOM      1  C   UNL     1       5.153   3.974  18.183  0.00  0.00    +0.000 C 
ATOM      2  O   UNL     1       4.476   3.616  17.224  0.00  0.00    +0.000 OA
ATOM      3  N   UNL     1       5.146   3.297  19.383  0.00  0.00    +0.000 N 
ATOM      4  H   UNL     1       5.840   3.468  20.092  0.00  0.00    +0.000 HD
ENDROOT
BRANCH   1   8
ATOM      5  C   UNL     1       7.539   7.545  17.792  0.00  0.00    +0.000 A 
ATOM      6  C   UNL     1       6.377   7.368  17.044  0.00  0.00    +0.000 A 
ATOM      7  C   UNL     1       5.618   6.203  17.186  0.00  0.00    +0.000 A 
ATOM      8  C   UNL     1       6.024   5.186  18.066  0.00  0.00    +0.000 A 
ATOM      9  C   UNL     1       7.201   5.365  18.803  0.00  0.00    +0.000 A 
ATOM     10  C   UNL     1       7.960   6.532  18.655  0.00  0.00    +0.000 A 
BRANCH   5  11
ATOM     11  O   UNL     1       8.188   8.731  17.598  0.00  0.00    +0.000 OA
BRANCH  11  13
ATOM     12  C   UNL     1       9.224  10.718  18.414  0.00  0.00    +0.000 C 
ATOM     13  C   UNL     1       8.798   9.303  18.757  0.00  0.00    +0.000 C 
ENDBRANCH  11  13
ENDBRANCH   5  11
ENDBRANCH   1   8
BRANCH   3  14
ATOM     14  C   UNL     1       4.347   2.104  19.555  0.00  0.00    +0.000 C 
BRANCH  14  15
ATOM     15  C   UNL     1       3.008   2.487  20.067  0.00  0.00    +0.000 A 
ATOM     16  C   UNL     1       1.797   2.727  19.449  0.00  0.00    +0.000 A 
ATOM     17  C   UNL     1       0.875   3.035  20.476  0.00  0.00    +0.000 A 
ATOM     18  C   UNL     1       1.578   2.967  21.655  0.00  0.00    +0.000 A 
ATOM     19  O   UNL     1       2.877   2.638  21.420  0.00  0.00    +0.000 OA
ENDBRANCH  14  15
ENDBRANCH   3  14
TORSDOF 5
ENDMDL
MODEL 2
REMARK VINA RESULT:      -6.5      0.518      1.231
REMARK  Name = 
REMARK  6 active torsions:
REMARK  status: ('A' for Active; 'I' for Inactive)
REMARK    1  A    between atoms: C_1  and  C_2
REMARK    2  A    between atoms: C_2  and  O_3
REMARK    3  A    between atoms: O_3  and  C_4
REMARK    4  A    between atoms: C_7  and  C_8
REMARK    5  A    between atoms: N_10  and  C_11
REMARK    6  A    between atoms: C_11  and  C_12
REMARK                            x       y       z     vdW  Elec       q    Type
REMARK                         _______ _______ _______ _____ _____    ______ ____
ROOT
ATOM      1  C   UNL     1       4.891   4.139  17.994  0.00  0.00    +0.000 C 
ATOM      2  O   UNL     1       4.109   4.048  17.052  0.00  0.00    +0.000 OA
ATOM      3  N   UNL     1       4.910   3.227  19.026  0.00  0.00    +0.000 N 
ATOM      4  H   UNL     1       5.670   3.188  19.685  0.00  0.00    +0.000 HD
ENDROOT
BRANCH   1   8
ATOM      5  C   UNL     1       7.796   7.319  18.208  0.00  0.00    +0.000 A 
ATOM      6  C   UNL     1       7.841   6.240  19.088  0.00  0.00    +0.000 A 
ATOM      7  C   UNL     1       6.889   5.220  19.002  0.00  0.00    +0.000 A 
ATOM      8  C   UNL     1       5.865   5.275  18.043  0.00  0.00    +0.000 A 
ATOM      9  C   UNL     1       5.818   6.370  17.171  0.00  0.00    +0.000 A 
ATOM     10  C   UNL     1       6.770   7.391  17.264  0.00  0.00    +0.000 A 
BRANCH   5  11
ATOM     11  O   UNL     1       8.790   8.243  18.360  0.00  0.00    +0.000 OA
BRANCH  11  13
ATOM     12  C   UNL     1       9.268  10.479  19.038  0.00  0.00    +0.000 C 
ATOM     13  C   UNL     1       8.413   9.604  18.141  0.00  0.00    +0.000 C 
ENDBRANCH  11  13
ENDBRANCH   5  11
ENDBRANCH   1   8
BRANCH   3  14
ATOM     14  C   UNL     1       4.013   2.092  19.029  0.00  0.00    +0.000 C 
BRANCH  14  15
ATOM     15  C   UNL     1       2.759   2.468  19.728  0.00  0.00    +0.000 A 
ATOM     16  C   UNL     1       1.469   2.694  19.292  0.00  0.00    +0.000 A 
ATOM     17  C   UNL     1       0.703   3.001  20.440  0.00  0.00    +0.000 A 
ATOM     18  C   UNL     1       1.571   2.944  21.505  0.00  0.00    +0.000 A 
ATOM     19  O   UNL     1       2.824   2.625  21.085  0.00  0.00    +0.000 OA
ENDBRANCH  14  15
ENDBRANCH   3  14
TORSDOF 5
ENDMDL
MODEL 3
REMARK VINA RESULT:      -6.5      3.201      4.551
REMARK  Name = 
REMARK  6 active torsions:
REMARK  status: ('A' for Active; 'I' for Inactive)
REMARK    1  A    between atoms: C_1  and  C_2
REMARK    2  A    between atoms: C_2  and  O_3
REMARK    3  A    between atoms: O_3  and  C_4
REMARK    4  A    between atoms: C_7  and  C_8
REMARK    5  A    between atoms: N_10  and  C_11
REMARK    6  A    between atoms: C_11  and  C_12
REMARK                            x       y       z     vdW  Elec       q    Type
REMARK                         _______ _______ _______ _____ _____    ______ ____
ROOT
ATOM      1  C   UNL     1       5.204   4.838  18.385  0.00  0.00    +0.000 C 
ATOM      2  O   UNL     1       5.896   4.468  19.329  0.00  0.00    +0.000 OA
ATOM      3  N   UNL     1       3.959   5.401  18.562  0.00  0.00    +0.000 N 
ATOM      4  H   UNL     1       3.482   5.879  17.815  0.00  0.00    +0.000 HD
ENDROOT
BRANCH   1   8
ATOM      5  C   UNL     1       6.515   4.376  14.303  0.00  0.00    +0.000 A 
ATOM      6  C   UNL     1       5.236   3.990  14.698  0.00  0.00    +0.000 A 
ATOM      7  C   UNL     1       4.831   4.148  16.026  0.00  0.00    +0.000 A 
ATOM      8  C   UNL     1       5.710   4.679  16.985  0.00  0.00    +0.000 A 
ATOM      9  C   UNL     1       6.999   5.050  16.583  0.00  0.00    +0.000 A 
ATOM     10  C   UNL     1       7.401   4.887  15.253  0.00  0.00    +0.000 A 
BRANCH   5  11
ATOM     11  O   UNL     1       6.797   4.206  12.977  0.00  0.00    +0.000 OA
BRANCH  11  13
ATOM     12  C   UNL     1       6.798   2.313  11.528  0.00  0.00    +0.000 C 
ATOM     13  C   UNL     1       5.934   3.316  12.267  0.00  0.00    +0.000 C 
ENDBRANCH  11  13
ENDBRANCH   5  11
ENDBRANCH   1   8
BRANCH   3  14
ATOM     14  C   UNL     1       3.420   5.607  19.888  0.00  0.00    +0.000 C 
BRANCH  14  15
ATOM     15  C   UNL     1       2.486   4.499  20.208  0.00  0.00    +0.000 A 
ATOM     16  C   UNL     1       2.205   3.810  21.371  0.00  0.00    +0.000 A 
ATOM     17  C   UNL     1       1.198   2.872  21.050  0.00  0.00    +0.000 A 
ATOM     18  C   UNL     1       0.925   3.044  19.714  0.00  0.00    +0.000 A 
ATOM     19  O   UNL     1       1.704   4.028  19.190  0.00  0.00    +0.000 OA
ENDBRANCH  14  15
ENDBRANCH   3  14
TORSDOF 5
ENDMDL
MODEL 4
REMARK VINA RESULT:      -6.4      1.113      1.143
REMARK  Name = 
REMARK  6 active torsions:
REMARK  status: ('A' for Active; 'I' for Inactive)
REMARK    1  A    between atoms: C_1  and  C_2
REMARK    2  A    between atoms: C_2  and  O_3
REMARK    3  A    between atoms: O_3  and  C_4
REMARK    4  A    between atoms: C_7  and  C_8
REMARK    5  A    between atoms: N_10  and  C_11
REMARK    6  A    between atoms: C_11  and  C_12
REMARK                            x       y       z     vdW  Elec       q    Type
REMARK                         _______ _______ _______ _____ _____    ______ ____
ROOT
ATOM      1  C   UNL     1       5.164   4.033  18.681  0.00  0.00    +0.000 C 
ATOM      2  O   UNL     1       5.299   3.446  19.750  0.00  0.00    +0.000 OA
ATOM      3  N   UNL     1       4.215   3.663  17.753  0.00  0.00    +0.000 N 
ATOM      4  H   UNL     1       3.973   4.257  16.976  0.00  0.00    +0.000 HD
ENDROOT
BRANCH   1   8
ATOM      5  C   UNL     1       7.600   7.446  17.671  0.00  0.00    +0.000 A 
ATOM      6  C   UNL     1       6.416   7.176  16.987  0.00  0.00    +0.000 A 
ATOM      7  C   UNL     1       5.642   6.064  17.330  0.00  0.00    +0.000 A 
ATOM      8  C   UNL     1       6.051   5.194  18.353  0.00  0.00    +0.000 A 
ATOM      9  C   UNL     1       7.249   5.464  19.026  0.00  0.00    +0.000 A 
ATOM     10  C   UNL     1       8.024   6.576  18.677  0.00  0.00    +0.000 A 
BRANCH   5  11
ATOM     11  O   UNL     1       8.263   8.573  17.276  0.00  0.00    +0.000 OA
BRANCH  11  13
ATOM     12  C   UNL     1       9.296  10.324  18.521  0.00  0.00    +0.000 C 
ATOM     13  C   UNL     1       7.980   9.756  18.026  0.00  0.00    +0.000 C 
ENDBRANCH  11  13
ENDBRANCH   5  11
ENDBRANCH   1   8
BRANCH   3  14
ATOM     14  C   UNL     1       3.309   2.567  18.017  0.00  0.00    +0.000 C 
BRANCH  14  15
ATOM     15  C   UNL     1       2.337   2.983  19.058  0.00  0.00    +0.000 A 
ATOM     16  C   UNL     1       1.412   4.005  19.128  0.00  0.00    +0.000 A 
ATOM     17  C   UNL     1       0.759   3.873  20.375  0.00  0.00    +0.000 A 
ATOM     18  C   UNL     1       1.325   2.781  20.989  0.00  0.00    +0.000 A 
ATOM     19  O   UNL     1       2.287   2.234  20.200  0.00  0.00    +0.000 OA
ENDBRANCH  14  15
ENDBRANCH   3  14
TORSDOF 5
ENDMDL
MODEL 5
REMARK VINA RESULT:      -6.4      3.482      7.087
REMARK  Name = 
REMARK  6 active torsions:
REMARK  status: ('A' for Active; 'I' for Inactive)
REMARK    1  A    between atoms: C_1  and  C_2
REMARK    2  A    between atoms: C_2  and  O_3
REMARK    3  A    between atoms: O_3  and  C_4
REMARK    4  A    between atoms: C_7  and  C_8
REMARK    5  A    between atoms: N_10  and  C_11
REMARK    6  A    between atoms: C_11  and  C_12
REMARK                            x       y       z     vdW  Elec       q    Type
REMARK                         _______ _______ _______ _____ _____    ______ ____
ROOT
ATOM      1  C   UNL     1       5.106   5.573  16.260  0.00  0.00    +0.000 C 
ATOM      2  O   UNL     1       5.340   6.704  15.845  0.00  0.00    +0.000 OA
ATOM      3  N   UNL     1       5.787   4.465  15.804  0.00  0.00    +0.000 N 
ATOM      4  H   UNL     1       5.735   3.579  16.279  0.00  0.00    +0.000 HD
ENDROOT
BRANCH   1   8
ATOM      5  C   UNL     1       2.059   4.827  19.220  0.00  0.00    +0.000 A 
ATOM      6  C   UNL     1       2.348   3.891  18.229  0.00  0.00    +0.000 A 
ATOM      7  C   UNL     1       3.339   4.152  17.279  0.00  0.00    +0.000 A 
ATOM      8  C   UNL     1       4.044   5.367  17.295  0.00  0.00    +0.000 A 
ATOM      9  C   UNL     1       3.738   6.309  18.285  0.00  0.00    +0.000 A 
ATOM     10  C   UNL     1       2.742   6.045  19.232  0.00  0.00    +0.000 A 
BRANCH   5  11
ATOM     11  O   UNL     1       1.095   4.458  20.114  0.00  0.00    +0.000 OA
BRANCH  11  13
ATOM     12  C   UNL     1       2.012   2.993  21.756  0.00  0.00    +0.000 C 
ATOM     13  C   UNL     1       1.123   3.092  20.531  0.00  0.00    +0.000 C 
ENDBRANCH  11  13
ENDBRANCH   5  11
ENDBRANCH   1   8
BRANCH   3  14
ATOM     14  C   UNL     1       6.841   4.596  14.823  0.00  0.00    +0.000 C 
BRANCH  14  15
ATOM     15  C   UNL     1       6.364   4.058  13.525  0.00  0.00    +0.000 A 
ATOM     16  C   UNL     1       7.009   3.708  12.356  0.00  0.00    +0.000 A 
ATOM     17  C   UNL     1       6.013   3.235  11.471  0.00  0.00    +0.000 A 
ATOM     18  C   UNL     1       4.822   3.326  12.152  0.00  0.00    +0.000 A 
ATOM     19  O   UNL     1       5.022   3.829  13.400  0.00  0.00    +0.000 OA
ENDBRANCH  14  15
ENDBRANCH   3  14
TORSDOF 5
ENDMDL
MODEL 6
REMARK VINA RESULT:      -6.4      1.285      1.870
REMARK  Name = 
REMARK  6 active torsions:
REMARK  status: ('A' for Active; 'I' for Inactive)
REMARK    1  A    between atoms: C_1  and  C_2
REMARK    2  A    between atoms: C_2  and  O_3
REMARK    3  A    between atoms: O_3  and  C_4
REMARK    4  A    between atoms: C_7  and  C_8
REMARK    5  A    between atoms: N_10  and  C_11
REMARK    6  A    between atoms: C_11  and  C_12
REMARK                            x       y       z     vdW  Elec       q    Type
REMARK                         _______ _______ _______ _____ _____    ______ ____
ROOT
ATOM      1  C   UNL     1       5.250   3.888  18.625  0.00  0.00    +0.000 C 
ATOM      2  O   UNL     1       5.434   3.401  19.736  0.00  0.00    +0.000 OA
ATOM      3  N   UNL     1       4.435   3.294  17.686  0.00  0.00    +0.000 N 
ATOM      4  H   UNL     1       4.131   3.786  16.862  0.00  0.00    +0.000 HD
ENDROOT
BRANCH   1   8
ATOM      5  C   UNL     1       7.333   7.527  17.612  0.00  0.00    +0.000 A 
ATOM      6  C   UNL     1       7.847   6.638  18.554  0.00  0.00    +0.000 A 
ATOM      7  C   UNL     1       7.156   5.465  18.868  0.00  0.00    +0.000 A 
ATOM      8  C   UNL     1       5.927   5.172  18.256  0.00  0.00    +0.000 A 
ATOM      9  C   UNL     1       5.408   6.077  17.321  0.00  0.00    +0.000 A 
ATOM     10  C   UNL     1       6.102   7.253  17.013  0.00  0.00    +0.000 A 
BRANCH   5  11
ATOM     11  O   UNL     1       8.102   8.626  17.359  0.00  0.00    +0.000 OA
BRANCH  11  13
ATOM     12  C   UNL     1       9.107  10.668  18.070  0.00  0.00    +0.000 C 
ATOM     13  C   UNL     1       8.624   9.298  18.507  0.00  0.00    +0.000 C 
ENDBRANCH  11  13
ENDBRANCH   5  11
ENDBRANCH   1   8
BRANCH   3  14
ATOM     14  C   UNL     1       3.732   2.067  17.986  0.00  0.00    +0.000 C 
BRANCH  14  15
ATOM     15  C   UNL     1       2.500   2.388  18.747  0.00  0.00    +0.000 A 
ATOM     16  C   UNL     1       2.229   2.501  20.096  0.00  0.00    +0.000 A 
ATOM     17  C   UNL     1       0.864   2.853  20.205  0.00  0.00    +0.000 A 
ATOM     18  C   UNL     1       0.385   2.932  18.918  0.00  0.00    +0.000 A 
ATOM     19  O   UNL     1       1.369   2.648  18.023  0.00  0.00    +0.000 OA
ENDBRANCH  14  15
ENDBRANCH   3  14
TORSDOF 5
ENDMDL
MODEL 7
REMARK VINA RESULT:      -6.4      3.726      6.882
REMARK  Name = 
REMARK  6 active torsions:
REMARK  status: ('A' for Active; 'I' for Inactive)
REMARK    1  A    between atoms: C_1  and  C_2
REMARK    2  A    between atoms: C_2  and  O_3
REMARK    3  A    between atoms: O_3  and  C_4
REMARK    4  A    between atoms: C_7  and  C_8
REMARK    5  A    between atoms: N_10  and  C_11
REMARK    6  A    between atoms: C_11  and  C_12
REMARK                            x       y       z     vdW  Elec       q    Type
REMARK                         _______ _______ _______ _____ _____    ______ ____
ROOT
ATOM      1  C   UNL     1       5.445   5.536  15.768  0.00  0.00    +0.000 C 
ATOM      2  O   UNL     1       5.345   6.625  15.210  0.00  0.00    +0.000 OA
ATOM      3  N   UNL     1       6.160   4.492  15.224  0.00  0.00    +0.000 N 
ATOM      4  H   UNL     1       6.405   3.679  15.764  0.00  0.00    +0.000 HD
ENDROOT
BRANCH   1   8
ATOM      5  C   UNL     1       3.405   5.006  19.531  0.00  0.00    +0.000 A 
ATOM      6  C   UNL     1       3.297   6.195  18.812  0.00  0.00    +0.000 A 
ATOM      7  C   UNL     1       3.967   6.346  17.595  0.00  0.00    +0.000 A 
ATOM      8  C   UNL     1       4.772   5.314  17.087  0.00  0.00    +0.000 A 
ATOM      9  C   UNL     1       4.887   4.127  17.822  0.00  0.00    +0.000 A 
ATOM     10  C   UNL     1       4.218   3.982  19.043  0.00  0.00    +0.000 A 
BRANCH   5  11
ATOM     11  O   UNL     1       2.686   4.953  20.691  0.00  0.00    +0.000 OA
BRANCH  11  13
ATOM     12  C   UNL     1       0.808   3.592  20.139  0.00  0.00    +0.000 C 
ATOM     13  C   UNL     1       2.065   3.700  20.981  0.00  0.00    +0.000 C 
ENDBRANCH  11  13
ENDBRANCH   5  11
ENDBRANCH   1   8
BRANCH   3  14
ATOM     14  C   UNL     1       6.855   4.647  13.965  0.00  0.00    +0.000 C 
BRANCH  14  15
ATOM     15  C   UNL     1       6.200   3.795  12.942  0.00  0.00    +0.000 A 
ATOM     16  C   UNL     1       6.673   2.825  12.082  0.00  0.00    +0.000 A 
ATOM     17  C   UNL     1       5.556   2.350  11.356  0.00  0.00    +0.000 A 
ATOM     18  C   UNL     1       4.472   3.059  11.816  0.00  0.00    +0.000 A 
ATOM     19  O   UNL     1       4.851   3.943  12.778  0.00  0.00    +0.000 OA
ENDBRANCH  14  15
ENDBRANCH   3  14
TORSDOF 5
ENDMDL
MODEL 8
REMARK VINA RESULT:      -6.4      3.871      6.989
REMARK  Name = 
REMARK  6 active torsions:
REMARK  status: ('A' for Active; 'I' for Inactive)
REMARK    1  A    between atoms: C_1  and  C_2
REMARK    2  A    between atoms: C_2  and  O_3
REMARK    3  A    between atoms: O_3  and  C_4
REMARK    4  A    between atoms: C_7  and  C_8
REMARK    5  A    between atoms: N_10  and  C_11
REMARK    6  A    between atoms: C_11  and  C_12
REMARK                            x       y       z     vdW  Elec       q    Type
REMARK                         _______ _______ _______ _____ _____    ______ ____
ROOT
ATOM      1  C   UNL     1       5.497   5.415  15.698  0.00  0.00    +0.000 C 
ATOM      2  O   UNL     1       5.707   6.528  15.225  0.00  0.00    +0.000 OA
ATOM      3  N   UNL     1       5.925   4.260  15.081  0.00  0.00    +0.000 N 
ATOM      4  H   UNL     1       5.929   3.374  15.558  0.00  0.00    +0.000 HD
ENDROOT
BRANCH   1   8
ATOM      5  C   UNL     1       3.451   4.941  19.465  0.00  0.00    +0.000 A 
ATOM      6  C   UNL     1       4.323   3.964  18.989  0.00  0.00    +0.000 A 
ATOM      7  C   UNL     1       4.976   4.137  17.765  0.00  0.00    +0.000 A 
ATOM      8  C   UNL     1       4.750   5.285  16.989  0.00  0.00    +0.000 A 
ATOM      9  C   UNL     1       3.860   6.256  17.467  0.00  0.00    +0.000 A 
ATOM     10  C   UNL     1       3.205   6.076  18.691  0.00  0.00    +0.000 A 
BRANCH   5  11
ATOM     11  O   UNL     1       2.890   4.685  20.684  0.00  0.00    +0.000 OA
BRANCH  11  13
ATOM     12  C   UNL     1       0.900   3.469  20.187  0.00  0.00    +0.000 C 
ATOM     13  C   UNL     1       1.465   4.763  20.741  0.00  0.00    +0.000 C 
ENDBRANCH  11  13
ENDBRANCH   5  11
ENDBRANCH   1   8
BRANCH   3  14
ATOM     14  C   UNL     1       6.673   4.315  13.845  0.00  0.00    +0.000 C 
BRANCH  14  15
ATOM     15  C   UNL     1       5.930   3.575  12.795  0.00  0.00    +0.000 A 
ATOM     16  C   UNL     1       4.678   3.736  12.237  0.00  0.00    +0.000 A 
ATOM     17  C   UNL     1       4.538   2.724  11.259  0.00  0.00    +0.000 A 
ATOM     18  C   UNL     1       5.711   2.008  11.281  0.00  0.00    +0.000 A 
ATOM     19  O   UNL     1       6.563   2.512  12.212  0.00  0.00    +0.000 OA
ENDBRANCH  14  15
ENDBRANCH   3  14
TORSDOF 5
ENDMDL
MODEL 9
REMARK VINA RESULT:      -6.4      3.209      4.561
REMARK  Name = 
REMARK  6 active torsions:
REMARK  status: ('A' for Active; 'I' for Inactive)
REMARK    1  A    between atoms: C_1  and  C_2
REMARK    2  A    between atoms: C_2  and  O_3
REMARK    3  A    between atoms: O_3  and  C_4
REMARK    4  A    between atoms: C_7  and  C_8
REMARK    5  A    between atoms: N_10  and  C_11
REMARK    6  A    between atoms: C_11  and  C_12
REMARK                            x       y       z     vdW  Elec       q    Type
REMARK                         _______ _______ _______ _____ _____    ______ ____
ROOT
ATOM      1  C   UNL     1       4.545   5.226  18.378  0.00  0.00    +0.000 C 
ATOM      2  O   UNL     1       5.182   4.791  19.332  0.00  0.00    +0.000 OA
ATOM      3  N   UNL     1       3.312   5.823  18.526  0.00  0.00    +0.000 N 
ATOM      4  H   UNL     1       2.886   6.350  17.782  0.00  0.00    +0.000 HD
ENDROOT
BRANCH   1   8
ATOM      5  C   UNL     1       6.154   4.744  14.405  0.00  0.00    +0.000 A 
ATOM      6  C   UNL     1       6.196   3.705  15.333  0.00  0.00    +0.000 A 
ATOM      7  C   UNL     1       5.670   3.882  16.615  0.00  0.00    +0.000 A 
ATOM      8  C   UNL     1       5.108   5.112  16.995  0.00  0.00    +0.000 A 
ATOM      9  C   UNL     1       5.082   6.156  16.063  0.00  0.00    +0.000 A 
ATOM     10  C   UNL     1       5.614   5.976  14.781  0.00  0.00    +0.000 A 
BRANCH   5  11
ATOM     11  O   UNL     1       6.668   4.455  13.174  0.00  0.00    +0.000 OA
BRANCH  11  13
ATOM     12  C   UNL     1       4.863   3.522  11.926  0.00  0.00    +0.000 C 
ATOM     13  C   UNL     1       6.205   3.243  12.575  0.00  0.00    +0.000 C 
ENDBRANCH  11  13
ENDBRANCH   5  11
ENDBRANCH   1   8
BRANCH   3  14
ATOM     14  C   UNL     1       2.722   5.987  19.836  0.00  0.00    +0.000 C 
BRANCH  14  15
ATOM     15  C   UNL     1       2.108   4.703  20.255  0.00  0.00    +0.000 A 
ATOM     16  C   UNL     1       2.131   3.990  21.437  0.00  0.00    +0.000 A 
ATOM     17  C   UNL     1       1.333   2.841  21.230  0.00  0.00    +0.000 A 
ATOM     18  C   UNL     1       0.873   2.923  19.937  0.00  0.00    +0.000 A 
ATOM     19  O   UNL     1       1.340   4.048  19.333  0.00  0.00    +0.000 OA
ENDBRANCH  14  15
ENDBRANCH   3  14
TORSDOF 5
ENDMDL
