MODEL 1
REMARK VINA RESULT:      -8.9      0.000      0.000
REMARK  Name = 
REMARK  7 active torsions:
REMARK  status: ('A' for Active; 'I' for Inactive)
REMARK    1  A    between atoms: C_1  and  C_2
REMARK    2  A    between atoms: N_4  and  C_5
REMARK    3  A    between atoms: C_5  and  C_6
REMARK    4  A    between atoms: C_9  and  C_10
REMARK    5  A    between atoms: N_12  and  C_13
REMARK    6  A    between atoms: N_16  and  C_17
REMARK    7  A    between atoms: C_28  and  C_29
REMARK                            x       y       z     vdW  Elec       q    Type
REMARK                         _______ _______ _______ _____ _____    ______ ____
ROOT
ATOM      1  C   UNL     1       0.771   9.543  20.147  0.00  0.00    +0.000 A 
ATOM      2  S   UNL     1       0.759   9.617  21.857  0.00  0.00    +0.000 S 
ATOM      3  C   UNL     1      -0.621  10.633  21.855  0.00  0.00    +0.000 A 
ATOM      4  N   UNL     1      -1.131  11.034  23.048  0.00  0.00    +0.000 N 
ATOM      5  N   UNL     1      -1.048  10.944  20.657  0.00  0.00    +0.000 NA
ATOM      6  C   UNL     1      -0.267  10.330  19.665  0.00  0.00    +0.000 A 
ATOM      7  H   UNL     1      -0.622  10.690  23.854  0.00  0.00    +0.000 HD
ENDROOT
BRANCH   4   8
ATOM      8  C   UNL     1      -1.768  12.271  23.295  0.00  0.00    +0.000 A 
ATOM      9  C   UNL     1      -3.149  12.276  23.530  0.00  0.00    +0.000 A 
ATOM     10  C   UNL     1      -3.794  13.429  23.985  0.00  0.00    +0.000 A 
ATOM     11  C   UNL     1      -3.074  14.611  24.191  0.00  0.00    +0.000 A 
ATOM     12  C   UNL     1      -3.653  15.726  24.814  0.00  0.00    +0.000 A 
ATOM     13  C   UNL     1      -2.918  16.896  25.006  0.00  0.00    +0.000 A 
ATOM     14  C   UNL     1      -1.624  16.993  24.504  0.00  0.00    +0.000 A 
ATOM     15  C   UNL     1      -1.031  15.887  23.894  0.00  0.00    +0.000 A 
ATOM     16  C   UNL     1      -1.722  14.669  23.793  0.00  0.00    +0.000 A 
ATOM     17  C   UNL     1      -1.088  13.495  23.352  0.00  0.00    +0.000 A 
ENDBRANCH   4   8
BRANCH   6  18
ATOM     18  C   UNL     1      -0.642  10.508  18.266  0.00  0.00    +0.000 C 
ATOM     19  N   UNL     1      -0.937  11.815  17.957  0.00  0.00    +0.000 N 
ATOM     20  O   UNL     1      -0.715   9.596  17.449  0.00  0.00    +0.000 OA
ATOM     21  H   UNL     1      -0.917  12.504  18.702  0.00  0.00    +0.000 HD
ATOM     22  H   UNL     1      -1.313  12.054  17.055  0.00  0.00    +0.000 HD
ENDBRANCH   6  18
BRANCH   1  25
ATOM     23  C   UNL     1       2.052   7.480  19.788  0.00  0.00    +0.000 C 
ATOM     24  O   UNL     1       1.478   6.828  20.663  0.00  0.00    +0.000 OA
ATOM     25  N   UNL     1       1.743   8.799  19.461  0.00  0.00    +0.000 N 
ATOM     26  H   UNL     1       2.085   9.208  18.596  0.00  0.00    +0.000 HD
BRANCH  23  30
ATOM     27  C   UNL     1       5.198   5.205  17.859  0.00  0.00    +0.000 A 
ATOM     28  C   UNL     1       4.628   4.811  19.069  0.00  0.00    +0.000 A 
ATOM     29  C   UNL     1       3.606   5.571  19.640  0.00  0.00    +0.000 A 
ATOM     30  C   UNL     1       3.113   6.742  19.028  0.00  0.00    +0.000 A 
ATOM     31  C   UNL     1       3.669   7.130  17.807  0.00  0.00    +0.000 A 
ATOM     32  C   UNL     1       4.699   6.359  17.228  0.00  0.00    +0.000 A 
BRANCH  27  33
ATOM     33  C   UNL     1       6.345   4.411  17.282  0.00  0.00    +0.000 C 
BRANCH  33  37
ATOM     34  C   UNL     1       5.695   3.297  12.436  0.00  0.00    +0.000 C 
ATOM     35  C   UNL     1       6.106   3.885  13.730  0.00  0.00    +0.000 A 
ATOM     36  C   UNL     1       5.615   3.639  14.996  0.00  0.00    +0.000 A 
ATOM     37  N   UNL     1       6.367   4.423  15.831  0.00  0.00    +0.000 N 
ATOM     38  C   UNL     1       7.266   5.100  15.059  0.00  0.00    +0.000 A 
ATOM     39  N   UNL     1       7.127   4.805  13.787  0.00  0.00    +0.000 NA
ENDBRANCH  33  37
ENDBRANCH  27  33
ENDBRANCH  23  30
ENDBRANCH   1  25
TORSDOF 6
ENDMDL
MODEL 2
REMARK VINA RESULT:      -8.8      0.824      1.601
REMARK  Name = 
REMARK  7 active torsions:
REMARK  status: ('A' for Active; 'I' for Inactive)
REMARK    1  A    between atoms: C_1  and  C_2
REMARK    2  A    between atoms: N_4  and  C_5
REMARK    3  A    between atoms: C_5  and  C_6
REMARK    4  A    between atoms: C_9  and  C_10
REMARK    5  A    between atoms: N_12  and  C_13
REMARK    6  A    between atoms: N_16  and  C_17
REMARK    7  A    between atoms: C_28  and  C_29
REMARK                            x       y       z     vdW  Elec       q    Type
REMARK                         _______ _______ _______ _____ _____    ______ ____
ROOT
ATOM      1  C   UNL     1       0.726   9.444  20.229  0.00  0.00    +0.000 A 
ATOM      2  S   UNL     1       0.810   9.652  21.927  0.00  0.00    +0.000 S 
ATOM      3  C   UNL     1      -0.640  10.565  21.939  0.00  0.00    +0.000 A 
ATOM      4  N   UNL     1      -1.107  11.022  23.129  0.00  0.00    +0.000 N 
ATOM      5  N   UNL     1      -1.160  10.750  20.750  0.00  0.00    +0.000 NA
ATOM      6  C   UNL     1      -0.395  10.116  19.759  0.00  0.00    +0.000 A 
ATOM      7  H   UNL     1      -0.526  10.780  23.923  0.00  0.00    +0.000 HD
ENDROOT
BRANCH   4   8
ATOM      8  C   UNL     1      -1.818  12.227  23.323  0.00  0.00    +0.000 A 
ATOM      9  C   UNL     1      -1.125  13.439  23.203  0.00  0.00    +0.000 A 
ATOM     10  C   UNL     1      -1.809  14.657  23.174  0.00  0.00    +0.000 A 
ATOM     11  C   UNL     1      -3.203  14.690  23.292  0.00  0.00    +0.000 A 
ATOM     12  C   UNL     1      -3.930  15.873  23.088  0.00  0.00    +0.000 A 
ATOM     13  C   UNL     1      -5.319  15.884  23.214  0.00  0.00    +0.000 A 
ATOM     14  C   UNL     1      -5.989  14.736  23.625  0.00  0.00    +0.000 A 
ATOM     15  C   UNL     1      -5.280  13.550  23.818  0.00  0.00    +0.000 A 
ATOM     16  C   UNL     1      -3.896  13.499  23.588  0.00  0.00    +0.000 A 
ATOM     17  C   UNL     1      -3.191  12.282  23.597  0.00  0.00    +0.000 A 
ENDBRANCH   4   8
BRANCH   6  18
ATOM     18  C   UNL     1      -0.864  10.156  18.377  0.00  0.00    +0.000 C 
ATOM     19  N   UNL     1      -2.106  10.734  18.254  0.00  0.00    +0.000 N 
ATOM     20  O   UNL     1      -0.241   9.704  17.423  0.00  0.00    +0.000 OA
ATOM     21  H   UNL     1      -2.588  11.026  19.098  0.00  0.00    +0.000 HD
ATOM     22  H   UNL     1      -2.588  10.725  17.372  0.00  0.00    +0.000 HD
ENDBRANCH   6  18
BRANCH   1  25
ATOM     23  C   UNL     1       2.028   7.398  19.851  0.00  0.00    +0.000 C 
ATOM     24  O   UNL     1       1.455   6.728  20.713  0.00  0.00    +0.000 OA
ATOM     25  N   UNL     1       1.709   8.718  19.540  0.00  0.00    +0.000 N 
ATOM     26  H   UNL     1       2.052   9.141  18.681  0.00  0.00    +0.000 HD
BRANCH  23  30
ATOM     27  C   UNL     1       5.215   5.189  17.912  0.00  0.00    +0.000 A 
ATOM     28  C   UNL     1       4.681   4.804  19.141  0.00  0.00    +0.000 A 
ATOM     29  C   UNL     1       3.645   5.540  19.715  0.00  0.00    +0.000 A 
ATOM     30  C   UNL     1       3.100   6.679  19.087  0.00  0.00    +0.000 A 
ATOM     31  C   UNL     1       3.619   7.058  17.847  0.00  0.00    +0.000 A 
ATOM     32  C   UNL     1       4.664   6.310  17.265  0.00  0.00    +0.000 A 
BRANCH  27  33
ATOM     33  C   UNL     1       6.378   4.422  17.331  0.00  0.00    +0.000 C 
BRANCH  33  37
ATOM     34  C   UNL     1       5.981   3.406  12.436  0.00  0.00    +0.000 C 
ATOM     35  C   UNL     1       6.286   3.995  13.759  0.00  0.00    +0.000 A 
ATOM     36  C   UNL     1       5.803   3.645  15.003  0.00  0.00    +0.000 A 
ATOM     37  N   UNL     1       6.430   4.487  15.882  0.00  0.00    +0.000 N 
ATOM     38  C   UNL     1       7.254   5.298  15.157  0.00  0.00    +0.000 A 
ATOM     39  N   UNL     1       7.181   5.033  13.872  0.00  0.00    +0.000 NA
ENDBRANCH  33  37
ENDBRANCH  27  33
ENDBRANCH  23  30
ENDBRANCH   1  25
TORSDOF 6
ENDMDL
MODEL 3
REMARK VINA RESULT:      -8.8      2.645     12.604
REMARK  Name = 
REMARK  7 active torsions:
REMARK  status: ('A' for Active; 'I' for Inactive)
REMARK    1  A    between atoms: C_1  and  C_2
REMARK    2  A    between atoms: N_4  and  C_5
REMARK    3  A    between atoms: C_5  and  C_6
REMARK    4  A    between atoms: C_9  and  C_10
REMARK    5  A    between atoms: N_12  and  C_13
REMARK    6  A    between atoms: N_16  and  C_17
REMARK    7  A    between atoms: C_28  and  C_29
REMARK                            x       y       z     vdW  Elec       q    Type
REMARK                         _______ _______ _______ _____ _____    ______ ____
ROOT
ATOM      1  C   UNL     1       0.117   9.397  20.510  0.00  0.00    +0.000 A 
ATOM      2  S   UNL     1       0.469   7.931  21.322  0.00  0.00    +0.000 S 
ATOM      3  C   UNL     1       1.798   7.616  20.286  0.00  0.00    +0.000 A 
ATOM      4  N   UNL     1       2.526   6.490  20.493  0.00  0.00    +0.000 N 
ATOM      5  N   UNL     1       1.969   8.521  19.355  0.00  0.00    +0.000 NA
ATOM      6  C   UNL     1       1.019   9.549  19.466  0.00  0.00    +0.000 A 
ATOM      7  H   UNL     1       2.196   5.917  21.261  0.00  0.00    +0.000 HD
ENDROOT
BRANCH   4   8
ATOM      8  C   UNL     1       3.170   5.732  19.489  0.00  0.00    +0.000 A 
ATOM      9  C   UNL     1       2.379   5.078  18.535  0.00  0.00    +0.000 A 
ATOM     10  C   UNL     1       2.955   4.495  17.404  0.00  0.00    +0.000 A 
ATOM     11  C   UNL     1       4.342   4.531  17.216  0.00  0.00    +0.000 A 
ATOM     12  C   UNL     1       4.931   4.115  16.012  0.00  0.00    +0.000 A 
ATOM     13  C   UNL     1       6.316   4.156  15.847  0.00  0.00    +0.000 A 
ATOM     14  C   UNL     1       7.131   4.533  16.909  0.00  0.00    +0.000 A 
ATOM     15  C   UNL     1       6.558   4.961  18.107  0.00  0.00    +0.000 A 
ATOM     16  C   UNL     1       5.162   5.029  18.248  0.00  0.00    +0.000 A 
ATOM     17  C   UNL     1       4.562   5.625  19.371  0.00  0.00    +0.000 A 
ENDBRANCH   4   8
BRANCH   6  18
ATOM     18  C   UNL     1       1.102  10.683  18.551  0.00  0.00    +0.000 C 
ATOM     19  N   UNL     1       2.171  10.595  17.690  0.00  0.00    +0.000 N 
ATOM     20  O   UNL     1       0.326  11.632  18.556  0.00  0.00    +0.000 OA
ATOM     21  H   UNL     1       2.808   9.810  17.790  0.00  0.00    +0.000 HD
ATOM     22  H   UNL     1       2.403  11.362  17.083  0.00  0.00    +0.000 HD
ENDBRANCH   6  18
BRANCH   1  25
ATOM     23  C   UNL     1      -0.788  11.337  21.712  0.00  0.00    +0.000 C 
ATOM     24  O   UNL     1       0.304  11.761  22.098  0.00  0.00    +0.000 OA
ATOM     25  N   UNL     1      -0.955  10.208  20.913  0.00  0.00    +0.000 N 
ATOM     26  H   UNL     1      -1.841  10.037  20.444  0.00  0.00    +0.000 HD
BRANCH  23  30
ATOM     27  C   UNL     1      -4.287  13.481  23.110  0.00  0.00    +0.000 A 
ATOM     28  C   UNL     1      -3.645  12.515  23.885  0.00  0.00    +0.000 A 
ATOM     29  C   UNL     1      -2.513  11.865  23.394  0.00  0.00    +0.000 A 
ATOM     30  C   UNL     1      -1.976  12.155  22.123  0.00  0.00    +0.000 A 
ATOM     31  C   UNL     1      -2.605  13.134  21.351  0.00  0.00    +0.000 A 
ATOM     32  C   UNL     1      -3.748  13.794  21.849  0.00  0.00    +0.000 A 
BRANCH  27  33
ATOM     33  C   UNL     1      -5.548  14.131  23.624  0.00  0.00    +0.000 C 
BRANCH  33  37
ATOM     34  C   UNL     1      -3.996  18.512  25.508  0.00  0.00    +0.000 C 
ATOM     35  C   UNL     1      -4.709  17.429  24.796  0.00  0.00    +0.000 A 
ATOM     36  C   UNL     1      -4.349  16.107  24.631  0.00  0.00    +0.000 A 
ATOM     37  N   UNL     1      -5.376  15.541  23.922  0.00  0.00    +0.000 N 
ATOM     38  C   UNL     1      -6.300  16.517  23.689  0.00  0.00    +0.000 A 
ATOM     39  N   UNL     1      -5.923  17.669  24.194  0.00  0.00    +0.000 NA
ENDBRANCH  33  37
ENDBRANCH  27  33
ENDBRANCH  23  30
ENDBRANCH   1  25
TORSDOF 6
ENDMDL
MODEL 4
REMARK VINA RESULT:      -8.7      2.157      3.016
REMARK  Name = 
REMARK  7 active torsions:
REMARK  status: ('A' for Active; 'I' for Inactive)
REMARK    1  A    between atoms: C_1  and  C_2
REMARK    2  A    between atoms: N_4  and  C_5
REMARK    3  A    between atoms: C_5  and  C_6
REMARK    4  A    between atoms: C_9  and  C_10
REMARK    5  A    between atoms: N_12  and  C_13
REMARK    6  A    between atoms: N_16  and  C_17
REMARK    7  A    between atoms: C_28  and  C_29
REMARK                            x       y       z     vdW  Elec       q    Type
REMARK                         _______ _______ _______ _____ _____    ______ ____
ROOT
ATOM      1  C   UNL     1      -0.135  10.008  19.842  0.00  0.00    +0.000 A 
ATOM      2  S   UNL     1      -1.042  10.895  18.693  0.00  0.00    +0.000 S 
ATOM      3  C   UNL     1      -1.752  11.858  19.920  0.00  0.00    +0.000 A 
ATOM      4  N   UNL     1      -2.626  12.830  19.556  0.00  0.00    +0.000 N 
ATOM      5  N   UNL     1      -1.377  11.531  21.133  0.00  0.00    +0.000 NA
ATOM      6  C   UNL     1      -0.451  10.476  21.110  0.00  0.00    +0.000 A 
ATOM      7  H   UNL     1      -2.788  12.889  18.557  0.00  0.00    +0.000 HD
ENDROOT
BRANCH   4   8
ATOM      8  C   UNL     1      -3.738  13.261  20.313  0.00  0.00    +0.000 A 
ATOM      9  C   UNL     1      -4.937  12.543  20.207  0.00  0.00    +0.000 A 
ATOM     10  C   UNL     1      -5.999  12.789  21.081  0.00  0.00    +0.000 A 
ATOM     11  C   UNL     1      -5.893  13.777  22.066  0.00  0.00    +0.000 A 
ATOM     12  C   UNL     1      -6.865  13.924  23.067  0.00  0.00    +0.000 A 
ATOM     13  C   UNL     1      -6.742  14.919  24.037  0.00  0.00    +0.000 A 
ATOM     14  C   UNL     1      -5.692  15.829  23.969  0.00  0.00    +0.000 A 
ATOM     15  C   UNL     1      -4.711  15.686  22.987  0.00  0.00    +0.000 A 
ATOM     16  C   UNL     1      -4.765  14.623  22.072  0.00  0.00    +0.000 A 
ATOM     17  C   UNL     1      -3.701  14.349  21.194  0.00  0.00    +0.000 A 
ENDBRANCH   4   8
BRANCH   6  18
ATOM     18  C   UNL     1       0.131  10.026  22.370  0.00  0.00    +0.000 C 
ATOM     19  N   UNL     1      -0.801   9.910  23.375  0.00  0.00    +0.000 N 
ATOM     20  O   UNL     1       1.323   9.797  22.537  0.00  0.00    +0.000 OA
ATOM     21  H   UNL     1      -1.760  10.180  23.178  0.00  0.00    +0.000 HD
ATOM     22  H   UNL     1      -0.514   9.713  24.318  0.00  0.00    +0.000 HD
ENDBRANCH   6  18
BRANCH   1  25
ATOM     23  C   UNL     1       1.702   9.148  18.458  0.00  0.00    +0.000 C 
ATOM     24  O   UNL     1       1.932  10.216  17.886  0.00  0.00    +0.000 OA
ATOM     25  N   UNL     1       0.730   8.977  19.441  0.00  0.00    +0.000 N 
ATOM     26  H   UNL     1       0.735   8.149  20.031  0.00  0.00    +0.000 HD
BRANCH  23  30
ATOM     27  C   UNL     1       4.108   5.665  17.524  0.00  0.00    +0.000 A 
ATOM     28  C   UNL     1       2.863   5.566  18.146  0.00  0.00    +0.000 A 
ATOM     29  C   UNL     1       2.121   6.718  18.410  0.00  0.00    +0.000 A 
ATOM     30  C   UNL     1       2.585   8.003  18.062  0.00  0.00    +0.000 A 
ATOM     31  C   UNL     1       3.823   8.104  17.423  0.00  0.00    +0.000 A 
ATOM     32  C   UNL     1       4.571   6.940  17.152  0.00  0.00    +0.000 A 
BRANCH  27  33
ATOM     33  C   UNL     1       4.930   4.418  17.302  0.00  0.00    +0.000 C 
BRANCH  33  37
ATOM     34  C   UNL     1       6.567   3.754  12.608  0.00  0.00    +0.000 C 
ATOM     35  C   UNL     1       6.408   4.115  14.034  0.00  0.00    +0.000 A 
ATOM     36  C   UNL     1       5.288   4.030  14.837  0.00  0.00    +0.000 A 
ATOM     37  N   UNL     1       5.697   4.461  16.070  0.00  0.00    +0.000 N 
ATOM     38  C   UNL     1       7.020   4.783  15.975  0.00  0.00    +0.000 A 
ATOM     39  N   UNL     1       7.475   4.594  14.757  0.00  0.00    +0.000 NA
ENDBRANCH  33  37
ENDBRANCH  27  33
ENDBRANCH  23  30
ENDBRANCH   1  25
TORSDOF 6
ENDMDL
MODEL 5
REMARK VINA RESULT:      -8.6      2.456      3.016
REMARK  Name = 
REMARK  7 active torsions:
REMARK  status: ('A' for Active; 'I' for Inactive)
REMARK    1  A    between atoms: C_1  and  C_2
REMARK    2  A    between atoms: N_4  and  C_5
REMARK    3  A    between atoms: C_5  and  C_6
REMARK    4  A    between atoms: C_9  and  C_10
REMARK    5  A    between atoms: N_12  and  C_13
REMARK    6  A    between atoms: N_16  and  C_17
REMARK    7  A    between atoms: C_28  and  C_29
REMARK                            x       y       z     vdW  Elec       q    Type
REMARK                         _______ _______ _______ _____ _____    ______ ____
ROOT
ATOM      1  C   UNL     1      -0.265  10.415  18.456  0.00  0.00    +0.000 A 
ATOM      2  S   UNL     1      -1.843  10.259  17.812  0.00  0.00    +0.000 S 
ATOM      3  C   UNL     1      -2.386  11.640  18.670  0.00  0.00    +0.000 A 
ATOM      4  N   UNL     1      -3.676  12.033  18.515  0.00  0.00    +0.000 N 
ATOM      5  N   UNL     1      -1.469  12.185  19.431  0.00  0.00    +0.000 NA
ATOM      6  C   UNL     1      -0.248  11.500  19.322  0.00  0.00    +0.000 A 
ATOM      7  H   UNL     1      -4.217  11.444  17.891  0.00  0.00    +0.000 HD
ENDROOT
BRANCH   4   8
ATOM      8  C   UNL     1      -4.472  12.650  19.506  0.00  0.00    +0.000 A 
ATOM      9  C   UNL     1      -5.857  12.443  19.474  0.00  0.00    +0.000 A 
ATOM     10  C   UNL     1      -6.667  12.848  20.538  0.00  0.00    +0.000 A 
ATOM     11  C   UNL     1      -6.109  13.492  21.649  0.00  0.00    +0.000 A 
ATOM     12  C   UNL     1      -6.862  13.748  22.805  0.00  0.00    +0.000 A 
ATOM     13  C   UNL     1      -6.287  14.396  23.899  0.00  0.00    +0.000 A 
ATOM     14  C   UNL     1      -4.981  14.868  23.818  0.00  0.00    +0.000 A 
ATOM     15  C   UNL     1      -4.217  14.609  22.680  0.00  0.00    +0.000 A 
ATOM     16  C   UNL     1      -4.750  13.863  21.616  0.00  0.00    +0.000 A 
ATOM     17  C   UNL     1      -3.949  13.432  20.543  0.00  0.00    +0.000 A 
ENDBRANCH   4   8
BRANCH   6  18
ATOM     18  C   UNL     1       0.910  12.012  20.048  0.00  0.00    +0.000 C 
ATOM     19  N   UNL     1       1.772  12.720  19.243  0.00  0.00    +0.000 N 
ATOM     20  O   UNL     1       1.119  11.818  21.240  0.00  0.00    +0.000 OA
ATOM     21  H   UNL     1       1.565  12.783  18.251  0.00  0.00    +0.000 HD
ATOM     22  H   UNL     1       2.660  13.033  19.596  0.00  0.00    +0.000 HD
ENDBRANCH   6  18
BRANCH   1  25
ATOM     23  C   UNL     1       1.378   8.689  19.045  0.00  0.00    +0.000 C 
ATOM     24  O   UNL     1       1.077   8.637  20.240  0.00  0.00    +0.000 OA
ATOM     25  N   UNL     1       0.750   9.510  18.111  0.00  0.00    +0.000 N 
ATOM     26  H   UNL     1       0.881   9.350  17.115  0.00  0.00    +0.000 HD
BRANCH  23  30
ATOM     27  C   UNL     1       4.511   5.849  18.088  0.00  0.00    +0.000 A 
ATOM     28  C   UNL     1       3.586   5.624  19.107  0.00  0.00    +0.000 A 
ATOM     29  C   UNL     1       2.587   6.563  19.364  0.00  0.00    +0.000 A 
ATOM     30  C   UNL     1       2.468   7.752  18.617  0.00  0.00    +0.000 A 
ATOM     31  C   UNL     1       3.381   7.973  17.583  0.00  0.00    +0.000 A 
ATOM     32  C   UNL     1       4.389   7.022  17.320  0.00  0.00    +0.000 A 
BRANCH  27  33
ATOM     33  C   UNL     1       5.625   4.857  17.861  0.00  0.00    +0.000 C 
BRANCH  33  37
ATOM     34  C   UNL     1       6.204   3.655  13.026  0.00  0.00    +0.000 C 
ATOM     35  C   UNL     1       6.321   4.225  14.387  0.00  0.00    +0.000 A 
ATOM     36  C   UNL     1       5.458   4.114  15.458  0.00  0.00    +0.000 A 
ATOM     37  N   UNL     1       6.060   4.803  16.477  0.00  0.00    +0.000 N 
ATOM     38  C   UNL     1       7.240   5.295  15.999  0.00  0.00    +0.000 A 
ATOM     39  N   UNL     1       7.421   4.972  14.739  0.00  0.00    +0.000 NA
ENDBRANCH  33  37
ENDBRANCH  27  33
ENDBRANCH  23  30
ENDBRANCH   1  25
TORSDOF 6
ENDMDL
MODEL 6
REMARK VINA RESULT:      -8.6      2.333      2.951
REMARK  Name = 
REMARK  7 active torsions:
REMARK  status: ('A' for Active; 'I' for Inactive)
REMARK    1  A    between atoms: C_1  and  C_2
REMARK    2  A    between atoms: N_4  and  C_5
REMARK    3  A    between atoms: C_5  and  C_6
REMARK    4  A    between atoms: C_9  and  C_10
REMARK    5  A    between atoms: N_12  and  C_13
REMARK    6  A    between atoms: N_16  and  C_17
REMARK    7  A    between atoms: C_28  and  C_29
REMARK                            x       y       z     vdW  Elec       q    Type
REMARK                         _______ _______ _______ _____ _____    ______ ____
ROOT
ATOM      1  C   UNL     1       0.100  10.726  18.810  0.00  0.00    +0.000 A 
ATOM      2  S   UNL     1      -1.589  10.470  18.691  0.00  0.00    +0.000 S 
ATOM      3  C   UNL     1      -1.922  12.020  19.343  0.00  0.00    +0.000 A 
ATOM      4  N   UNL     1      -3.218  12.401  19.477  0.00  0.00    +0.000 N 
ATOM      5  N   UNL     1      -0.850  12.696  19.674  0.00  0.00    +0.000 NA
ATOM      6  C   UNL     1       0.317  11.975  19.376  0.00  0.00    +0.000 A 
ATOM      7  H   UNL     1      -3.888  11.702  19.178  0.00  0.00    +0.000 HD
ENDROOT
BRANCH   4   8
ATOM      8  C   UNL     1      -3.726  13.241  20.493  0.00  0.00    +0.000 A 
ATOM      9  C   UNL     1      -3.244  14.555  20.576  0.00  0.00    +0.000 A 
ATOM     10  C   UNL     1      -3.854  15.490  21.415  0.00  0.00    +0.000 A 
ATOM     11  C   UNL     1      -4.946  15.125  22.210  0.00  0.00    +0.000 A 
ATOM     12  C   UNL     1      -5.688  16.078  22.923  0.00  0.00    +0.000 A 
ATOM     13  C   UNL     1      -6.771  15.691  23.713  0.00  0.00    +0.000 A 
ATOM     14  C   UNL     1      -7.072  14.341  23.865  0.00  0.00    +0.000 A 
ATOM     15  C   UNL     1      -6.350  13.384  23.152  0.00  0.00    +0.000 A 
ATOM     16  C   UNL     1      -5.329  13.769  22.269  0.00  0.00    +0.000 A 
ATOM     17  C   UNL     1      -4.713  12.847  21.405  0.00  0.00    +0.000 A 
ENDBRANCH   4   8
BRANCH   6  18
ATOM     18  C   UNL     1       1.612  12.605  19.613  0.00  0.00    +0.000 C 
ATOM     19  N   UNL     1       1.695  13.201  20.850  0.00  0.00    +0.000 N 
ATOM     20  O   UNL     1       2.526  12.632  18.797  0.00  0.00    +0.000 OA
ATOM     21  H   UNL     1       0.873  13.193  21.446  0.00  0.00    +0.000 HD
ATOM     22  H   UNL     1       2.493  13.761  21.094  0.00  0.00    +0.000 HD
ENDBRANCH   6  18
BRANCH   1  25
ATOM     23  C   UNL     1       1.482   8.746  19.251  0.00  0.00    +0.000 C 
ATOM     24  O   UNL     1       1.115   8.599  20.420  0.00  0.00    +0.000 OA
ATOM     25  N   UNL     1       1.011   9.741  18.398  0.00  0.00    +0.000 N 
ATOM     26  H   UNL     1       1.173   9.679  17.397  0.00  0.00    +0.000 HD
BRANCH  23  30
ATOM     27  C   UNL     1       4.343   5.695  18.109  0.00  0.00    +0.000 A 
ATOM     28  C   UNL     1       3.538   5.576  19.242  0.00  0.00    +0.000 A 
ATOM     29  C   UNL     1       2.622   6.580  19.557  0.00  0.00    +0.000 A 
ATOM     30  C   UNL     1       2.469   7.731  18.756  0.00  0.00    +0.000 A 
ATOM     31  C   UNL     1       3.260   7.845  17.611  0.00  0.00    +0.000 A 
ATOM     32  C   UNL     1       4.184   6.828  17.291  0.00  0.00    +0.000 A 
BRANCH  27  33
ATOM     33  C   UNL     1       5.375   4.634  17.814  0.00  0.00    +0.000 C 
BRANCH  33  37
ATOM     34  C   UNL     1       6.363   3.837  12.962  0.00  0.00    +0.000 C 
ATOM     35  C   UNL     1       6.343   4.315  14.363  0.00  0.00    +0.000 A 
ATOM     36  C   UNL     1       5.427   4.055  15.361  0.00  0.00    +0.000 A 
ATOM     37  N   UNL     1       5.900   4.717  16.463  0.00  0.00    +0.000 N 
ATOM     38  C   UNL     1       7.059   5.339  16.102  0.00  0.00    +0.000 A 
ATOM     39  N   UNL     1       7.348   5.125  14.839  0.00  0.00    +0.000 NA
ENDBRANCH  33  37
ENDBRANCH  27  33
ENDBRANCH  23  30
ENDBRANCH   1  25
TORSDOF 6
ENDMDL
MODEL 7
REMARK VINA RESULT:      -8.5      2.085      3.084
REMARK  Name = 
REMARK  7 active torsions:
REMARK  status: ('A' for Active; 'I' for Inactive)
REMARK    1  A    between atoms: C_1  and  C_2
REMARK    2  A    between atoms: N_4  and  C_5
REMARK    3  A    between atoms: C_5  and  C_6
REMARK    4  A    between atoms: C_9  and  C_10
REMARK    5  A    between atoms: N_12  and  C_13
REMARK    6  A    between atoms: N_16  and  C_17
REMARK    7  A    between atoms: C_28  and  C_29
REMARK                            x       y       z     vdW  Elec       q    Type
REMARK                         _______ _______ _______ _____ _____    ______ ____
ROOT
ATOM      1  C   UNL     1       0.435   9.677  19.967  0.00  0.00    +0.000 A 
ATOM      2  S   UNL     1      -0.331  10.566  18.721  0.00  0.00    +0.000 S 
ATOM      3  C   UNL     1      -1.182  11.526  19.858  0.00  0.00    +0.000 A 
ATOM      4  N   UNL     1      -2.008  12.498  19.395  0.00  0.00    +0.000 N 
ATOM      5  N   UNL     1      -0.952  11.197  21.105  0.00  0.00    +0.000 NA
ATOM      6  C   UNL     1      -0.028  10.143  21.190  0.00  0.00    +0.000 A 
ATOM      7  H   UNL     1      -2.052  12.559  18.384  0.00  0.00    +0.000 HD
ENDROOT
BRANCH   4   8
ATOM      8  C   UNL     1      -3.202  12.927  20.017  0.00  0.00    +0.000 A 
ATOM      9  C   UNL     1      -4.415  12.368  19.591  0.00  0.00    +0.000 A 
ATOM     10  C   UNL     1      -5.595  12.591  20.303  0.00  0.00    +0.000 A 
ATOM     11  C   UNL     1      -5.593  13.399  21.445  0.00  0.00    +0.000 A 
ATOM     12  C   UNL     1      -6.717  13.496  22.279  0.00  0.00    +0.000 A 
ATOM     13  C   UNL     1      -6.695  14.312  23.411  0.00  0.00    +0.000 A 
ATOM     14  C   UNL     1      -5.581  15.102  23.676  0.00  0.00    +0.000 A 
ATOM     15  C   UNL     1      -4.451  15.005  22.863  0.00  0.00    +0.000 A 
ATOM     16  C   UNL     1      -4.422  14.106  21.784  0.00  0.00    +0.000 A 
ATOM     17  C   UNL     1      -3.240  13.856  21.064  0.00  0.00    +0.000 A 
ENDBRANCH   4   8
BRANCH   6  18
ATOM     18  C   UNL     1       0.402   9.691  22.509  0.00  0.00    +0.000 C 
ATOM     19  N   UNL     1      -0.645   9.544  23.389  0.00  0.00    +0.000 N 
ATOM     20  O   UNL     1       1.569   9.486  22.822  0.00  0.00    +0.000 OA
ATOM     21  H   UNL     1      -1.577   9.796  23.076  0.00  0.00    +0.000 HD
ATOM     22  H   UNL     1      -0.473   9.343  24.358  0.00  0.00    +0.000 HD
ENDBRANCH   6  18
BRANCH   1  25
ATOM     23  C   UNL     1       1.865   8.450  18.393  0.00  0.00    +0.000 C 
ATOM     24  O   UNL     1       1.628   9.175  17.424  0.00  0.00    +0.000 OA
ATOM     25  N   UNL     1       1.342   8.648  19.669  0.00  0.00    +0.000 N 
ATOM     26  H   UNL     1       1.742   8.164  20.469  0.00  0.00    +0.000 HD
BRANCH  23  30
ATOM     27  C   UNL     1       4.762   5.372  17.432  0.00  0.00    +0.000 A 
ATOM     28  C   UNL     1       4.991   6.721  17.164  0.00  0.00    +0.000 A 
ATOM     29  C   UNL     1       4.032   7.674  17.508  0.00  0.00    +0.000 A 
ATOM     30  C   UNL     1       2.818   7.322  18.133  0.00  0.00    +0.000 A 
ATOM     31  C   UNL     1       2.593   5.974  18.420  0.00  0.00    +0.000 A 
ATOM     32  C   UNL     1       3.565   5.011  18.076  0.00  0.00    +0.000 A 
BRANCH  27  33
ATOM     33  C   UNL     1       5.778   4.343  16.998  0.00  0.00    +0.000 C 
BRANCH  33  37
ATOM     34  C   UNL     1       6.222   3.521  12.070  0.00  0.00    +0.000 C 
ATOM     35  C   UNL     1       6.330   4.032  13.455  0.00  0.00    +0.000 A 
ATOM     36  C   UNL     1       5.579   3.707  14.567  0.00  0.00    +0.000 A 
ATOM     37  N   UNL     1       6.116   4.442  15.590  0.00  0.00    +0.000 N 
ATOM     38  C   UNL     1       7.150   5.169  15.074  0.00  0.00    +0.000 A 
ATOM     39  N   UNL     1       7.297   4.952  13.788  0.00  0.00    +0.000 NA
ENDBRANCH  33  37
ENDBRANCH  27  33
ENDBRANCH  23  30
ENDBRANCH   1  25
TORSDOF 6
ENDMDL
MODEL 8
REMARK VINA RESULT:      -8.5      2.135      2.381
REMARK  Name = 
REMARK  7 active torsions:
REMARK  status: ('A' for Active; 'I' for Inactive)
REMARK    1  A    between atoms: C_1  and  C_2
REMARK    2  A    between atoms: N_4  and  C_5
REMARK    3  A    between atoms: C_5  and  C_6
REMARK    4  A    between atoms: C_9  and  C_10
REMARK    5  A    between atoms: N_12  and  C_13
REMARK    6  A    between atoms: N_16  and  C_17
REMARK    7  A    between atoms: C_28  and  C_29
REMARK                            x       y       z     vdW  Elec       q    Type
REMARK                         _______ _______ _______ _____ _____    ______ ____
ROOT
ATOM      1  C   UNL     1       0.108  10.730  18.718  0.00  0.00    +0.000 A 
ATOM      2  S   UNL     1      -1.573  10.443  18.871  0.00  0.00    +0.000 S 
ATOM      3  C   UNL     1      -1.864  12.077  19.297  0.00  0.00    +0.000 A 
ATOM      4  N   UNL     1      -3.143  12.464  19.541  0.00  0.00    +0.000 N 
ATOM      5  N   UNL     1      -0.780  12.809  19.365  0.00  0.00    +0.000 NA
ATOM      6  C   UNL     1       0.360  12.057  19.036  0.00  0.00    +0.000 A 
ATOM      7  H   UNL     1      -3.825  11.720  19.454  0.00  0.00    +0.000 HD
ENDROOT
BRANCH   4   8
ATOM      8  C   UNL     1      -3.538  13.459  20.463  0.00  0.00    +0.000 A 
ATOM      9  C   UNL     1      -4.835  13.983  20.365  0.00  0.00    +0.000 A 
ATOM     10  C   UNL     1      -5.352  14.806  21.368  0.00  0.00    +0.000 A 
ATOM     11  C   UNL     1      -4.573  15.145  22.480  0.00  0.00    +0.000 A 
ATOM     12  C   UNL     1      -5.120  15.818  23.583  0.00  0.00    +0.000 A 
ATOM     13  C   UNL     1      -4.324  16.149  24.680  0.00  0.00    +0.000 A 
ATOM     14  C   UNL     1      -2.958  15.888  24.651  0.00  0.00    +0.000 A 
ATOM     15  C   UNL     1      -2.404  15.208  23.567  0.00  0.00    +0.000 A 
ATOM     16  C   UNL     1      -3.214  14.771  22.506  0.00  0.00    +0.000 A 
ATOM     17  C   UNL     1      -2.717  13.930  21.495  0.00  0.00    +0.000 A 
ENDBRANCH   4   8
BRANCH   6  18
ATOM     18  C   UNL     1       1.654  12.730  18.989  0.00  0.00    +0.000 C 
ATOM     19  N   UNL     1       2.121  12.895  17.706  0.00  0.00    +0.000 N 
ATOM     20  O   UNL     1       2.281  13.090  19.979  0.00  0.00    +0.000 OA
ATOM     21  H   UNL     1       1.576  12.512  16.940  0.00  0.00    +0.000 HD
ATOM     22  H   UNL     1       3.049  13.246  17.541  0.00  0.00    +0.000 HD
ENDBRANCH   6  18
BRANCH   1  25
ATOM     23  C   UNL     1       1.476   8.767  19.269  0.00  0.00    +0.000 C 
ATOM     24  O   UNL     1       1.151   8.723  20.458  0.00  0.00    +0.000 OA
ATOM     25  N   UNL     1       0.988   9.698  18.355  0.00  0.00    +0.000 N 
ATOM     26  H   UNL     1       1.110   9.551  17.357  0.00  0.00    +0.000 HD
BRANCH  23  30
ATOM     27  C   UNL     1       4.229   5.569  18.275  0.00  0.00    +0.000 A 
ATOM     28  C   UNL     1       3.423   5.532  19.412  0.00  0.00    +0.000 A 
ATOM     29  C   UNL     1       2.542   6.580  19.678  0.00  0.00    +0.000 A 
ATOM     30  C   UNL     1       2.426   7.696  18.823  0.00  0.00    +0.000 A 
ATOM     31  C   UNL     1       3.218   7.728  17.673  0.00  0.00    +0.000 A 
ATOM     32  C   UNL     1       4.107   6.666  17.402  0.00  0.00    +0.000 A 
BRANCH  27  33
ATOM     33  C   UNL     1       5.224   4.461  18.030  0.00  0.00    +0.000 C 
BRANCH  33  37
ATOM     34  C   UNL     1       6.309   3.787  13.180  0.00  0.00    +0.000 C 
ATOM     35  C   UNL     1       6.302   4.174  14.609  0.00  0.00    +0.000 A 
ATOM     36  C   UNL     1       5.301   4.033  15.547  0.00  0.00    +0.000 A 
ATOM     37  N   UNL     1       5.828   4.524  16.712  0.00  0.00    +0.000 N 
ATOM     38  C   UNL     1       7.101   4.936  16.444  0.00  0.00    +0.000 A 
ATOM     39  N   UNL     1       7.414   4.747  15.183  0.00  0.00    +0.000 NA
ENDBRANCH  33  37
ENDBRANCH  27  33
ENDBRANCH  23  30
ENDBRANCH   1  25
TORSDOF 6
ENDMDL
MODEL 9
REMARK VINA RESULT:      -8.4      2.477      3.342
REMARK  Name = 
REMARK  7 active torsions:
REMARK  status: ('A' for Active; 'I' for Inactive)
REMARK    1  A    between atoms: C_1  and  C_2
REMARK    2  A    between atoms: N_4  and  C_5
REMARK    3  A    between atoms: C_5  and  C_6
REMARK    4  A    between atoms: C_9  and  C_10
REMARK    5  A    between atoms: N_12  and  C_13
REMARK    6  A    between atoms: N_16  and  C_17
REMARK    7  A    between atoms: C_28  and  C_29
REMARK                            x       y       z     vdW  Elec       q    Type
REMARK                         _______ _______ _______ _____ _____    ______ ____
ROOT
ATOM      1  C   UNL     1      -0.168  10.244  18.873  0.00  0.00    +0.000 A 
ATOM      2  S   UNL     1      -1.528  10.453  17.855  0.00  0.00    +0.000 S 
ATOM      3  C   UNL     1      -2.271  11.514  18.978  0.00  0.00    +0.000 A 
ATOM      4  N   UNL     1      -3.477  12.050  18.662  0.00  0.00    +0.000 N 
ATOM      5  N   UNL     1      -1.579  11.690  20.077  0.00  0.00    +0.000 NA
ATOM      6  C   UNL     1      -0.372  10.974  20.036  0.00  0.00    +0.000 A 
ATOM      7  H   UNL     1      -3.840  11.752  17.764  0.00  0.00    +0.000 HD
ENDROOT
BRANCH   4   8
ATOM      8  C   UNL     1      -4.499  12.371  19.583  0.00  0.00    +0.000 A 
ATOM      9  C   UNL     1      -5.745  11.744  19.444  0.00  0.00    +0.000 A 
ATOM     10  C   UNL     1      -6.720  11.858  20.438  0.00  0.00    +0.000 A 
ATOM     11  C   UNL     1      -6.479  12.625  21.583  0.00  0.00    +0.000 A 
ATOM     12  C   UNL     1      -7.360  12.615  22.674  0.00  0.00    +0.000 A 
ATOM     13  C   UNL     1      -7.102  13.390  23.805  0.00  0.00    +0.000 A 
ATOM     14  C   UNL     1      -6.007  14.247  23.824  0.00  0.00    +0.000 A 
ATOM     15  C   UNL     1      -5.114  14.258  22.751  0.00  0.00    +0.000 A 
ATOM     16  C   UNL     1      -5.304  13.401  21.655  0.00  0.00    +0.000 A 
ATOM     17  C   UNL     1      -4.329  13.260  20.652  0.00  0.00    +0.000 A 
ENDBRANCH   4   8
BRANCH   6  18
ATOM     18  C   UNL     1       0.562  11.110  21.150  0.00  0.00    +0.000 C 
ATOM     19  N   UNL     1       0.311  10.218  22.166  0.00  0.00    +0.000 N 
ATOM     20  O   UNL     1       1.461  11.942  21.199  0.00  0.00    +0.000 OA
ATOM     21  H   UNL     1      -0.492   9.603  22.082  0.00  0.00    +0.000 HD
ATOM     22  H   UNL     1       0.814  10.279  23.035  0.00  0.00    +0.000 HD
ENDBRANCH   6  18
BRANCH   1  25
ATOM     23  C   UNL     1       1.335   8.343  19.266  0.00  0.00    +0.000 C 
ATOM     24  O   UNL     1       0.804   7.984  20.319  0.00  0.00    +0.000 OA
ATOM     25  N   UNL     1       0.901   9.418  18.493  0.00  0.00    +0.000 N 
ATOM     26  H   UNL     1       1.228   9.528  17.536  0.00  0.00    +0.000 HD
BRANCH  23  30
ATOM     27  C   UNL     1       4.692   5.797  18.242  0.00  0.00    +0.000 A 
ATOM     28  C   UNL     1       3.840   5.515  19.310  0.00  0.00    +0.000 A 
ATOM     29  C   UNL     1       2.764   6.359  19.587  0.00  0.00    +0.000 A 
ATOM     30  C   UNL     1       2.494   7.506  18.813  0.00  0.00    +0.000 A 
ATOM     31  C   UNL     1       3.334   7.782  17.732  0.00  0.00    +0.000 A 
ATOM     32  C   UNL     1       4.419   6.927  17.449  0.00  0.00    +0.000 A 
BRANCH  27  33
ATOM     33  C   UNL     1       5.889   4.914  17.990  0.00  0.00    +0.000 C 
BRANCH  33  37
ATOM     34  C   UNL     1       7.517   5.030  13.248  0.00  0.00    +0.000 C 
ATOM     35  C   UNL     1       6.801   4.751  14.513  0.00  0.00    +0.000 A 
ATOM     36  C   UNL     1       7.111   5.148  15.798  0.00  0.00    +0.000 A 
ATOM     37  N   UNL     1       6.106   4.644  16.580  0.00  0.00    +0.000 N 
ATOM     38  C   UNL     1       5.243   3.976  15.762  0.00  0.00    +0.000 A 
ATOM     39  N   UNL     1       5.639   4.014  14.510  0.00  0.00    +0.000 NA
ENDBRANCH  33  37
ENDBRANCH  27  33
ENDBRANCH  23  30
ENDBRANCH   1  25
TORSDOF 6
ENDMDL
