MODEL 1
REMARK VINA RESULT:      -7.4      0.000      0.000
REMARK  Name = 
REMARK  5 active torsions:
REMARK  status: ('A' for Active; 'I' for Inactive)
REMARK    1  A    between atoms: C_1  and  C_2
REMARK    2  A    between atoms: C_2  and  N_3
REMARK    3  A    between atoms: C_2  and  C_22
REMARK    4  A    between atoms: C_8  and  N_9
REMARK    5  A    between atoms: C_14  and  C_15
REMARK                            x       y       z     vdW  Elec       q    Type
REMARK                         _______ _______ _______ _____ _____    ______ ____
ROOT
ATOM      1  N   UNL     1       7.618   4.510  14.822  0.00  0.00    +0.000 N 
ATOM      2  C   UNL     1       7.043   4.684  16.054  0.00  0.00    +0.000 A 
ATOM      3  N   UNL     1       7.864   4.453  17.086  0.00  0.00    +0.000 NA
ATOM      4  C   UNL     1       7.436   4.804  18.305  0.00  0.00    +0.000 A 
ATOM      5  C   UNL     1       6.197   5.333  18.537  0.00  0.00    +0.000 A 
ATOM      6  C   UNL     1       5.375   5.418  17.435  0.00  0.00    +0.000 A 
ATOM      7  N   UNL     1       5.773   5.088  16.189  0.00  0.00    +0.000 NA
ATOM      8  H   UNL     1       7.989   3.574  14.740  0.00  0.00    +0.000 HD
ENDROOT
BRANCH   6   9
ATOM      9  N   UNL     1       4.038   5.770  17.641  0.00  0.00    +0.000 N 
ATOM     10  C   UNL     1       3.567   7.054  17.649  0.00  0.00    +0.000 C 
ATOM     11  O   UNL     1       4.208   8.082  17.510  0.00  0.00    +0.000 OA
ATOM     12  O   UNL     1       2.210   7.046  17.820  0.00  0.00    +0.000 OA
ATOM     13  C   UNL     1       1.782   5.702  18.082  0.00  0.00    +0.000 C 
ATOM     14  C   UNL     1       2.994   4.809  17.824  0.00  0.00    +0.000 C 
BRANCH  14  15
ATOM     15  C   UNL     1       3.256   3.872  18.991  0.00  0.00    +0.000 A 
ATOM     16  C   UNL     1       2.664   4.106  20.237  0.00  0.00    +0.000 A 
ATOM     17  C   UNL     1       2.916   3.221  21.274  0.00  0.00    +0.000 A 
ATOM     18  N   UNL     1       3.708   2.132  21.163  0.00  0.00    +0.000 NA
ATOM     19  C   UNL     1       4.266   1.911  19.956  0.00  0.00    +0.000 A 
ATOM     20  C   UNL     1       4.077   2.739  18.860  0.00  0.00    +0.000 A 
ENDBRANCH  14  15
ENDBRANCH   6   9
BRANCH   1  22
ATOM     21  C   UNL     1       8.204   5.847  12.855  0.00  0.00    +0.000 C 
ATOM     22  C   UNL     1       7.087   5.126  13.623  0.00  0.00    +0.000 C 
BRANCH  22  23
ATOM     23  C   UNL     1       6.498   4.018  12.755  0.00  0.00    +0.000 A 
ATOM     24  C   UNL     1       7.341   3.117  12.089  0.00  0.00    +0.000 A 
ATOM     25  C   UNL     1       6.804   2.115  11.272  0.00  0.00    +0.000 A 
ATOM     26  C   UNL     1       5.425   2.000  11.113  0.00  0.00    +0.000 A 
ATOM     27  C   UNL     1       4.574   2.881  11.774  0.00  0.00    +0.000 A 
ATOM     28  C   UNL     1       5.108   3.881  12.590  0.00  0.00    +0.000 A 
ENDBRANCH  22  23
ENDBRANCH   1  22
TORSDOF 4
ENDMDL
MODEL 2
REMARK VINA RESULT:      -7.2     10.257     13.636
REMARK  Name = 
REMARK  5 active torsions:
REMARK  status: ('A' for Active; 'I' for Inactive)
REMARK    1  A    between atoms: C_1  and  C_2
REMARK    2  A    between atoms: C_2  and  N_3
REMARK    3  A    between atoms: C_2  and  C_22
REMARK    4  A    between atoms: C_8  and  N_9
REMARK    5  A    between atoms: C_14  and  C_15
REMARK                            x       y       z     vdW  Elec       q    Type
REMARK                         _______ _______ _______ _____ _____    ______ ____
ROOT
ATOM      1  N   UNL     1      -1.596  13.051  20.622  0.00  0.00    +0.000 N 
ATOM      2  C   UNL     1      -2.630  13.664  21.280  0.00  0.00    +0.000 A 
ATOM      3  N   UNL     1      -2.499  14.990  21.403  0.00  0.00    +0.000 NA
ATOM      4  C   UNL     1      -3.561  15.676  21.844  0.00  0.00    +0.000 A 
ATOM      5  C   UNL     1      -4.735  15.078  22.213  0.00  0.00    +0.000 A 
ATOM      6  C   UNL     1      -4.734  13.701  22.173  0.00  0.00    +0.000 A 
ATOM      7  N   UNL     1      -3.691  12.975  21.722  0.00  0.00    +0.000 NA
ATOM      8  H   UNL     1      -0.721  13.251  21.086  0.00  0.00    +0.000 HD
ENDROOT
BRANCH   6   9
ATOM      9  N   UNL     1      -5.833  13.031  22.718  0.00  0.00    +0.000 N 
ATOM     10  C   UNL     1      -5.812  12.335  23.895  0.00  0.00    +0.000 C 
ATOM     11  O   UNL     1      -4.861  12.161  24.638  0.00  0.00    +0.000 OA
ATOM     12  O   UNL     1      -7.062  11.850  24.166  0.00  0.00    +0.000 OA
ATOM     13  C   UNL     1      -7.916  12.113  23.044  0.00  0.00    +0.000 C 
ATOM     14  C   UNL     1      -7.131  13.037  22.115  0.00  0.00    +0.000 C 
BRANCH  14  15
ATOM     15  C   UNL     1      -7.120  12.515  20.689  0.00  0.00    +0.000 A 
ATOM     16  C   UNL     1      -6.805  11.178  20.423  0.00  0.00    +0.000 A 
ATOM     17  C   UNL     1      -6.818  10.735  19.110  0.00  0.00    +0.000 A 
ATOM     18  N   UNL     1      -7.118  11.520  18.051  0.00  0.00    +0.000 NA
ATOM     19  C   UNL     1      -7.427  12.804  18.318  0.00  0.00    +0.000 A 
ATOM     20  C   UNL     1      -7.437  13.340  19.597  0.00  0.00    +0.000 A 
ENDBRANCH  14  15
ENDBRANCH   6   9
BRANCH   1  22
ATOM     21  C   UNL     1      -1.388  11.849  18.497  0.00  0.00    +0.000 C 
ATOM     22  C   UNL     1      -1.736  11.755  19.990  0.00  0.00    +0.000 C 
BRANCH  22  23
ATOM     23  C   UNL     1      -0.773  10.795  20.683  0.00  0.00    +0.000 A 
ATOM     24  C   UNL     1       0.132  10.035  19.929  0.00  0.00    +0.000 A 
ATOM     25  C   UNL     1       1.000   9.135  20.561  0.00  0.00    +0.000 A 
ATOM     26  C   UNL     1       0.975   8.986  21.945  0.00  0.00    +0.000 A 
ATOM     27  C   UNL     1       0.088   9.740  22.708  0.00  0.00    +0.000 A 
ATOM     28  C   UNL     1      -0.778  10.638  22.081  0.00  0.00    +0.000 A 
ENDBRANCH  22  23
ENDBRANCH   1  22
TORSDOF 4
ENDMDL
MODEL 3
REMARK VINA RESULT:      -7.0      9.904     13.117
REMARK  Name = 
REMARK  5 active torsions:
REMARK  status: ('A' for Active; 'I' for Inactive)
REMARK    1  A    between atoms: C_1  and  C_2
REMARK    2  A    between atoms: C_2  and  N_3
REMARK    3  A    between atoms: C_2  and  C_22
REMARK    4  A    between atoms: C_8  and  N_9
REMARK    5  A    between atoms: C_14  and  C_15
REMARK                            x       y       z     vdW  Elec       q    Type
REMARK                         _______ _______ _______ _____ _____    ______ ____
ROOT
ATOM      1  N   UNL     1      -1.531  12.553  20.495  0.00  0.00    +0.000 N 
ATOM      2  C   UNL     1      -2.433  13.216  21.285  0.00  0.00    +0.000 A 
ATOM      3  N   UNL     1      -2.056  14.451  21.640  0.00  0.00    +0.000 NA
ATOM      4  C   UNL     1      -2.971  15.229  22.232  0.00  0.00    +0.000 A 
ATOM      5  C   UNL     1      -4.237  14.801  22.525  0.00  0.00    +0.000 A 
ATOM      6  C   UNL     1      -4.495  13.479  22.238  0.00  0.00    +0.000 A 
ATOM      7  N   UNL     1      -3.605  12.667  21.630  0.00  0.00    +0.000 NA
ATOM      8  H   UNL     1      -0.635  12.500  20.959  0.00  0.00    +0.000 HD
ENDROOT
BRANCH   6   9
ATOM      9  N   UNL     1      -5.701  12.935  22.688  0.00  0.00    +0.000 N 
ATOM     10  C   UNL     1      -5.864  12.292  23.884  0.00  0.00    +0.000 C 
ATOM     11  O   UNL     1      -5.012  12.063  24.726  0.00  0.00    +0.000 OA
ATOM     12  O   UNL     1      -7.175  11.935  24.041  0.00  0.00    +0.000 OA
ATOM     13  C   UNL     1      -7.885  12.227  22.829  0.00  0.00    +0.000 C 
ATOM     14  C   UNL     1      -6.926  13.035  21.956  0.00  0.00    +0.000 C 
BRANCH  14  15
ATOM     15  C   UNL     1      -6.823  12.453  20.556  0.00  0.00    +0.000 A 
ATOM     16  C   UNL     1      -6.565  13.282  19.459  0.00  0.00    +0.000 A 
ATOM     17  C   UNL     1      -6.465  12.713  18.199  0.00  0.00    +0.000 A 
ATOM     18  N   UNL     1      -6.602  11.391  17.953  0.00  0.00    +0.000 NA
ATOM     19  C   UNL     1      -6.842  10.601  19.018  0.00  0.00    +0.000 A 
ATOM     20  C   UNL     1      -6.963  11.076  20.315  0.00  0.00    +0.000 A 
ENDBRANCH  14  15
ENDBRANCH   6   9
BRANCH   1  22
ATOM     21  C   UNL     1      -2.312  11.951  18.253  0.00  0.00    +0.000 C 
ATOM     22  C   UNL     1      -1.911  11.443  19.645  0.00  0.00    +0.000 C 
BRANCH  22  23
ATOM     23  C   UNL     1      -0.703  10.516  19.527  0.00  0.00    +0.000 A 
ATOM     24  C   UNL     1      -0.167   9.905  20.668  0.00  0.00    +0.000 A 
ATOM     25  C   UNL     1       0.955   9.074  20.565  0.00  0.00    +0.000 A 
ATOM     26  C   UNL     1       1.551   8.844  19.328  0.00  0.00    +0.000 A 
ATOM     27  C   UNL     1       1.025   9.437  18.183  0.00  0.00    +0.000 A 
ATOM     28  C   UNL     1      -0.095  10.266  18.283  0.00  0.00    +0.000 A 
ENDBRANCH  22  23
ENDBRANCH   1  22
TORSDOF 4
ENDMDL
MODEL 4
REMARK VINA RESULT:      -6.9      4.162      8.659
REMARK  Name = 
REMARK  5 active torsions:
REMARK  status: ('A' for Active; 'I' for Inactive)
REMARK    1  A    between atoms: C_1  and  C_2
REMARK    2  A    between atoms: C_2  and  N_3
REMARK    3  A    between atoms: C_2  and  C_22
REMARK    4  A    between atoms: C_8  and  N_9
REMARK    5  A    between atoms: C_14  and  C_15
REMARK                            x       y       z     vdW  Elec       q    Type
REMARK                         _______ _______ _______ _____ _____    ______ ____
ROOT
ATOM      1  N   UNL     1       1.101   9.066  19.695  0.00  0.00    +0.000 N 
ATOM      2  C   UNL     1       1.897   8.180  19.018  0.00  0.00    +0.000 A 
ATOM      3  N   UNL     1       2.568   8.712  17.989  0.00  0.00    +0.000 NA
ATOM      4  C   UNL     1       3.518   7.961  17.418  0.00  0.00    +0.000 A 
ATOM      5  C   UNL     1       3.789   6.678  17.806  0.00  0.00    +0.000 A 
ATOM      6  C   UNL     1       2.964   6.171  18.787  0.00  0.00    +0.000 A 
ATOM      7  N   UNL     1       2.006   6.899  19.396  0.00  0.00    +0.000 NA
ATOM      8  H   UNL     1       0.441   9.495  19.062  0.00  0.00    +0.000 HD
ENDROOT
BRANCH   6   9
ATOM      9  N   UNL     1       3.067   4.810  19.089  0.00  0.00    +0.000 N 
ATOM     10  C   UNL     1       2.717   4.253  20.288  0.00  0.00    +0.000 C 
ATOM     11  O   UNL     1       2.293   4.826  21.277  0.00  0.00    +0.000 OA
ATOM     12  O   UNL     1       2.887   2.897  20.234  0.00  0.00    +0.000 OA
ATOM     13  C   UNL     1       3.517   2.557  18.990  0.00  0.00    +0.000 C 
ATOM     14  C   UNL     1       3.515   3.831  18.147  0.00  0.00    +0.000 C 
BRANCH  14  15
ATOM     15  C   UNL     1       4.897   4.136  17.595  0.00  0.00    +0.000 A 
ATOM     16  C   UNL     1       5.128   4.134  16.215  0.00  0.00    +0.000 A 
ATOM     17  C   UNL     1       6.399   4.430  15.748  0.00  0.00    +0.000 A 
ATOM     18  N   UNL     1       7.449   4.723  16.548  0.00  0.00    +0.000 NA
ATOM     19  C   UNL     1       7.214   4.729  17.874  0.00  0.00    +0.000 A 
ATOM     20  C   UNL     1       5.979   4.443  18.437  0.00  0.00    +0.000 A 
ENDBRANCH  14  15
ENDBRANCH   6   9
BRANCH   1  22
ATOM     21  C   UNL     1       1.877   8.796  22.003  0.00  0.00    +0.000 C 
ATOM     22  C   UNL     1       0.668   8.837  21.058  0.00  0.00    +0.000 C 
BRANCH  22  23
ATOM     23  C   UNL     1      -0.252   9.991  21.451  0.00  0.00    +0.000 A 
ATOM     24  C   UNL     1      -0.698  10.901  20.483  0.00  0.00    +0.000 A 
ATOM     25  C   UNL     1      -1.522  11.973  20.845  0.00  0.00    +0.000 A 
ATOM     26  C   UNL     1      -1.909  12.148  22.172  0.00  0.00    +0.000 A 
ATOM     27  C   UNL     1      -1.482  11.248  23.144  0.00  0.00    +0.000 A 
ATOM     28  C   UNL     1      -0.661  10.176  22.785  0.00  0.00    +0.000 A 
ENDBRANCH  22  23
ENDBRANCH   1  22
TORSDOF 4
ENDMDL
MODEL 5
REMARK VINA RESULT:      -6.8      4.184      8.661
REMARK  Name = 
REMARK  5 active torsions:
REMARK  status: ('A' for Active; 'I' for Inactive)
REMARK    1  A    between atoms: C_1  and  C_2
REMARK    2  A    between atoms: C_2  and  N_3
REMARK    3  A    between atoms: C_2  and  C_22
REMARK    4  A    between atoms: C_8  and  N_9
REMARK    5  A    between atoms: C_14  and  C_15
REMARK                            x       y       z     vdW  Elec       q    Type
REMARK                         _______ _______ _______ _____ _____    ______ ____
ROOT
ATOM      1  N   UNL     1       1.057   9.136  19.650  0.00  0.00    +0.000 N 
ATOM      2  C   UNL     1       1.860   8.250  18.983  0.00  0.00    +0.000 A 
ATOM      3  N   UNL     1       2.539   8.780  17.958  0.00  0.00    +0.000 NA
ATOM      4  C   UNL     1       3.495   8.029  17.397  0.00  0.00    +0.000 A 
ATOM      5  C   UNL     1       3.765   6.748  17.791  0.00  0.00    +0.000 A 
ATOM      6  C   UNL     1       2.933   6.242  18.765  0.00  0.00    +0.000 A 
ATOM      7  N   UNL     1       1.969   6.970  19.365  0.00  0.00    +0.000 NA
ATOM      8  H   UNL     1       0.401   9.562  19.010  0.00  0.00    +0.000 HD
ENDROOT
BRANCH   6   9
ATOM      9  N   UNL     1       3.036   4.882  19.072  0.00  0.00    +0.000 N 
ATOM     10  C   UNL     1       2.688   4.329  20.274  0.00  0.00    +0.000 C 
ATOM     11  O   UNL     1       2.266   4.906  21.262  0.00  0.00    +0.000 OA
ATOM     12  O   UNL     1       2.858   2.973  20.224  0.00  0.00    +0.000 OA
ATOM     13  C   UNL     1       3.485   2.629  18.980  0.00  0.00    +0.000 C 
ATOM     14  C   UNL     1       3.482   3.900  18.133  0.00  0.00    +0.000 C 
BRANCH  14  15
ATOM     15  C   UNL     1       4.863   4.202  17.576  0.00  0.00    +0.000 A 
ATOM     16  C   UNL     1       5.927   4.496  18.436  0.00  0.00    +0.000 A 
ATOM     17  C   UNL     1       7.176   4.753  17.891  0.00  0.00    +0.000 A 
ATOM     18  N   UNL     1       7.439   4.741  16.565  0.00  0.00    +0.000 NA
ATOM     19  C   UNL     1       6.409   4.449  15.747  0.00  0.00    +0.000 A 
ATOM     20  C   UNL     1       5.125   4.181  16.196  0.00  0.00    +0.000 A 
ENDBRANCH  14  15
ENDBRANCH   6   9
BRANCH   1  22
ATOM     21  C   UNL     1       1.816   8.836  21.960  0.00  0.00    +0.000 C 
ATOM     22  C   UNL     1       0.612   8.910  21.011  0.00  0.00    +0.000 C 
BRANCH  22  23
ATOM     23  C   UNL     1      -0.283  10.082  21.406  0.00  0.00    +0.000 A 
ATOM     24  C   UNL     1      -0.672  10.256  22.741  0.00  0.00    +0.000 A 
ATOM     25  C   UNL     1      -1.513  11.316  23.101  0.00  0.00    +0.000 A 
ATOM     26  C   UNL     1      -1.973  12.210  22.137  0.00  0.00    +0.000 A 
ATOM     27  C   UNL     1      -1.588  12.056  20.808  0.00  0.00    +0.000 A 
ATOM     28  C   UNL     1      -0.748  11.000  20.446  0.00  0.00    +0.000 A 
ENDBRANCH  22  23
ENDBRANCH   1  22
TORSDOF 4
ENDMDL
MODEL 6
REMARK VINA RESULT:      -6.8      9.303     12.424
REMARK  Name = 
REMARK  5 active torsions:
REMARK  status: ('A' for Active; 'I' for Inactive)
REMARK    1  A    between atoms: C_1  and  C_2
REMARK    2  A    between atoms: C_2  and  N_3
REMARK    3  A    between atoms: C_2  and  C_22
REMARK    4  A    between atoms: C_8  and  N_9
REMARK    5  A    between atoms: C_14  and  C_15
REMARK                            x       y       z     vdW  Elec       q    Type
REMARK                         _______ _______ _______ _____ _____    ______ ____
ROOT
ATOM      1  N   UNL     1      -0.761  12.179  19.569  0.00  0.00    +0.000 N 
ATOM      2  C   UNL     1      -1.555  13.051  20.266  0.00  0.00    +0.000 A 
ATOM      3  N   UNL     1      -1.164  14.330  20.199  0.00  0.00    +0.000 NA
ATOM      4  C   UNL     1      -2.004  15.257  20.678  0.00  0.00    +0.000 A 
ATOM      5  C   UNL     1      -3.200  14.949  21.265  0.00  0.00    +0.000 A 
ATOM      6  C   UNL     1      -3.460  13.603  21.403  0.00  0.00    +0.000 A 
ATOM      7  N   UNL     1      -2.648  12.640  20.923  0.00  0.00    +0.000 NA
ATOM      8  H   UNL     1       0.194  12.245  19.890  0.00  0.00    +0.000 HD
ENDROOT
BRANCH   6   9
ATOM      9  N   UNL     1      -4.572  13.227  22.163  0.00  0.00    +0.000 N 
ATOM     10  C   UNL     1      -4.506  12.656  23.404  0.00  0.00    +0.000 C 
ATOM     11  O   UNL     1      -3.505  12.361  24.033  0.00  0.00    +0.000 OA
ATOM     12  O   UNL     1      -5.770  12.466  23.891  0.00  0.00    +0.000 OA
ATOM     13  C   UNL     1      -6.718  12.793  22.865  0.00  0.00    +0.000 C 
ATOM     14  C   UNL     1      -5.921  13.444  21.737  0.00  0.00    +0.000 C 
BRANCH  14  15
ATOM     15  C   UNL     1      -6.224  12.799  20.395  0.00  0.00    +0.000 A 
ATOM     16  C   UNL     1      -6.582  11.448  20.320  0.00  0.00    +0.000 A 
ATOM     17  C   UNL     1      -6.864  10.898  19.080  0.00  0.00    +0.000 A 
ATOM     18  N   UNL     1      -6.816  11.588  17.918  0.00  0.00    +0.000 NA
ATOM     19  C   UNL     1      -6.478  12.890  18.003  0.00  0.00    +0.000 A 
ATOM     20  C   UNL     1      -6.175  13.528  19.196  0.00  0.00    +0.000 A 
ENDBRANCH  14  15
ENDBRANCH   6   9
BRANCH   1  22
ATOM     21  C   UNL     1      -1.814  10.973  17.715  0.00  0.00    +0.000 C 
ATOM     22  C   UNL     1      -1.231  10.880  19.132  0.00  0.00    +0.000 C 
BRANCH  22  23
ATOM     23  C   UNL     1      -0.036   9.930  19.136  0.00  0.00    +0.000 A 
ATOM     24  C   UNL     1       0.637   9.636  17.942  0.00  0.00    +0.000 A 
ATOM     25  C   UNL     1       1.718   8.746  17.939  0.00  0.00    +0.000 A 
ATOM     26  C   UNL     1       2.138   8.143  19.122  0.00  0.00    +0.000 A 
ATOM     27  C   UNL     1       1.485   8.432  20.318  0.00  0.00    +0.000 A 
ATOM     28  C   UNL     1       0.407   9.320  20.323  0.00  0.00    +0.000 A 
ENDBRANCH  22  23
ENDBRANCH   1  22
TORSDOF 4
ENDMDL
MODEL 7
REMARK VINA RESULT:      -6.6      5.246      8.246
REMARK  Name = 
REMARK  5 active torsions:
REMARK  status: ('A' for Active; 'I' for Inactive)
REMARK    1  A    between atoms: C_1  and  C_2
REMARK    2  A    between atoms: C_2  and  N_3
REMARK    3  A    between atoms: C_2  and  C_22
REMARK    4  A    between atoms: C_8  and  N_9
REMARK    5  A    between atoms: C_14  and  C_15
REMARK                            x       y       z     vdW  Elec       q    Type
REMARK                         _______ _______ _______ _____ _____    ______ ____
ROOT
ATOM      1  N   UNL     1       2.084   7.029  19.676  0.00  0.00    +0.000 N 
ATOM      2  C   UNL     1       1.495   8.151  20.197  0.00  0.00    +0.000 A 
ATOM      3  N   UNL     1       1.619   8.277  21.523  0.00  0.00    +0.000 NA
ATOM      4  C   UNL     1       1.255   9.444  22.069  0.00  0.00    +0.000 A 
ATOM      5  C   UNL     1       0.725  10.474  21.342  0.00  0.00    +0.000 A 
ATOM      6  C   UNL     1       0.517  10.208  20.006  0.00  0.00    +0.000 A 
ATOM      7  N   UNL     1       0.883   9.052  19.417  0.00  0.00    +0.000 NA
ATOM      8  H   UNL     1       1.709   6.201  20.119  0.00  0.00    +0.000 HD
ENDROOT
BRANCH   6   9
ATOM      9  N   UNL     1      -0.195  11.149  19.256  0.00  0.00    +0.000 N 
ATOM     10  C   UNL     1      -1.025  10.842  18.213  0.00  0.00    +0.000 C 
ATOM     11  O   UNL     1      -1.263   9.737  17.754  0.00  0.00    +0.000 OA
ATOM     12  O   UNL     1      -1.607  11.984  17.735  0.00  0.00    +0.000 OA
ATOM     13  C   UNL     1      -1.023  13.115  18.397  0.00  0.00    +0.000 C 
ATOM     14  C   UNL     1      -0.166  12.553  19.530  0.00  0.00    +0.000 C 
BRANCH  14  15
ATOM     15  C   UNL     1       1.240  13.128  19.503  0.00  0.00    +0.000 A 
ATOM     16  C   UNL     1       1.975  13.153  18.313  0.00  0.00    +0.000 A 
ATOM     17  C   UNL     1       3.250  13.699  18.326  0.00  0.00    +0.000 A 
ATOM     18  N   UNL     1       3.841  14.215  19.427  0.00  0.00    +0.000 NA
ATOM     19  C   UNL     1       3.120  14.193  20.565  0.00  0.00    +0.000 A 
ATOM     20  C   UNL     1       1.841  13.666  20.654  0.00  0.00    +0.000 A 
ENDBRANCH  14  15
ENDBRANCH   6   9
BRANCH   1  22
ATOM     21  C   UNL     1       3.777   7.683  18.031  0.00  0.00    +0.000 C 
ATOM     22  C   UNL     1       2.465   6.926  18.282  0.00  0.00    +0.000 C 
BRANCH  22  23
ATOM     23  C   UNL     1       2.657   5.446  17.962  0.00  0.00    +0.000 A 
ATOM     24  C   UNL     1       1.658   4.517  18.285  0.00  0.00    +0.000 A 
ATOM     25  C   UNL     1       1.842   3.156  18.015  0.00  0.00    +0.000 A 
ATOM     26  C   UNL     1       3.019   2.708  17.421  0.00  0.00    +0.000 A 
ATOM     27  C   UNL     1       4.017   3.619  17.086  0.00  0.00    +0.000 A 
ATOM     28  C   UNL     1       3.836   4.977  17.354  0.00  0.00    +0.000 A 
ENDBRANCH  22  23
ENDBRANCH   1  22
TORSDOF 4
ENDMDL
MODEL 8
REMARK VINA RESULT:      -6.6     10.410     13.439
REMARK  Name = 
REMARK  5 active torsions:
REMARK  status: ('A' for Active; 'I' for Inactive)
REMARK    1  A    between atoms: C_1  and  C_2
REMARK    2  A    between atoms: C_2  and  N_3
REMARK    3  A    between atoms: C_2  and  C_22
REMARK    4  A    between atoms: C_8  and  N_9
REMARK    5  A    between atoms: C_14  and  C_15
REMARK                            x       y       z     vdW  Elec       q    Type
REMARK                         _______ _______ _______ _____ _____    ______ ____
ROOT
ATOM      1  N   UNL     1      -1.747  12.037  21.234  0.00  0.00    +0.000 N 
ATOM      2  C   UNL     1      -2.864  12.353  21.963  0.00  0.00    +0.000 A 
ATOM      3  N   UNL     1      -2.780  12.050  23.264  0.00  0.00    +0.000 NA
ATOM      4  C   UNL     1      -3.743  12.518  24.069  0.00  0.00    +0.000 A 
ATOM      5  C   UNL     1      -4.812  13.238  23.613  0.00  0.00    +0.000 A 
ATOM      6  C   UNL     1      -4.880  13.393  22.246  0.00  0.00    +0.000 A 
ATOM      7  N   UNL     1      -3.925  12.949  21.403  0.00  0.00    +0.000 NA
ATOM      8  H   UNL     1      -1.537  11.054  21.328  0.00  0.00    +0.000 HD
ENDROOT
BRANCH   6   9
ATOM      9  N   UNL     1      -6.044  13.951  21.708  0.00  0.00    +0.000 N 
ATOM     10  C   UNL     1      -6.709  15.021  22.241  0.00  0.00    +0.000 C 
ATOM     11  O   UNL     1      -6.431  15.638  23.255  0.00  0.00    +0.000 OA
ATOM     12  O   UNL     1      -7.770  15.349  21.442  0.00  0.00    +0.000 OA
ATOM     13  C   UNL     1      -7.898  14.359  20.411  0.00  0.00    +0.000 C 
ATOM     14  C   UNL     1      -6.649  13.485  20.498  0.00  0.00    +0.000 C 
BRANCH  14  15
ATOM     15  C   UNL     1      -7.003  12.009  20.549  0.00  0.00    +0.000 A 
ATOM     16  C   UNL     1      -6.700  11.167  19.474  0.00  0.00    +0.000 A 
ATOM     17  C   UNL     1      -7.027   9.823  19.563  0.00  0.00    +0.000 A 
ATOM     18  N   UNL     1      -7.631   9.261  20.634  0.00  0.00    +0.000 NA
ATOM     19  C   UNL     1      -7.912  10.079  21.667  0.00  0.00    +0.000 A 
ATOM     20  C   UNL     1      -7.627  11.436  21.670  0.00  0.00    +0.000 A 
ENDBRANCH  14  15
ENDBRANCH   6   9
BRANCH   1  22
ATOM     21  C   UNL     1       0.055  13.003  19.884  0.00  0.00    +0.000 C 
ATOM     22  C   UNL     1      -1.442  12.669  19.967  0.00  0.00    +0.000 C 
BRANCH  22  23
ATOM     23  C   UNL     1      -1.811  11.686  18.858  0.00  0.00    +0.000 A 
ATOM     24  C   UNL     1      -0.870  10.757  18.395  0.00  0.00    +0.000 A 
ATOM     25  C   UNL     1      -1.198   9.870  17.362  0.00  0.00    +0.000 A 
ATOM     26  C   UNL     1      -2.465   9.901  16.783  0.00  0.00    +0.000 A 
ATOM     27  C   UNL     1      -3.413  10.813  17.238  0.00  0.00    +0.000 A 
ATOM     28  C   UNL     1      -3.088  11.697  18.269  0.00  0.00    +0.000 A 
ENDBRANCH  22  23
ENDBRANCH   1  22
TORSDOF 4
ENDMDL
MODEL 9
REMARK VINA RESULT:      -6.6      7.201     10.644
REMARK  Name = 
REMARK  5 active torsions:
REMARK  status: ('A' for Active; 'I' for Inactive)
REMARK    1  A    between atoms: C_1  and  C_2
REMARK    2  A    between atoms: C_2  and  N_3
REMARK    3  A    between atoms: C_2  and  C_22
REMARK    4  A    between atoms: C_8  and  N_9
REMARK    5  A    between atoms: C_14  and  C_15
REMARK                            x       y       z     vdW  Elec       q    Type
REMARK                         _______ _______ _______ _____ _____    ______ ____
ROOT
ATOM      1  N   UNL     1       0.723   9.697  19.207  0.00  0.00    +0.000 N 
ATOM      2  C   UNL     1       0.421  11.032  19.238  0.00  0.00    +0.000 A 
ATOM      3  N   UNL     1      -0.453  11.425  18.304  0.00  0.00    +0.000 NA
ATOM      4  C   UNL     1      -0.951  12.664  18.406  0.00  0.00    +0.000 A 
ATOM      5  C   UNL     1      -0.570  13.543  19.382  0.00  0.00    +0.000 A 
ATOM      6  C   UNL     1       0.427  13.096  20.223  0.00  0.00    +0.000 A 
ATOM      7  N   UNL     1       0.943  11.852  20.161  0.00  0.00    +0.000 NA
ATOM      8  H   UNL     1       1.081   9.442  18.297  0.00  0.00    +0.000 HD
ENDROOT
BRANCH   6   9
ATOM      9  N   UNL     1       0.990  14.013  21.115  0.00  0.00    +0.000 N 
ATOM     10  C   UNL     1       0.348  14.526  22.208  0.00  0.00    +0.000 C 
ATOM     11  O   UNL     1      -0.795  14.303  22.571  0.00  0.00    +0.000 OA
ATOM     12  O   UNL     1       1.197  15.348  22.898  0.00  0.00    +0.000 OA
ATOM     13  C   UNL     1       2.409  15.500  22.146  0.00  0.00    +0.000 C 
ATOM     14  C   UNL     1       2.335  14.488  21.004  0.00  0.00    +0.000 C 
BRANCH  14  15
ATOM     15  C   UNL     1       2.620  15.140  19.662  0.00  0.00    +0.000 A 
ATOM     16  C   UNL     1       1.970  16.323  19.293  0.00  0.00    +0.000 A 
ATOM     17  C   UNL     1       2.266  16.895  18.066  0.00  0.00    +0.000 A 
ATOM     18  N   UNL     1       3.153  16.379  17.186  0.00  0.00    +0.000 NA
ATOM     19  C   UNL     1       3.779  15.244  17.554  0.00  0.00    +0.000 A 
ATOM     20  C   UNL     1       3.548  14.596  18.757  0.00  0.00    +0.000 A 
ENDBRANCH  14  15
ENDBRANCH   6   9
BRANCH   1  22
ATOM     21  C   UNL     1       0.131   8.672  21.352  0.00  0.00    +0.000 C 
ATOM     22  C   UNL     1       1.255   8.993  20.356  0.00  0.00    +0.000 C 
BRANCH  22  23
ATOM     23  C   UNL     1       1.882   7.694  19.854  0.00  0.00    +0.000 A 
ATOM     24  C   UNL     1       2.539   7.659  18.616  0.00  0.00    +0.000 A 
ATOM     25  C   UNL     1       3.093   6.463  18.143  0.00  0.00    +0.000 A 
ATOM     26  C   UNL     1       3.000   5.296  18.896  0.00  0.00    +0.000 A 
ATOM     27  C   UNL     1       2.358   5.317  20.132  0.00  0.00    +0.000 A 
ATOM     28  C   UNL     1       1.805   6.508  20.607  0.00  0.00    +0.000 A 
ENDBRANCH  22  23
ENDBRANCH   1  22
TORSDOF 4
ENDMDL
