MODEL 1
REMARK VINA RESULT:      -8.5      0.000      0.000
REMARK  Name = 
REMARK  7 active torsions:
REMARK  status: ('A' for Active; 'I' for Inactive)
REMARK    1  A    between atoms: C_1  and  C_2
REMARK    2  A    between atoms: C_5  and  C_6
REMARK    3  A    between atoms: C_12  and  C_13
REMARK    4  A    between atoms: N_15  and  N_16
REMARK    5  A    between atoms: N_16  and  C_17
REMARK    6  A    between atoms: C_17  and  N_19
REMARK    7  A    between atoms: C_20  and  C_22
REMARK                            x       y       z     vdW  Elec       q    Type
REMARK                         _______ _______ _______ _____ _____    ______ ____
ROOT
ATOM      1  C   UNL     1       2.452   6.013  19.160  0.00  0.00    +0.000 C 
ATOM      2  O   UNL     1       1.944   6.153  18.051  0.00  0.00    +0.000 OA
ATOM      3  N   UNL     1       2.378   7.004  20.125  0.00  0.00    +0.000 N 
ATOM      4  H   UNL     1       2.918   6.974  20.983  0.00  0.00    +0.000 HD
ENDROOT
BRANCH   1  10
ATOM      5  C   UNL     1       1.399   3.237  20.685  0.00  0.00    +0.000 C 
ATOM      6  C   UNL     1       2.707   3.685  20.163  0.00  0.00    +0.000 A 
ATOM      7  O   UNL     1       3.701   2.769  20.271  0.00  0.00    +0.000 OA
ATOM      8  N   UNL     1       4.861   3.276  19.747  0.00  0.00    +0.000 NA
ATOM      9  C   UNL     1       4.583   4.519  19.317  0.00  0.00    +0.000 A 
ATOM     10  C   UNL     1       3.193   4.821  19.540  0.00  0.00    +0.000 A 
BRANCH   9  11
ATOM     11  C   UNL     1       5.662   5.348  18.765  0.00  0.00    +0.000 A 
ATOM     12  C   UNL     1       6.907   5.413  19.414  0.00  0.00    +0.000 A 
ATOM     13  C   UNL     1       7.934   6.219  18.913  0.00  0.00    +0.000 A 
ATOM     14  C   UNL     1       7.730   6.970  17.758  0.00  0.00    +0.000 A 
ATOM     15  C   UNL     1       6.496   6.928  17.114  0.00  0.00    +0.000 A 
ATOM     16  C   UNL     1       5.466   6.132  17.621  0.00  0.00    +0.000 A 
ENDBRANCH   9  11
ENDBRANCH   1  10
BRANCH   3  17
ATOM     17  N   UNL     1       1.785   8.237  19.806  0.00  0.00    +0.000 N 
ATOM     18  H   UNL     1       1.970   8.618  18.867  0.00  0.00    +0.000 HD
BRANCH  17  19
ATOM     19  C   UNL     1       0.961   8.896  20.682  0.00  0.00    +0.000 C 
ATOM     20  S   UNL     1       1.292   9.130  22.309  0.00  0.00    +0.000 S 
BRANCH  19  21
ATOM     21  N   UNL     1      -0.213   9.406  20.172  0.00  0.00    +0.000 N 
ATOM     22  C   UNL     1      -0.355  10.443  19.261  0.00  0.00    +0.000 C 
ATOM     23  O   UNL     1       0.600  11.046  18.773  0.00  0.00    +0.000 OA
ATOM     24  H   UNL     1      -1.042   8.993  20.576  0.00  0.00    +0.000 HD
BRANCH  22  25
ATOM     25  C   UNL     1      -1.744  10.859  18.907  0.00  0.00    +0.000 A 
ATOM     26  C   UNL     1      -2.410  10.108  17.926  0.00  0.00    +0.000 A 
ATOM     27  C   UNL     1      -3.706  10.441  17.530  0.00  0.00    +0.000 A 
ATOM     28  C   UNL     1      -4.349  11.523  18.125  0.00  0.00    +0.000 A 
ATOM     29 BR   UNL     1      -6.100  11.985  17.582  0.00  0.00    +0.000 Br
ATOM     30  C   UNL     1      -3.710  12.265  19.119  0.00  0.00    +0.000 A 
ATOM     31  C   UNL     1      -2.406  11.934  19.515  0.00  0.00    +0.000 A 
ENDBRANCH  22  25
ENDBRANCH  19  21
ENDBRANCH  17  19
ENDBRANCH   3  17
TORSDOF 6
ENDMDL
MODEL 2
REMARK VINA RESULT:      -8.5      0.099      1.294
REMARK  Name = 
REMARK  7 active torsions:
REMARK  status: ('A' for Active; 'I' for Inactive)
REMARK    1  A    between atoms: C_1  and  C_2
REMARK    2  A    between atoms: C_5  and  C_6
REMARK    3  A    between atoms: C_12  and  C_13
REMARK    4  A    between atoms: N_15  and  N_16
REMARK    5  A    between atoms: N_16  and  C_17
REMARK    6  A    between atoms: C_17  and  N_19
REMARK    7  A    between atoms: C_20  and  C_22
REMARK                            x       y       z     vdW  Elec       q    Type
REMARK                         _______ _______ _______ _____ _____    ______ ____
ROOT
ATOM      1  C   UNL     1       2.464   6.050  19.169  0.00  0.00    +0.000 C 
ATOM      2  O   UNL     1       1.939   6.195  18.068  0.00  0.00    +0.000 OA
ATOM      3  N   UNL     1       2.424   7.046  20.131  0.00  0.00    +0.000 N 
ATOM      4  H   UNL     1       2.978   7.010  20.979  0.00  0.00    +0.000 HD
ENDROOT
BRANCH   1  10
ATOM      5  C   UNL     1       1.362   3.260  20.633  0.00  0.00    +0.000 C 
ATOM      6  C   UNL     1       2.682   3.705  20.140  0.00  0.00    +0.000 A 
ATOM      7  O   UNL     1       3.666   2.779  20.250  0.00  0.00    +0.000 OA
ATOM      8  N   UNL     1       4.839   3.283  19.753  0.00  0.00    +0.000 NA
ATOM      9  C   UNL     1       4.578   4.535  19.338  0.00  0.00    +0.000 A 
ATOM     10  C   UNL     1       3.188   4.846  19.542  0.00  0.00    +0.000 A 
BRANCH   9  11
ATOM     11  C   UNL     1       5.674   5.363  18.817  0.00  0.00    +0.000 A 
ATOM     12  C   UNL     1       5.513   6.074  17.615  0.00  0.00    +0.000 A 
ATOM     13  C   UNL     1       6.558   6.845  17.094  0.00  0.00    +0.000 A 
ATOM     14  C   UNL     1       7.774   6.915  17.768  0.00  0.00    +0.000 A 
ATOM     15  C   UNL     1       7.953   6.202  18.951  0.00  0.00    +0.000 A 
ATOM     16  C   UNL     1       6.914   5.422  19.465  0.00  0.00    +0.000 A 
ENDBRANCH   9  11
ENDBRANCH   1  10
BRANCH   3  17
ATOM     17  N   UNL     1       1.850   8.289  19.815  0.00  0.00    +0.000 N 
ATOM     18  H   UNL     1       2.100   8.705  18.908  0.00  0.00    +0.000 HD
BRANCH  17  19
ATOM     19  C   UNL     1       0.960   8.913  20.653  0.00  0.00    +0.000 C 
ATOM     20  S   UNL     1       1.210   9.165  22.291  0.00  0.00    +0.000 S 
BRANCH  19  21
ATOM     21  N   UNL     1      -0.212   9.368  20.091  0.00  0.00    +0.000 N 
ATOM     22  C   UNL     1      -0.358  10.369  19.142  0.00  0.00    +0.000 C 
ATOM     23  O   UNL     1       0.592  10.986  18.662  0.00  0.00    +0.000 OA
ATOM     24  H   UNL     1      -1.041   8.943  20.484  0.00  0.00    +0.000 HD
BRANCH  22  25
ATOM     25  C   UNL     1      -1.748  10.730  18.733  0.00  0.00    +0.000 A 
ATOM     26  C   UNL     1      -2.357  11.802  19.403  0.00  0.00    +0.000 A 
ATOM     27  C   UNL     1      -3.660  12.192  19.089  0.00  0.00    +0.000 A 
ATOM     28  C   UNL     1      -4.357  11.517  18.091  0.00  0.00    +0.000 A 
ATOM     29 BR   UNL     1      -6.126  12.034  17.671  0.00  0.00    +0.000 Br
ATOM     30  C   UNL     1      -3.757  10.463  17.399  0.00  0.00    +0.000 A 
ATOM     31  C   UNL     1      -2.450  10.068  17.716  0.00  0.00    +0.000 A 
ENDBRANCH  22  25
ENDBRANCH  19  21
ENDBRANCH  17  19
ENDBRANCH   3  17
TORSDOF 6
ENDMDL
MODEL 3
REMARK VINA RESULT:      -8.3      0.512      1.042
REMARK  Name = 
REMARK  7 active torsions:
REMARK  status: ('A' for Active; 'I' for Inactive)
REMARK    1  A    between atoms: C_1  and  C_2
REMARK    2  A    between atoms: C_5  and  C_6
REMARK    3  A    between atoms: C_12  and  C_13
REMARK    4  A    between atoms: N_15  and  N_16
REMARK    5  A    between atoms: N_16  and  C_17
REMARK    6  A    between atoms: C_17  and  N_19
REMARK    7  A    between atoms: C_20  and  C_22
REMARK                            x       y       z     vdW  Elec       q    Type
REMARK                         _______ _______ _______ _____ _____    ______ ____
ROOT
ATOM      1  C   UNL     1       2.417   6.654  19.196  0.00  0.00    +0.000 C 
ATOM      2  O   UNL     1       2.259   7.117  18.070  0.00  0.00    +0.000 OA
ATOM      3  N   UNL     1       2.094   7.376  20.332  0.00  0.00    +0.000 N 
ATOM      4  H   UNL     1       2.359   7.078  21.264  0.00  0.00    +0.000 HD
ENDROOT
BRANCH   1  10
ATOM      5  C   UNL     1       0.962   3.892  20.378  0.00  0.00    +0.000 C 
ATOM      6  C   UNL     1       2.328   4.210  19.913  0.00  0.00    +0.000 A 
ATOM      7  O   UNL     1       3.182   3.158  19.911  0.00  0.00    +0.000 OA
ATOM      8  N   UNL     1       4.410   3.555  19.452  0.00  0.00    +0.000 NA
ATOM      9  C   UNL     1       4.315   4.867  19.173  0.00  0.00    +0.000 A 
ATOM     10  C   UNL     1       2.978   5.332  19.430  0.00  0.00    +0.000 A 
BRANCH   9  11
ATOM     11  C   UNL     1       5.509   5.596  18.724  0.00  0.00    +0.000 A 
ATOM     12  C   UNL     1       5.449   6.417  17.586  0.00  0.00    +0.000 A 
ATOM     13  C   UNL     1       6.586   7.096  17.133  0.00  0.00    +0.000 A 
ATOM     14  C   UNL     1       7.794   6.962  17.811  0.00  0.00    +0.000 A 
ATOM     15  C   UNL     1       7.871   6.138  18.931  0.00  0.00    +0.000 A 
ATOM     16  C   UNL     1       6.739   5.450  19.377  0.00  0.00    +0.000 A 
ENDBRANCH   9  11
ENDBRANCH   1  10
BRANCH   3  17
ATOM     17  N   UNL     1       1.658   8.705  20.205  0.00  0.00    +0.000 N 
ATOM     18  H   UNL     1       2.064   9.262  19.439  0.00  0.00    +0.000 HD
BRANCH  17  19
ATOM     19  C   UNL     1       0.704   9.241  21.032  0.00  0.00    +0.000 C 
ATOM     20  S   UNL     1       0.844   9.355  22.699  0.00  0.00    +0.000 S 
BRANCH  19  21
ATOM     21  N   UNL     1      -0.440   9.724  20.436  0.00  0.00    +0.000 N 
ATOM     22  C   UNL     1      -0.569  10.236  19.153  0.00  0.00    +0.000 C 
ATOM     23  O   UNL     1       0.368  10.309  18.360  0.00  0.00    +0.000 OA
ATOM     24  H   UNL     1      -1.239   9.747  21.054  0.00  0.00    +0.000 HD
BRANCH  22  25
ATOM     25  C   UNL     1      -1.909  10.760  18.755  0.00  0.00    +0.000 A 
ATOM     26  C   UNL     1      -2.559  10.121  17.688  0.00  0.00    +0.000 A 
ATOM     27  C   UNL     1      -3.809  10.560  17.248  0.00  0.00    +0.000 A 
ATOM     28  C   UNL     1      -4.421  11.637  17.883  0.00  0.00    +0.000 A 
ATOM     29 BR   UNL     1      -6.108  12.242  17.282  0.00  0.00    +0.000 Br
ATOM     30  C   UNL     1      -3.799  12.269  18.961  0.00  0.00    +0.000 A 
ATOM     31  C   UNL     1      -2.542  11.831  19.402  0.00  0.00    +0.000 A 
ENDBRANCH  22  25
ENDBRANCH  19  21
ENDBRANCH  17  19
ENDBRANCH   3  17
TORSDOF 6
ENDMDL
MODEL 4
REMARK VINA RESULT:      -8.2      2.462      2.906
REMARK  Name = 
REMARK  7 active torsions:
REMARK  status: ('A' for Active; 'I' for Inactive)
REMARK    1  A    between atoms: C_1  and  C_2
REMARK    2  A    between atoms: C_5  and  C_6
REMARK    3  A    between atoms: C_12  and  C_13
REMARK    4  A    between atoms: N_15  and  N_16
REMARK    5  A    between atoms: N_16  and  C_17
REMARK    6  A    between atoms: C_17  and  N_19
REMARK    7  A    between atoms: C_20  and  C_22
REMARK                            x       y       z     vdW  Elec       q    Type
REMARK                         _______ _______ _______ _____ _____    ______ ____
ROOT
ATOM      1  C   UNL     1       2.458   5.625  19.867  0.00  0.00    +0.000 C 
ATOM      2  O   UNL     1       2.154   5.499  21.049  0.00  0.00    +0.000 OA
ATOM      3  N   UNL     1       2.365   6.845  19.217  0.00  0.00    +0.000 N 
ATOM      4  H   UNL     1       2.460   6.939  18.212  0.00  0.00    +0.000 HD
ENDROOT
BRANCH   1  10
ATOM      5  C   UNL     1       0.922   2.755  19.128  0.00  0.00    +0.000 C 
ATOM      6  C   UNL     1       2.228   3.341  18.761  0.00  0.00    +0.000 A 
ATOM      7  O   UNL     1       2.959   2.593  17.899  0.00  0.00    +0.000 OA
ATOM      8  N   UNL     1       4.138   3.230  17.612  0.00  0.00    +0.000 NA
ATOM      9  C   UNL     1       4.137   4.380  18.309  0.00  0.00    +0.000 A 
ATOM     10  C   UNL     1       2.909   4.511  19.048  0.00  0.00    +0.000 A 
BRANCH   9  11
ATOM     11  C   UNL     1       5.318   5.253  18.258  0.00  0.00    +0.000 A 
ATOM     12  C   UNL     1       5.396   6.282  17.305  0.00  0.00    +0.000 A 
ATOM     13  C   UNL     1       6.527   7.103  17.230  0.00  0.00    +0.000 A 
ATOM     14  C   UNL     1       7.591   6.905  18.106  0.00  0.00    +0.000 A 
ATOM     15  C   UNL     1       7.533   5.878  19.044  0.00  0.00    +0.000 A 
ATOM     16  C   UNL     1       6.409   5.051  19.112  0.00  0.00    +0.000 A 
ENDBRANCH   9  11
ENDBRANCH   1  10
BRANCH   3  17
ATOM     17  N   UNL     1       1.826   7.950  19.897  0.00  0.00    +0.000 N 
ATOM     18  H   UNL     1       1.764   7.886  20.923  0.00  0.00    +0.000 HD
BRANCH  17  19
ATOM     19  C   UNL     1       1.431   9.087  19.239  0.00  0.00    +0.000 C 
ATOM     20  S   UNL     1       2.023   9.580  17.750  0.00  0.00    +0.000 S 
BRANCH  19  21
ATOM     21  N   UNL     1       0.473   9.863  19.853  0.00  0.00    +0.000 N 
ATOM     22  C   UNL     1       0.504  10.376  21.142  0.00  0.00    +0.000 C 
ATOM     23  O   UNL     1       1.443  10.196  21.916  0.00  0.00    +0.000 OA
ATOM     24  H   UNL     1      -0.356  10.002  19.292  0.00  0.00    +0.000 HD
BRANCH  22  25
ATOM     25  C   UNL     1      -0.692  11.140  21.605  0.00  0.00    +0.000 A 
ATOM     26  C   UNL     1      -1.138  10.904  22.914  0.00  0.00    +0.000 A 
ATOM     27  C   UNL     1      -2.258  11.570  23.417  0.00  0.00    +0.000 A 
ATOM     28  C   UNL     1      -2.931  12.486  22.613  0.00  0.00    +0.000 A 
ATOM     29 BR   UNL     1      -4.455  13.379  23.286  0.00  0.00    +0.000 Br
ATOM     30  C   UNL     1      -2.485  12.749  21.316  0.00  0.00    +0.000 A 
ATOM     31  C   UNL     1      -1.363  12.079  20.809  0.00  0.00    +0.000 A 
ENDBRANCH  22  25
ENDBRANCH  19  21
ENDBRANCH  17  19
ENDBRANCH   3  17
TORSDOF 6
ENDMDL
MODEL 5
REMARK VINA RESULT:      -8.2      4.176      5.888
REMARK  Name = 
REMARK  7 active torsions:
REMARK  status: ('A' for Active; 'I' for Inactive)
REMARK    1  A    between atoms: C_1  and  C_2
REMARK    2  A    between atoms: C_5  and  C_6
REMARK    3  A    between atoms: C_12  and  C_13
REMARK    4  A    between atoms: N_15  and  N_16
REMARK    5  A    between atoms: N_16  and  C_17
REMARK    6  A    between atoms: C_17  and  N_19
REMARK    7  A    between atoms: C_20  and  C_22
REMARK                            x       y       z     vdW  Elec       q    Type
REMARK                         _______ _______ _______ _____ _____    ______ ____
ROOT
ATOM      1  C   UNL     1       4.722   3.960  16.162  0.00  0.00    +0.000 C 
ATOM      2  O   UNL     1       3.675   4.589  16.284  0.00  0.00    +0.000 OA
ATOM      3  N   UNL     1       4.972   2.812  16.894  0.00  0.00    +0.000 N 
ATOM      4  H   UNL     1       5.883   2.368  16.924  0.00  0.00    +0.000 HD
ENDROOT
BRANCH   1  10
ATOM      5  C   UNL     1       5.174   3.321  12.917  0.00  0.00    +0.000 C 
ATOM      6  C   UNL     1       5.929   4.097  13.922  0.00  0.00    +0.000 A 
ATOM      7  O   UNL     1       7.019   4.740  13.435  0.00  0.00    +0.000 OA
ATOM      8  N   UNL     1       7.635   5.439  14.439  0.00  0.00    +0.000 NA
ATOM      9  C   UNL     1       6.922   5.222  15.558  0.00  0.00    +0.000 A 
ATOM     10  C   UNL     1       5.791   4.380  15.269  0.00  0.00    +0.000 A 
BRANCH   9  11
ATOM     11  C   UNL     1       7.387   5.792  16.829  0.00  0.00    +0.000 A 
ATOM     12  C   UNL     1       7.641   4.954  17.929  0.00  0.00    +0.000 A 
ATOM     13  C   UNL     1       8.059   5.487  19.153  0.00  0.00    +0.000 A 
ATOM     14  C   UNL     1       8.228   6.862  19.293  0.00  0.00    +0.000 A 
ATOM     15  C   UNL     1       7.964   7.705  18.216  0.00  0.00    +0.000 A 
ATOM     16  C   UNL     1       7.535   7.174  16.997  0.00  0.00    +0.000 A 
ENDBRANCH   9  11
ENDBRANCH   1  10
BRANCH   3  17
ATOM     17  N   UNL     1       4.047   2.398  17.867  0.00  0.00    +0.000 N 
ATOM     18  H   UNL     1       3.343   1.703  17.580  0.00  0.00    +0.000 HD
BRANCH  17  19
ATOM     19  C   UNL     1       4.092   2.860  19.157  0.00  0.00    +0.000 C 
ATOM     20  S   UNL     1       4.710   2.000  20.456  0.00  0.00    +0.000 S 
BRANCH  19  21
ATOM     21  N   UNL     1       3.600   4.127  19.384  0.00  0.00    +0.000 N 
ATOM     22  C   UNL     1       2.318   4.591  19.126  0.00  0.00    +0.000 C 
ATOM     23  O   UNL     1       1.430   3.886  18.651  0.00  0.00    +0.000 OA
ATOM     24  H   UNL     1       4.297   4.777  19.720  0.00  0.00    +0.000 HD
BRANCH  22  25
ATOM     25  C   UNL     1       2.043   6.032  19.400  0.00  0.00    +0.000 A 
ATOM     26  C   UNL     1       1.502   6.356  20.654  0.00  0.00    +0.000 A 
ATOM     27  C   UNL     1       1.204   7.679  20.983  0.00  0.00    +0.000 A 
ATOM     28  C   UNL     1       1.458   8.690  20.060  0.00  0.00    +0.000 A 
ATOM     29 BR   UNL     1       1.044  10.482  20.497  0.00  0.00    +0.000 Br
ATOM     30  C   UNL     1       2.018   8.388  18.818  0.00  0.00    +0.000 A 
ATOM     31  C   UNL     1       2.315   7.059  18.485  0.00  0.00    +0.000 A 
ENDBRANCH  22  25
ENDBRANCH  19  21
ENDBRANCH  17  19
ENDBRANCH   3  17
TORSDOF 6
ENDMDL
MODEL 6
REMARK VINA RESULT:      -8.2      1.271      1.832
REMARK  Name = 
REMARK  7 active torsions:
REMARK  status: ('A' for Active; 'I' for Inactive)
REMARK    1  A    between atoms: C_1  and  C_2
REMARK    2  A    between atoms: C_5  and  C_6
REMARK    3  A    between atoms: C_12  and  C_13
REMARK    4  A    between atoms: N_15  and  N_16
REMARK    5  A    between atoms: N_16  and  C_17
REMARK    6  A    between atoms: C_17  and  N_19
REMARK    7  A    between atoms: C_20  and  C_22
REMARK                            x       y       z     vdW  Elec       q    Type
REMARK                         _______ _______ _______ _____ _____    ______ ____
ROOT
ATOM      1  C   UNL     1       2.786   6.146  18.918  0.00  0.00    +0.000 C 
ATOM      2  O   UNL     1       3.138   6.765  17.917  0.00  0.00    +0.000 OA
ATOM      3  N   UNL     1       2.212   6.785  20.004  0.00  0.00    +0.000 N 
ATOM      4  H   UNL     1       2.059   6.323  20.894  0.00  0.00    +0.000 HD
ENDROOT
BRANCH   1  10
ATOM      5  C   UNL     1       1.068   3.941  20.743  0.00  0.00    +0.000 C 
ATOM      6  C   UNL     1       2.219   3.833  19.823  0.00  0.00    +0.000 A 
ATOM      7  O   UNL     1       2.662   2.567  19.621  0.00  0.00    +0.000 OA
ATOM      8  N   UNL     1       3.715   2.576  18.745  0.00  0.00    +0.000 NA
ATOM      9  C   UNL     1       3.929   3.859  18.407  0.00  0.00    +0.000 A 
ATOM     10  C   UNL     1       2.968   4.710  19.059  0.00  0.00    +0.000 A 
BRANCH   9  11
ATOM     11  C   UNL     1       5.055   4.193  17.525  0.00  0.00    +0.000 A 
ATOM     12  C   UNL     1       4.904   4.131  16.130  0.00  0.00    +0.000 A 
ATOM     13  C   UNL     1       5.976   4.422  15.279  0.00  0.00    +0.000 A 
ATOM     14  C   UNL     1       7.212   4.777  15.813  0.00  0.00    +0.000 A 
ATOM     15  C   UNL     1       7.381   4.826  17.195  0.00  0.00    +0.000 A 
ATOM     16  C   UNL     1       6.313   4.525  18.045  0.00  0.00    +0.000 A 
ENDBRANCH   9  11
ENDBRANCH   1  10
BRANCH   3  17
ATOM     17  N   UNL     1       2.106   8.186  20.005  0.00  0.00    +0.000 N 
ATOM     18  H   UNL     1       2.743   8.705  19.385  0.00  0.00    +0.000 HD
BRANCH  17  19
ATOM     19  C   UNL     1       1.173   8.845  20.765  0.00  0.00    +0.000 C 
ATOM     20  S   UNL     1       1.320   9.140  22.409  0.00  0.00    +0.000 S 
BRANCH  19  21
ATOM     21  N   UNL     1       0.046   9.299  20.115  0.00  0.00    +0.000 N 
ATOM     22  C   UNL     1      -0.008  10.124  19.001  0.00  0.00    +0.000 C 
ATOM     23  O   UNL     1       0.994  10.556  18.434  0.00  0.00    +0.000 OA
ATOM     24  H   UNL     1      -0.817   9.028  20.566  0.00  0.00    +0.000 HD
BRANCH  22  25
ATOM     25  C   UNL     1      -1.360  10.532  18.516  0.00  0.00    +0.000 A 
ATOM     26  C   UNL     1      -2.023  11.539  19.234  0.00  0.00    +0.000 A 
ATOM     27  C   UNL     1      -3.296  11.967  18.851  0.00  0.00    +0.000 A 
ATOM     28  C   UNL     1      -3.907  11.395  17.739  0.00  0.00    +0.000 A 
ATOM     29 BR   UNL     1      -5.636  11.963  17.226  0.00  0.00    +0.000 Br
ATOM     30  C   UNL     1      -3.251  10.409  17.001  0.00  0.00    +0.000 A 
ATOM     31  C   UNL     1      -1.974   9.976  17.385  0.00  0.00    +0.000 A 
ENDBRANCH  22  25
ENDBRANCH  19  21
ENDBRANCH  17  19
ENDBRANCH   3  17
TORSDOF 6
ENDMDL
MODEL 7
REMARK VINA RESULT:      -8.1      4.309      6.387
REMARK  Name = 
REMARK  7 active torsions:
REMARK  status: ('A' for Active; 'I' for Inactive)
REMARK    1  A    between atoms: C_1  and  C_2
REMARK    2  A    between atoms: C_5  and  C_6
REMARK    3  A    between atoms: C_12  and  C_13
REMARK    4  A    between atoms: N_15  and  N_16
REMARK    5  A    between atoms: N_16  and  C_17
REMARK    6  A    between atoms: C_17  and  N_19
REMARK    7  A    between atoms: C_20  and  C_22
REMARK                            x       y       z     vdW  Elec       q    Type
REMARK                         _______ _______ _______ _____ _____    ______ ____
ROOT
ATOM      1  C   UNL     1       4.828   4.044  16.313  0.00  0.00    +0.000 C 
ATOM      2  O   UNL     1       3.667   4.265  15.983  0.00  0.00    +0.000 OA
ATOM      3  N   UNL     1       5.140   3.147  17.321  0.00  0.00    +0.000 N 
ATOM      4  H   UNL     1       6.072   3.066  17.713  0.00  0.00    +0.000 HD
ENDROOT
BRANCH   1  10
ATOM      5  C   UNL     1       6.943   6.277  17.611  0.00  0.00    +0.000 C 
ATOM      6  C   UNL     1       6.820   5.634  16.287  0.00  0.00    +0.000 A 
ATOM      7  O   UNL     1       7.793   5.969  15.404  0.00  0.00    +0.000 OA
ATOM      8  N   UNL     1       7.595   5.309  14.220  0.00  0.00    +0.000 NA
ATOM      9  C   UNL     1       6.486   4.564  14.370  0.00  0.00    +0.000 A 
ATOM     10  C   UNL     1       5.962   4.719  15.701  0.00  0.00    +0.000 A 
BRANCH   9  11
ATOM     11  C   UNL     1       5.978   3.792  13.228  0.00  0.00    +0.000 A 
ATOM     12  C   UNL     1       6.818   2.889  12.556  0.00  0.00    +0.000 A 
ATOM     13  C   UNL     1       6.354   2.167  11.451  0.00  0.00    +0.000 A 
ATOM     14  C   UNL     1       5.046   2.339  11.006  0.00  0.00    +0.000 A 
ATOM     15  C   UNL     1       4.208   3.244  11.653  0.00  0.00    +0.000 A 
ATOM     16  C   UNL     1       4.675   3.974  12.749  0.00  0.00    +0.000 A 
ENDBRANCH   9  11
ENDBRANCH   1  10
BRANCH   3  17
ATOM     17  N   UNL     1       4.105   2.538  18.049  0.00  0.00    +0.000 N 
ATOM     18  H   UNL     1       3.742   1.644  17.690  0.00  0.00    +0.000 HD
BRANCH  17  19
ATOM     19  C   UNL     1       3.616   3.078  19.211  0.00  0.00    +0.000 C 
ATOM     20  S   UNL     1       3.662   2.323  20.707  0.00  0.00    +0.000 S 
BRANCH  19  21
ATOM     21  N   UNL     1       3.060   4.337  19.130  0.00  0.00    +0.000 N 
ATOM     22  C   UNL     1       3.699   5.553  19.322  0.00  0.00    +0.000 C 
ATOM     23  O   UNL     1       4.895   5.651  19.589  0.00  0.00    +0.000 OA
ATOM     24  H   UNL     1       2.062   4.328  18.970  0.00  0.00    +0.000 HD
BRANCH  22  25
ATOM     25  C   UNL     1       2.862   6.786  19.242  0.00  0.00    +0.000 A 
ATOM     26  C   UNL     1       2.879   7.498  18.032  0.00  0.00    +0.000 A 
ATOM     27  C   UNL     1       2.133   8.668  17.882  0.00  0.00    +0.000 A 
ATOM     28  C   UNL     1       1.355   9.128  18.942  0.00  0.00    +0.000 A 
ATOM     29 BR   UNL     1       0.355  10.720  18.746  0.00  0.00    +0.000 Br
ATOM     30  C   UNL     1       1.309   8.419  20.143  0.00  0.00    +0.000 A 
ATOM     31  C   UNL     1       2.060   7.245  20.296  0.00  0.00    +0.000 A 
ENDBRANCH  22  25
ENDBRANCH  19  21
ENDBRANCH  17  19
ENDBRANCH   3  17
TORSDOF 6
ENDMDL
MODEL 8
REMARK VINA RESULT:      -8.1      3.290      4.886
REMARK  Name = 
REMARK  7 active torsions:
REMARK  status: ('A' for Active; 'I' for Inactive)
REMARK    1  A    between atoms: C_1  and  C_2
REMARK    2  A    between atoms: C_5  and  C_6
REMARK    3  A    between atoms: C_12  and  C_13
REMARK    4  A    between atoms: N_15  and  N_16
REMARK    5  A    between atoms: N_16  and  C_17
REMARK    6  A    between atoms: C_17  and  N_19
REMARK    7  A    between atoms: C_20  and  C_22
REMARK                            x       y       z     vdW  Elec       q    Type
REMARK                         _______ _______ _______ _____ _____    ______ ____
ROOT
ATOM      1  C   UNL     1       4.653   4.076  16.328  0.00  0.00    +0.000 C 
ATOM      2  O   UNL     1       4.402   2.908  16.610  0.00  0.00    +0.000 OA
ATOM      3  N   UNL     1       3.917   5.126  16.852  0.00  0.00    +0.000 N 
ATOM      4  H   UNL     1       4.005   6.078  16.515  0.00  0.00    +0.000 HD
ENDROOT
BRANCH   1  10
ATOM      5  C   UNL     1       5.018   3.378  13.084  0.00  0.00    +0.000 C 
ATOM      6  C   UNL     1       5.816   4.146  14.062  0.00  0.00    +0.000 A 
ATOM      7  O   UNL     1       6.914   4.749  13.543  0.00  0.00    +0.000 OA
ATOM      8  N   UNL     1       7.572   5.444  14.524  0.00  0.00    +0.000 NA
ATOM      9  C   UNL     1       6.876   5.264  15.661  0.00  0.00    +0.000 A 
ATOM     10  C   UNL     1       5.715   4.452  15.408  0.00  0.00    +0.000 A 
BRANCH   9  11
ATOM     11  C   UNL     1       7.384   5.837  16.914  0.00  0.00    +0.000 A 
ATOM     12  C   UNL     1       7.634   5.008  18.021  0.00  0.00    +0.000 A 
ATOM     13  C   UNL     1       8.093   5.546  19.228  0.00  0.00    +0.000 A 
ATOM     14  C   UNL     1       8.308   6.917  19.343  0.00  0.00    +0.000 A 
ATOM     15  C   UNL     1       8.049   7.752  18.259  0.00  0.00    +0.000 A 
ATOM     16  C   UNL     1       7.579   7.217  17.057  0.00  0.00    +0.000 A 
ENDBRANCH   9  11
ENDBRANCH   1  10
BRANCH   3  17
ATOM     17  N   UNL     1       2.798   4.852  17.655  0.00  0.00    +0.000 N 
ATOM     18  H   UNL     1       1.952   4.507  17.180  0.00  0.00    +0.000 HD
BRANCH  17  19
ATOM     19  C   UNL     1       2.829   4.994  19.019  0.00  0.00    +0.000 C 
ATOM     20  S   UNL     1       3.614   3.949  20.069  0.00  0.00    +0.000 S 
BRANCH  19  21
ATOM     21  N   UNL     1       2.172   6.084  19.548  0.00  0.00    +0.000 N 
ATOM     22  C   UNL     1       2.255   7.403  19.126  0.00  0.00    +0.000 C 
ATOM     23  O   UNL     1       2.949   7.764  18.178  0.00  0.00    +0.000 OA
ATOM     24  H   UNL     1       1.627   5.867  20.371  0.00  0.00    +0.000 HD
BRANCH  22  25
ATOM     25  C   UNL     1       1.491   8.421  19.907  0.00  0.00    +0.000 A 
ATOM     26  C   UNL     1       1.265   8.152  21.266  0.00  0.00    +0.000 A 
ATOM     27  C   UNL     1       0.548   9.048  22.061  0.00  0.00    +0.000 A 
ATOM     28  C   UNL     1       0.063  10.227  21.500  0.00  0.00    +0.000 A 
ATOM     29 BR   UNL     1      -0.919  11.436  22.571  0.00  0.00    +0.000 Br
ATOM     30  C   UNL     1       0.300  10.520  20.156  0.00  0.00    +0.000 A 
ATOM     31  C   UNL     1       1.017   9.619  19.356  0.00  0.00    +0.000 A 
ENDBRANCH  22  25
ENDBRANCH  19  21
ENDBRANCH  17  19
ENDBRANCH   3  17
TORSDOF 6
ENDMDL
MODEL 9
REMARK VINA RESULT:      -8.1      2.561      3.117
REMARK  Name = 
REMARK  7 active torsions:
REMARK  status: ('A' for Active; 'I' for Inactive)
REMARK    1  A    between atoms: C_1  and  C_2
REMARK    2  A    between atoms: C_5  and  C_6
REMARK    3  A    between atoms: C_12  and  C_13
REMARK    4  A    between atoms: N_15  and  N_16
REMARK    5  A    between atoms: N_16  and  C_17
REMARK    6  A    between atoms: C_17  and  N_19
REMARK    7  A    between atoms: C_20  and  C_22
REMARK                            x       y       z     vdW  Elec       q    Type
REMARK                         _______ _______ _______ _____ _____    ______ ____
ROOT
ATOM      1  C   UNL     1       3.243   5.584  19.557  0.00  0.00    +0.000 C 
ATOM      2  O   UNL     1       4.290   6.224  19.583  0.00  0.00    +0.000 OA
ATOM      3  N   UNL     1       2.027   6.165  19.880  0.00  0.00    +0.000 N 
ATOM      4  H   UNL     1       1.181   5.623  20.016  0.00  0.00    +0.000 HD
ENDROOT
BRANCH   1  10
ATOM      5  C   UNL     1       1.418   3.127  20.890  0.00  0.00    +0.000 C 
ATOM      6  C   UNL     1       2.408   3.189  19.794  0.00  0.00    +0.000 A 
ATOM      7  O   UNL     1       2.598   2.017  19.140  0.00  0.00    +0.000 OA
ATOM      8  N   UNL     1       3.518   2.186  18.139  0.00  0.00    +0.000 NA
ATOM      9  C   UNL     1       3.904   3.473  18.178  0.00  0.00    +0.000 A 
ATOM     10  C   UNL     1       3.193   4.171  19.217  0.00  0.00    +0.000 A 
BRANCH   9  11
ATOM     11  C   UNL     1       4.949   3.939  17.258  0.00  0.00    +0.000 A 
ATOM     12  C   UNL     1       4.676   4.074  15.886  0.00  0.00    +0.000 A 
ATOM     13  C   UNL     1       5.671   4.493  14.996  0.00  0.00    +0.000 A 
ATOM     14  C   UNL     1       6.949   4.781  15.465  0.00  0.00    +0.000 A 
ATOM     15  C   UNL     1       7.239   4.635  16.820  0.00  0.00    +0.000 A 
ATOM     16  C   UNL     1       6.249   4.206  17.708  0.00  0.00    +0.000 A 
ENDBRANCH   9  11
ENDBRANCH   1  10
BRANCH   3  17
ATOM     17  N   UNL     1       1.995   7.493  20.335  0.00  0.00    +0.000 N 
ATOM     18  H   UNL     1       2.292   7.664  21.307  0.00  0.00    +0.000 HD
BRANCH  17  19
ATOM     19  C   UNL     1       1.625   8.533  19.521  0.00  0.00    +0.000 C 
ATOM     20  S   UNL     1       2.223   8.793  17.977  0.00  0.00    +0.000 S 
BRANCH  19  21
ATOM     21  N   UNL     1       0.687   9.412  20.017  0.00  0.00    +0.000 N 
ATOM     22  C   UNL     1       0.639   9.961  21.290  0.00  0.00    +0.000 C 
ATOM     23  O   UNL     1       1.477   9.722  22.159  0.00  0.00    +0.000 OA
ATOM     24  H   UNL     1      -0.066   9.606  19.372  0.00  0.00    +0.000 HD
BRANCH  22  25
ATOM     25  C   UNL     1      -0.520  10.844  21.612  0.00  0.00    +0.000 A 
ATOM     26  C   UNL     1      -0.968  10.858  22.942  0.00  0.00    +0.000 A 
ATOM     27  C   UNL     1      -2.055  11.648  23.321  0.00  0.00    +0.000 A 
ATOM     28  C   UNL     1      -2.694  12.439  22.369  0.00  0.00    +0.000 A 
ATOM     29 BR   UNL     1      -4.175  13.499  22.876  0.00  0.00    +0.000 Br
ATOM     30  C   UNL     1      -2.246  12.455  21.047  0.00  0.00    +0.000 A 
ATOM     31  C   UNL     1      -1.156  11.659  20.665  0.00  0.00    +0.000 A 
ENDBRANCH  22  25
ENDBRANCH  19  21
ENDBRANCH  17  19
ENDBRANCH   3  17
TORSDOF 6
ENDMDL
