MODEL 1
REMARK VINA RESULT:      -7.8      0.000      0.000
REMARK  Name = 
REMARK  5 active torsions:
REMARK  status: ('A' for Active; 'I' for Inactive)
REMARK    1  A    between atoms: C_1  and  O_2
REMARK    2  A    between atoms: O_2  and  C_3
REMARK    3  A    between atoms: C_6  and  N_7
REMARK    4  A    between atoms: N_10  and  C_11
REMARK    5  A    between atoms: C_11  and  C_12
REMARK                            x       y       z     vdW  Elec       q    Type
REMARK                         _______ _______ _______ _____ _____    ______ ____
ROOT
ATOM      1  C   UNL     1      -0.258  11.782  19.957  0.00  0.00    +0.000 C 
ATOM      2  C   UNL     1       1.176  12.065  20.548  0.00  0.00    +0.000 C 
ATOM      3  O   UNL     1       1.791  11.440  21.398  0.00  0.00    +0.000 OA
ATOM      4  C   UNL     1       1.697  13.305  19.980  0.00  0.00    +0.000 A 
ATOM      5  C   UNL     1       2.877  13.956  20.268  0.00  0.00    +0.000 A 
ATOM      6  C   UNL     1       2.948  15.311  19.944  0.00  0.00    +0.000 A 
ATOM      7  C   UNL     1       1.831  15.970  19.399  0.00  0.00    +0.000 A 
ATOM      8  C   UNL     1       0.708  15.243  18.983  0.00  0.00    +0.000 A 
ATOM      9  C   UNL     1       0.716  13.880  19.203  0.00  0.00    +0.000 A 
ATOM     10  C   UNL     1      -0.261  12.853  18.836  0.00  0.00    +0.000 C 
ATOM     11  O   UNL     1      -0.966  12.966  17.850  0.00  0.00    +0.000 OA
ENDROOT
BRANCH   1  15
ATOM     12  N   UNL     1       1.753   8.340  19.703  0.00  0.00    +0.000 N 
ATOM     13  C   UNL     1       1.712   9.291  18.584  0.00  0.00    +0.000 C 
ATOM     14  C   UNL     1       0.290   9.851  18.379  0.00  0.00    +0.000 C 
ATOM     15  N   UNL     1      -0.376  10.345  19.595  0.00  0.00    +0.000 NA
ATOM     16  C   UNL     1      -0.312   9.309  20.638  0.00  0.00    +0.000 C 
ATOM     17  C   UNL     1       1.102   8.779  20.942  0.00  0.00    +0.000 C 
BRANCH  12  21
ATOM     18  C   UNL     1       3.135   4.379  19.267  0.00  0.00    +0.000 A 
ATOM     19  C   UNL     1       3.453   5.347  18.323  0.00  0.00    +0.000 A 
ATOM     20  C   UNL     1       2.993   6.659  18.476  0.00  0.00    +0.000 A 
ATOM     21  C   UNL     1       2.191   7.039  19.563  0.00  0.00    +0.000 A 
ATOM     22  C   UNL     1       1.862   6.040  20.486  0.00  0.00    +0.000 A 
ATOM     23  C   UNL     1       2.329   4.720  20.349  0.00  0.00    +0.000 A 
BRANCH  18  25
ATOM     24  C   UNL     1       2.942   2.384  18.035  0.00  0.00    +0.000 C 
ATOM     25  O   UNL     1       3.638   3.130  19.027  0.00  0.00    +0.000 OA
ENDBRANCH  18  25
ENDBRANCH  12  21
ENDBRANCH   1  15
BRANCH   1  26
ATOM     26  C   UNL     1      -1.403  12.188  20.921  0.00  0.00    +0.000 A 
ATOM     27  C   UNL     1      -1.225  12.286  22.303  0.00  0.00    +0.000 A 
ATOM     28  C   UNL     1      -2.290  12.660  23.130  0.00  0.00    +0.000 A 
ATOM     29  C   UNL     1      -3.548  12.933  22.593  0.00  0.00    +0.000 A 
ATOM     30  C   UNL     1      -3.754  12.830  21.229  0.00  0.00    +0.000 A 
ATOM     31  C   UNL     1      -2.695  12.463  20.404  0.00  0.00    +0.000 A 
ENDBRANCH   1  26
TORSDOF 4
ENDMDL
MODEL 2
REMARK VINA RESULT:      -7.8      0.167      1.229
REMARK  Name = 
REMARK  5 active torsions:
REMARK  status: ('A' for Active; 'I' for Inactive)
REMARK    1  A    between atoms: C_1  and  O_2
REMARK    2  A    between atoms: O_2  and  C_3
REMARK    3  A    between atoms: C_6  and  N_7
REMARK    4  A    between atoms: N_10  and  C_11
REMARK    5  A    between atoms: C_11  and  C_12
REMARK                            x       y       z     vdW  Elec       q    Type
REMARK                         _______ _______ _______ _____ _____    ______ ____
ROOT
ATOM      1  C   UNL     1      -0.286  11.759  19.936  0.00  0.00    +0.000 C 
ATOM      2  C   UNL     1       1.121  12.018  20.595  0.00  0.00    +0.000 C 
ATOM      3  O   UNL     1       1.699  11.364  21.450  0.00  0.00    +0.000 OA
ATOM      4  C   UNL     1       1.669  13.274  20.091  0.00  0.00    +0.000 A 
ATOM      5  C   UNL     1       2.837  13.911  20.449  0.00  0.00    +0.000 A 
ATOM      6  C   UNL     1       2.923  15.276  20.173  0.00  0.00    +0.000 A 
ATOM      7  C   UNL     1       1.831  15.956  19.602  0.00  0.00    +0.000 A 
ATOM      8  C   UNL     1       0.725  15.246  19.116  0.00  0.00    +0.000 A 
ATOM      9  C   UNL     1       0.721  13.877  19.292  0.00  0.00    +0.000 A 
ATOM     10  C   UNL     1      -0.241  12.865  18.851  0.00  0.00    +0.000 C 
ATOM     11  O   UNL     1      -0.903  13.012  17.841  0.00  0.00    +0.000 OA
ENDROOT
BRANCH   1  15
ATOM     12  N   UNL     1       1.758   8.349  19.550  0.00  0.00    +0.000 N 
ATOM     13  C   UNL     1       1.703   9.338  18.466  0.00  0.00    +0.000 C 
ATOM     14  C   UNL     1       0.274   9.891  18.287  0.00  0.00    +0.000 C 
ATOM     15  N   UNL     1      -0.392  10.334  19.523  0.00  0.00    +0.000 NA
ATOM     16  C   UNL     1      -0.313   9.262  20.528  0.00  0.00    +0.000 C 
ATOM     17  C   UNL     1       1.107   8.736  20.807  0.00  0.00    +0.000 C 
BRANCH  12  21
ATOM     18  C   UNL     1       3.089   4.387  18.988  0.00  0.00    +0.000 A 
ATOM     19  C   UNL     1       2.424   4.751  20.152  0.00  0.00    +0.000 A 
ATOM     20  C   UNL     1       1.983   6.066  20.329  0.00  0.00    +0.000 A 
ATOM     21  C   UNL     1       2.208   7.058  19.362  0.00  0.00    +0.000 A 
ATOM     22  C   UNL     1       2.905   6.673  18.212  0.00  0.00    +0.000 A 
ATOM     23  C   UNL     1       3.341   5.350  18.016  0.00  0.00    +0.000 A 
BRANCH  18  25
ATOM     24  C   UNL     1       2.730   2.286  17.991  0.00  0.00    +0.000 C 
ATOM     25  O   UNL     1       3.474   3.076  18.911  0.00  0.00    +0.000 OA
ENDBRANCH  18  25
ENDBRANCH  12  21
ENDBRANCH   1  15
BRANCH   1  26
ATOM     26  C   UNL     1      -1.471  12.136  20.864  0.00  0.00    +0.000 A 
ATOM     27  C   UNL     1      -2.738  12.460  20.374  0.00  0.00    +0.000 A 
ATOM     28  C   UNL     1      -3.774  12.790  21.254  0.00  0.00    +0.000 A 
ATOM     29  C   UNL     1      -3.561  12.810  22.631  0.00  0.00    +0.000 A 
ATOM     30  C   UNL     1      -2.312  12.507  23.142  0.00  0.00    +0.000 A 
ATOM     31  C   UNL     1      -1.280  12.173  22.270  0.00  0.00    +0.000 A 
ENDBRANCH   1  26
TORSDOF 4
ENDMDL
MODEL 3
REMARK VINA RESULT:      -7.8      1.199      3.895
REMARK  Name = 
REMARK  5 active torsions:
REMARK  status: ('A' for Active; 'I' for Inactive)
REMARK    1  A    between atoms: C_1  and  O_2
REMARK    2  A    between atoms: O_2  and  C_3
REMARK    3  A    between atoms: C_6  and  N_7
REMARK    4  A    between atoms: N_10  and  C_11
REMARK    5  A    between atoms: C_11  and  C_12
REMARK                            x       y       z     vdW  Elec       q    Type
REMARK                         _______ _______ _______ _____ _____    ______ ____
ROOT
ATOM      1  C   UNL     1      -1.004  11.631  20.690  0.00  0.00    +0.000 C 
ATOM      2  C   UNL     1      -2.436  12.211  20.383  0.00  0.00    +0.000 C 
ATOM      3  O   UNL     1      -3.036  12.249  19.320  0.00  0.00    +0.000 OA
ATOM      4  C   UNL     1      -2.980  12.824  21.593  0.00  0.00    +0.000 A 
ATOM      5  C   UNL     1      -4.166  13.504  21.756  0.00  0.00    +0.000 A 
ATOM      6  C   UNL     1      -4.259  14.362  22.853  0.00  0.00    +0.000 A 
ATOM      7  C   UNL     1      -3.155  14.544  23.706  0.00  0.00    +0.000 A 
ATOM      8  C   UNL     1      -2.025  13.724  23.594  0.00  0.00    +0.000 A 
ATOM      9  C   UNL     1      -2.012  12.795  22.573  0.00  0.00    +0.000 A 
ATOM     10  C   UNL     1      -1.024  11.770  22.234  0.00  0.00    +0.000 C 
ATOM     11  O   UNL     1      -0.328  11.248  23.086  0.00  0.00    +0.000 OA
ENDROOT
BRANCH   1  15
ATOM     12  N   UNL     1       1.634   8.890  19.472  0.00  0.00    +0.000 N 
ATOM     13  C   UNL     1       1.167   9.957  18.578  0.00  0.00    +0.000 C 
ATOM     14  C   UNL     1      -0.357  10.164  18.703  0.00  0.00    +0.000 C 
ATOM     15  N   UNL     1      -0.867  10.283  20.079  0.00  0.00    +0.000 NA
ATOM     16  C   UNL     1      -0.374   9.151  20.879  0.00  0.00    +0.000 C 
ATOM     17  C   UNL     1       1.154   8.957  20.857  0.00  0.00    +0.000 C 
BRANCH  12  21
ATOM     18  C   UNL     1       3.752   5.520  18.078  0.00  0.00    +0.000 A 
ATOM     19  C   UNL     1       3.765   6.710  17.361  0.00  0.00    +0.000 A 
ATOM     20  C   UNL     1       3.062   7.823  17.832  0.00  0.00    +0.000 A 
ATOM     21  C   UNL     1       2.314   7.778  19.019  0.00  0.00    +0.000 A 
ATOM     22  C   UNL     1       2.294   6.561  19.708  0.00  0.00    +0.000 A 
ATOM     23  C   UNL     1       3.007   5.438  19.251  0.00  0.00    +0.000 A 
BRANCH  18  25
ATOM     24  C   UNL     1       3.924   3.197  17.741  0.00  0.00    +0.000 C 
ATOM     25  O   UNL     1       4.475   4.493  17.535  0.00  0.00    +0.000 OA
ENDBRANCH  18  25
ENDBRANCH  12  21
ENDBRANCH   1  15
BRANCH   1  26
ATOM     26  C   UNL     1       0.143  12.557  20.205  0.00  0.00    +0.000 A 
ATOM     27  C   UNL     1       1.417  12.540  20.778  0.00  0.00    +0.000 A 
ATOM     28  C   UNL     1       2.419  13.393  20.301  0.00  0.00    +0.000 A 
ATOM     29  C   UNL     1       2.163  14.279  19.255  0.00  0.00    +0.000 A 
ATOM     30  C   UNL     1       0.906  14.324  18.679  0.00  0.00    +0.000 A 
ATOM     31  C   UNL     1      -0.090  13.473  19.148  0.00  0.00    +0.000 A 
ENDBRANCH   1  26
TORSDOF 4
ENDMDL
MODEL 4
REMARK VINA RESULT:      -7.8      3.603      7.579
REMARK  Name = 
REMARK  5 active torsions:
REMARK  status: ('A' for Active; 'I' for Inactive)
REMARK    1  A    between atoms: C_1  and  O_2
REMARK    2  A    between atoms: O_2  and  C_3
REMARK    3  A    between atoms: C_6  and  N_7
REMARK    4  A    between atoms: N_10  and  C_11
REMARK    5  A    between atoms: C_11  and  C_12
REMARK                            x       y       z     vdW  Elec       q    Type
REMARK                         _______ _______ _______ _____ _____    ______ ____
ROOT
ATOM      1  C   UNL     1      -0.660  12.287  20.034  0.00  0.00    +0.000 C 
ATOM      2  C   UNL     1      -2.175  12.601  19.737  0.00  0.00    +0.000 C 
ATOM      3  O   UNL     1      -2.951  13.299  20.371  0.00  0.00    +0.000 OA
ATOM      4  C   UNL     1      -2.609  11.837  18.571  0.00  0.00    +0.000 A 
ATOM      5  C   UNL     1      -3.865  11.759  18.009  0.00  0.00    +0.000 A 
ATOM      6  C   UNL     1      -4.130  10.652  17.204  0.00  0.00    +0.000 A 
ATOM      7  C   UNL     1      -3.158   9.648  17.033  0.00  0.00    +0.000 A 
ATOM      8  C   UNL     1      -1.850   9.839  17.494  0.00  0.00    +0.000 A 
ATOM      9  C   UNL     1      -1.582  11.005  18.184  0.00  0.00    +0.000 A 
ATOM     10  C   UNL     1      -0.324  11.517  18.731  0.00  0.00    +0.000 C 
ATOM     11  O   UNL     1       0.749  11.248  18.223  0.00  0.00    +0.000 OA
ENDROOT
BRANCH   1  15
ATOM     12  N   UNL     1       2.741  14.293  19.428  0.00  0.00    +0.000 N 
ATOM     13  C   UNL     1       2.595  13.346  20.541  0.00  0.00    +0.000 C 
ATOM     14  C   UNL     1       1.230  13.510  21.239  0.00  0.00    +0.000 C 
ATOM     15  N   UNL     1       0.063  13.549  20.343  0.00  0.00    +0.000 NA
ATOM     16  C   UNL     1       0.293  14.551  19.290  0.00  0.00    +0.000 C 
ATOM     17  C   UNL     1       1.605  14.376  18.503  0.00  0.00    +0.000 C 
BRANCH  12  21
ATOM     18  C   UNL     1       5.912  17.067  19.234  0.00  0.00    +0.000 A 
ATOM     19  C   UNL     1       4.808  17.311  20.041  0.00  0.00    +0.000 A 
ATOM     20  C   UNL     1       3.762  16.384  20.101  0.00  0.00    +0.000 A 
ATOM     21  C   UNL     1       3.778  15.200  19.348  0.00  0.00    +0.000 A 
ATOM     22  C   UNL     1       4.887  14.991  18.523  0.00  0.00    +0.000 A 
ATOM     23  C   UNL     1       5.952  15.909  18.463  0.00  0.00    +0.000 A 
BRANCH  18  25
ATOM     24  C   UNL     1       8.153  17.613  18.768  0.00  0.00    +0.000 C 
ATOM     25  O   UNL     1       6.881  18.032  19.249  0.00  0.00    +0.000 OA
ENDBRANCH  18  25
ENDBRANCH  12  21
ENDBRANCH   1  15
BRANCH   1  26
ATOM     26  C   UNL     1      -0.464  11.263  21.182  0.00  0.00    +0.000 A 
ATOM     27  C   UNL     1      -1.188  11.323  22.376  0.00  0.00    +0.000 A 
ATOM     28  C   UNL     1      -0.977  10.372  23.380  0.00  0.00    +0.000 A 
ATOM     29  C   UNL     1      -0.038   9.354  23.213  0.00  0.00    +0.000 A 
ATOM     30  C   UNL     1       0.701   9.280  22.046  0.00  0.00    +0.000 A 
ATOM     31  C   UNL     1       0.489  10.222  21.043  0.00  0.00    +0.000 A 
ENDBRANCH   1  26
TORSDOF 4
ENDMDL
MODEL 5
REMARK VINA RESULT:      -7.4      2.169      4.857
REMARK  Name = 
REMARK  5 active torsions:
REMARK  status: ('A' for Active; 'I' for Inactive)
REMARK    1  A    between atoms: C_1  and  O_2
REMARK    2  A    between atoms: O_2  and  C_3
REMARK    3  A    between atoms: C_6  and  N_7
REMARK    4  A    between atoms: N_10  and  C_11
REMARK    5  A    between atoms: C_11  and  C_12
REMARK                            x       y       z     vdW  Elec       q    Type
REMARK                         _______ _______ _______ _____ _____    ______ ____
ROOT
ATOM      1  C   UNL     1      -1.764  13.133  21.464  0.00  0.00    +0.000 C 
ATOM      2  C   UNL     1      -3.261  13.244  20.987  0.00  0.00    +0.000 C 
ATOM      3  O   UNL     1      -3.702  13.712  19.949  0.00  0.00    +0.000 OA
ATOM      4  C   UNL     1      -4.144  12.760  22.046  0.00  0.00    +0.000 A 
ATOM      5  C   UNL     1      -5.521  12.742  22.080  0.00  0.00    +0.000 A 
ATOM      6  C   UNL     1      -6.123  12.657  23.335  0.00  0.00    +0.000 A 
ATOM      7  C   UNL     1      -5.334  12.646  24.501  0.00  0.00    +0.000 A 
ATOM      8  C   UNL     1      -3.942  12.514  24.418  0.00  0.00    +0.000 A 
ATOM      9  C   UNL     1      -3.381  12.475  23.157  0.00  0.00    +0.000 A 
ATOM     10  C   UNL     1      -1.990  12.286  22.743  0.00  0.00    +0.000 C 
ATOM     11  O   UNL     1      -1.209  11.632  23.409  0.00  0.00    +0.000 OA
ENDROOT
BRANCH   1  15
ATOM     12  N   UNL     1       0.449  10.002  20.341  0.00  0.00    +0.000 N 
ATOM     13  C   UNL     1       1.029  11.123  21.093  0.00  0.00    +0.000 C 
ATOM     14  C   UNL     1       0.529  12.478  20.551  0.00  0.00    +0.000 C 
ATOM     15  N   UNL     1      -0.927  12.585  20.364  0.00  0.00    +0.000 NA
ATOM     16  C   UNL     1      -1.400  11.440  19.570  0.00  0.00    +0.000 C 
ATOM     17  C   UNL     1      -1.001  10.058  20.121  0.00  0.00    +0.000 C 
BRANCH  12  21
ATOM     18  C   UNL     1       2.834   7.138  18.367  0.00  0.00    +0.000 A 
ATOM     19  C   UNL     1       2.427   8.293  17.711  0.00  0.00    +0.000 A 
ATOM     20  C   UNL     1       1.639   9.239  18.374  0.00  0.00    +0.000 A 
ATOM     21  C   UNL     1       1.219   9.054  19.700  0.00  0.00    +0.000 A 
ATOM     22  C   UNL     1       1.619   7.870  20.330  0.00  0.00    +0.000 A 
ATOM     23  C   UNL     1       2.423   6.918  19.678  0.00  0.00    +0.000 A 
BRANCH  18  25
ATOM     24  C   UNL     1       4.789   6.854  17.089  0.00  0.00    +0.000 C 
ATOM     25  O   UNL     1       3.606   6.280  17.633  0.00  0.00    +0.000 OA
ENDBRANCH  18  25
ENDBRANCH  12  21
ENDBRANCH   1  15
BRANCH   1  26
ATOM     26  C   UNL     1      -1.182  14.483  21.959  0.00  0.00    +0.000 A 
ATOM     27  C   UNL     1      -0.816  14.703  23.289  0.00  0.00    +0.000 A 
ATOM     28  C   UNL     1      -0.291  15.939  23.683  0.00  0.00    +0.000 A 
ATOM     29  C   UNL     1      -0.132  16.973  22.762  0.00  0.00    +0.000 A 
ATOM     30  C   UNL     1      -0.499  16.785  21.442  0.00  0.00    +0.000 A 
ATOM     31  C   UNL     1      -1.016  15.555  21.045  0.00  0.00    +0.000 A 
ENDBRANCH   1  26
TORSDOF 4
ENDMDL
MODEL 6
REMARK VINA RESULT:      -7.3      3.614      7.468
REMARK  Name = 
REMARK  5 active torsions:
REMARK  status: ('A' for Active; 'I' for Inactive)
REMARK    1  A    between atoms: C_1  and  O_2
REMARK    2  A    between atoms: O_2  and  C_3
REMARK    3  A    between atoms: C_6  and  N_7
REMARK    4  A    between atoms: N_10  and  C_11
REMARK    5  A    between atoms: C_11  and  C_12
REMARK                            x       y       z     vdW  Elec       q    Type
REMARK                         _______ _______ _______ _____ _____    ______ ____
ROOT
ATOM      1  C   UNL     1      -1.387  12.588  20.497  0.00  0.00    +0.000 C 
ATOM      2  C   UNL     1      -2.872  13.008  20.816  0.00  0.00    +0.000 C 
ATOM      3  O   UNL     1      -3.318  13.542  21.819  0.00  0.00    +0.000 OA
ATOM      4  C   UNL     1      -3.742  12.577  19.725  0.00  0.00    +0.000 A 
ATOM      5  C   UNL     1      -5.113  12.679  19.623  0.00  0.00    +0.000 A 
ATOM      6  C   UNL     1      -5.746  11.820  18.724  0.00  0.00    +0.000 A 
ATOM      7  C   UNL     1      -5.000  10.867  18.007  0.00  0.00    +0.000 A 
ATOM      8  C   UNL     1      -3.599  10.898  18.025  0.00  0.00    +0.000 A 
ATOM      9  C   UNL     1      -2.995  11.843  18.830  0.00  0.00    +0.000 A 
ATOM     10  C   UNL     1      -1.579  12.165  19.018  0.00  0.00    +0.000 C 
ATOM     11  O   UNL     1      -0.765  12.005  18.127  0.00  0.00    +0.000 OA
ENDROOT
BRANCH   1  15
ATOM     12  N   UNL     1       2.050  14.346  19.475  0.00  0.00    +0.000 N 
ATOM     13  C   UNL     1       2.010  13.245  20.446  0.00  0.00    +0.000 C 
ATOM     14  C   UNL     1       0.838  13.416  21.435  0.00  0.00    +0.000 C 
ATOM     15  N   UNL     1      -0.468  13.709  20.823  0.00  0.00    +0.000 NA
ATOM     16  C   UNL     1      -0.326  14.846  19.899  0.00  0.00    +0.000 C 
ATOM     17  C   UNL     1       0.774  14.685  18.834  0.00  0.00    +0.000 C 
BRANCH  12  21
ATOM     18  C   UNL     1       5.424  16.815  18.914  0.00  0.00    +0.000 A 
ATOM     19  C   UNL     1       5.283  15.636  18.194  0.00  0.00    +0.000 A 
ATOM     20  C   UNL     1       4.160  14.825  18.384  0.00  0.00    +0.000 A 
ATOM     21  C   UNL     1       3.156  15.155  19.307  0.00  0.00    +0.000 A 
ATOM     22  C   UNL     1       3.334  16.333  20.040  0.00  0.00    +0.000 A 
ATOM     23  C   UNL     1       4.453  17.164  19.849  0.00  0.00    +0.000 A 
BRANCH  18  25
ATOM     24  C   UNL     1       7.738  16.766  18.495  0.00  0.00    +0.000 C 
ATOM     25  O   UNL     1       6.554  17.539  18.651  0.00  0.00    +0.000 OA
ENDBRANCH  18  25
ENDBRANCH  12  21
ENDBRANCH   1  15
BRANCH   1  26
ATOM     26  C   UNL     1      -0.947  11.300  21.242  0.00  0.00    +0.000 A 
ATOM     27  C   UNL     1      -1.095  11.140  22.621  0.00  0.00    +0.000 A 
ATOM     28  C   UNL     1      -0.685   9.957  23.245  0.00  0.00    +0.000 A 
ATOM     29  C   UNL     1      -0.114   8.922  22.505  0.00  0.00    +0.000 A 
ATOM     30  C   UNL     1       0.057   9.060  21.140  0.00  0.00    +0.000 A 
ATOM     31  C   UNL     1      -0.356  10.234  20.516  0.00  0.00    +0.000 A 
ENDBRANCH   1  26
TORSDOF 4
ENDMDL
MODEL 7
REMARK VINA RESULT:      -7.3      2.168      4.951
REMARK  Name = 
REMARK  5 active torsions:
REMARK  status: ('A' for Active; 'I' for Inactive)
REMARK    1  A    between atoms: C_1  and  O_2
REMARK    2  A    between atoms: O_2  and  C_3
REMARK    3  A    between atoms: C_6  and  N_7
REMARK    4  A    between atoms: N_10  and  C_11
REMARK    5  A    between atoms: C_11  and  C_12
REMARK                            x       y       z     vdW  Elec       q    Type
REMARK                         _______ _______ _______ _____ _____    ______ ____
ROOT
ATOM      1  C   UNL     1      -1.848  13.179  21.443  0.00  0.00    +0.000 C 
ATOM      2  C   UNL     1      -3.352  13.220  20.976  0.00  0.00    +0.000 C 
ATOM      3  O   UNL     1      -3.819  13.644  19.930  0.00  0.00    +0.000 OA
ATOM      4  C   UNL     1      -4.207  12.729  22.054  0.00  0.00    +0.000 A 
ATOM      5  C   UNL     1      -5.582  12.657  22.099  0.00  0.00    +0.000 A 
ATOM      6  C   UNL     1      -6.171  12.580  23.361  0.00  0.00    +0.000 A 
ATOM      7  C   UNL     1      -5.374  12.629  24.520  0.00  0.00    +0.000 A 
ATOM      8  C   UNL     1      -3.979  12.549  24.429  0.00  0.00    +0.000 A 
ATOM      9  C   UNL     1      -3.426  12.501  23.165  0.00  0.00    +0.000 A 
ATOM     10  C   UNL     1      -2.031  12.356  22.743  0.00  0.00    +0.000 C 
ATOM     11  O   UNL     1      -1.220  11.750  23.420  0.00  0.00    +0.000 OA
ENDROOT
BRANCH   1  15
ATOM     12  N   UNL     1       0.389  10.061  20.334  0.00  0.00    +0.000 N 
ATOM     13  C   UNL     1       0.957  11.182  21.095  0.00  0.00    +0.000 C 
ATOM     14  C   UNL     1       0.456  12.536  20.551  0.00  0.00    +0.000 C 
ATOM     15  N   UNL     1      -0.998  12.638  20.349  0.00  0.00    +0.000 NA
ATOM     16  C   UNL     1      -1.458  11.492  19.549  0.00  0.00    +0.000 C 
ATOM     17  C   UNL     1      -1.059  10.111  20.101  0.00  0.00    +0.000 C 
BRANCH  12  21
ATOM     18  C   UNL     1       2.747   7.141  18.410  0.00  0.00    +0.000 A 
ATOM     19  C   UNL     1       2.399   7.000  19.747  0.00  0.00    +0.000 A 
ATOM     20  C   UNL     1       1.615   7.972  20.377  0.00  0.00    +0.000 A 
ATOM     21  C   UNL     1       1.170   9.117  19.699  0.00  0.00    +0.000 A 
ATOM     22  C   UNL     1       1.556   9.249  18.361  0.00  0.00    +0.000 A 
ATOM     23  C   UNL     1       2.334   8.273  17.713  0.00  0.00    +0.000 A 
BRANCH  18  25
ATOM     24  C   UNL     1       2.837   4.892  17.724  0.00  0.00    +0.000 C 
ATOM     25  O   UNL     1       3.511   6.134  17.887  0.00  0.00    +0.000 OA
ENDBRANCH  18  25
ENDBRANCH  12  21
ENDBRANCH   1  15
BRANCH   1  26
ATOM     26  C   UNL     1      -1.315  14.563  21.899  0.00  0.00    +0.000 A 
ATOM     27  C   UNL     1      -1.298  15.678  21.058  0.00  0.00    +0.000 A 
ATOM     28  C   UNL     1      -0.811  16.905  21.520  0.00  0.00    +0.000 A 
ATOM     29  C   UNL     1      -0.328  17.037  22.822  0.00  0.00    +0.000 A 
ATOM     30  C   UNL     1      -0.321  15.945  23.671  0.00  0.00    +0.000 A 
ATOM     31  C   UNL     1      -0.810  14.724  23.216  0.00  0.00    +0.000 A 
ENDBRANCH   1  26
TORSDOF 4
ENDMDL
MODEL 8
REMARK VINA RESULT:      -7.3      1.142      1.544
REMARK  Name = 
REMARK  5 active torsions:
REMARK  status: ('A' for Active; 'I' for Inactive)
REMARK    1  A    between atoms: C_1  and  O_2
REMARK    2  A    between atoms: O_2  and  C_3
REMARK    3  A    between atoms: C_6  and  N_7
REMARK    4  A    between atoms: N_10  and  C_11
REMARK    5  A    between atoms: C_11  and  C_12
REMARK                            x       y       z     vdW  Elec       q    Type
REMARK                         _______ _______ _______ _____ _____    ______ ____
ROOT
ATOM      1  C   UNL     1      -1.008  11.899  19.946  0.00  0.00    +0.000 C 
ATOM      2  C   UNL     1       0.024  12.272  21.077  0.00  0.00    +0.000 C 
ATOM      3  O   UNL     1       0.239  11.702  22.135  0.00  0.00    +0.000 OA
ATOM      4  C   UNL     1       0.692  13.523  20.729  0.00  0.00    +0.000 A 
ATOM      5  C   UNL     1       1.611  14.242  21.462  0.00  0.00    +0.000 A 
ATOM      6  C   UNL     1       1.764  15.591  21.138  0.00  0.00    +0.000 A 
ATOM      7  C   UNL     1       0.963  16.175  20.139  0.00  0.00    +0.000 A 
ATOM      8  C   UNL     1       0.153  15.379  19.319  0.00  0.00    +0.000 A 
ATOM      9  C   UNL     1       0.116  14.025  19.583  0.00  0.00    +0.000 A 
ATOM     10  C   UNL     1      -0.571  12.939  18.883  0.00  0.00    +0.000 C 
ATOM     11  O   UNL     1      -0.791  12.990  17.686  0.00  0.00    +0.000 OA
ENDROOT
BRANCH   1  15
ATOM     12  N   UNL     1       1.557   8.907  19.293  0.00  0.00    +0.000 N 
ATOM     13  C   UNL     1       1.087   9.768  18.200  0.00  0.00    +0.000 C 
ATOM     14  C   UNL     1      -0.430  10.029  18.307  0.00  0.00    +0.000 C 
ATOM     15  N   UNL     1      -0.907  10.449  19.634  0.00  0.00    +0.000 NA
ATOM     16  C   UNL     1      -0.415   9.503  20.648  0.00  0.00    +0.000 C 
ATOM     17  C   UNL     1       1.109   9.277  20.641  0.00  0.00    +0.000 C 
BRANCH  12  21
ATOM     18  C   UNL     1       3.588   5.274  18.612  0.00  0.00    +0.000 A 
ATOM     19  C   UNL     1       3.619   6.290  17.665  0.00  0.00    +0.000 A 
ATOM     20  C   UNL     1       2.945   7.492  17.901  0.00  0.00    +0.000 A 
ATOM     21  C   UNL     1       2.208   7.710  19.075  0.00  0.00    +0.000 A 
ATOM     22  C   UNL     1       2.170   6.662  20.000  0.00  0.00    +0.000 A 
ATOM     23  C   UNL     1       2.854   5.453  19.781  0.00  0.00    +0.000 A 
BRANCH  18  25
ATOM     24  C   UNL     1       4.818   4.121  16.971  0.00  0.00    +0.000 C 
ATOM     25  O   UNL     1       4.283   4.141  18.289  0.00  0.00    +0.000 OA
ENDBRANCH  18  25
ENDBRANCH  12  21
ENDBRANCH   1  15
BRANCH   1  26
ATOM     26  C   UNL     1      -2.470  12.268  20.311  0.00  0.00    +0.000 A 
ATOM     27  C   UNL     1      -3.509  12.241  19.378  0.00  0.00    +0.000 A 
ATOM     28  C   UNL     1      -4.812  12.579  19.760  0.00  0.00    +0.000 A 
ATOM     29  C   UNL     1      -5.095  12.956  21.072  0.00  0.00    +0.000 A 
ATOM     30  C   UNL     1      -4.082  13.004  22.012  0.00  0.00    +0.000 A 
ATOM     31  C   UNL     1      -2.786  12.663  21.637  0.00  0.00    +0.000 A 
ENDBRANCH   1  26
TORSDOF 4
ENDMDL
MODEL 9
REMARK VINA RESULT:      -7.2      1.742      4.461
REMARK  Name = 
REMARK  5 active torsions:
REMARK  status: ('A' for Active; 'I' for Inactive)
REMARK    1  A    between atoms: C_1  and  O_2
REMARK    2  A    between atoms: O_2  and  C_3
REMARK    3  A    between atoms: C_6  and  N_7
REMARK    4  A    between atoms: N_10  and  C_11
REMARK    5  A    between atoms: C_11  and  C_12
REMARK                            x       y       z     vdW  Elec       q    Type
REMARK                         _______ _______ _______ _____ _____    ______ ____
ROOT
ATOM      1  C   UNL     1      -0.626  13.286  21.347  0.00  0.00    +0.000 C 
ATOM      2  C   UNL     1      -1.855  12.651  20.592  0.00  0.00    +0.000 C 
ATOM      3  O   UNL     1      -1.871  12.031  19.541  0.00  0.00    +0.000 OA
ATOM      4  C   UNL     1      -3.086  12.984  21.305  0.00  0.00    +0.000 A 
ATOM      5  C   UNL     1      -4.388  12.692  20.961  0.00  0.00    +0.000 A 
ATOM      6  C   UNL     1      -5.386  13.477  21.539  0.00  0.00    +0.000 A 
ATOM      7  C   UNL     1      -5.046  14.546  22.389  0.00  0.00    +0.000 A 
ATOM      8  C   UNL     1      -3.728  14.712  22.831  0.00  0.00    +0.000 A 
ATOM      9  C   UNL     1      -2.777  13.841  22.339  0.00  0.00    +0.000 A 
ATOM     10  C   UNL     1      -1.351  13.717  22.648  0.00  0.00    +0.000 C 
ATOM     11  O   UNL     1      -0.907  14.016  23.741  0.00  0.00    +0.000 OA
ENDROOT
BRANCH   1  15
ATOM     12  N   UNL     1       0.842   9.953  19.706  0.00  0.00    +0.000 N 
ATOM     13  C   UNL     1      -0.138   9.904  20.799  0.00  0.00    +0.000 C 
ATOM     14  C   UNL     1       0.198  10.933  21.898  0.00  0.00    +0.000 C 
ATOM     15  N   UNL     1       0.481  12.297  21.422  0.00  0.00    +0.000 NA
ATOM     16  C   UNL     1       1.497  12.238  20.359  0.00  0.00    +0.000 C 
ATOM     17  C   UNL     1       1.165  11.289  19.192  0.00  0.00    +0.000 C 
BRANCH  12  21
ATOM     18  C   UNL     1       3.042   6.561  18.505  0.00  0.00    +0.000 A 
ATOM     19  C   UNL     1       2.462   6.618  19.766  0.00  0.00    +0.000 A 
ATOM     20  C   UNL     1       1.732   7.745  20.155  0.00  0.00    +0.000 A 
ATOM     21  C   UNL     1       1.573   8.853  19.308  0.00  0.00    +0.000 A 
ATOM     22  C   UNL     1       2.190   8.783  18.054  0.00  0.00    +0.000 A 
ATOM     23  C   UNL     1       2.916   7.650  17.646  0.00  0.00    +0.000 A 
BRANCH  18  25
ATOM     24  C   UNL     1       4.646   4.999  19.226  0.00  0.00    +0.000 C 
ATOM     25  O   UNL     1       3.730   5.414  18.220  0.00  0.00    +0.000 OA
ENDBRANCH  18  25
ENDBRANCH  12  21
ENDBRANCH   1  15
BRANCH   1  26
ATOM     26  C   UNL     1      -0.126  14.602  20.695  0.00  0.00    +0.000 A 
ATOM     27  C   UNL     1       0.773  15.462  21.330  0.00  0.00    +0.000 A 
ATOM     28  C   UNL     1       1.196  16.636  20.697  0.00  0.00    +0.000 A 
ATOM     29  C   UNL     1       0.725  16.972  19.428  0.00  0.00    +0.000 A 
ATOM     30  C   UNL     1      -0.176  16.144  18.784  0.00  0.00    +0.000 A 
ATOM     31  C   UNL     1      -0.595  14.973  19.409  0.00  0.00    +0.000 A 
ENDBRANCH   1  26
TORSDOF 4
ENDMDL
