MODEL 1
REMARK VINA RESULT:      -7.3      0.000      0.000
REMARK  Name = 
REMARK  8 active torsions:
REMARK  status: ('A' for Active; 'I' for Inactive)
REMARK    1  A    between atoms: C_1  and  C_2
REMARK    2  A    between atoms: C_5  and  C_6
REMARK    3  A    between atoms: C_7  and  S_8
REMARK    4  A    between atoms: S_8  and  N_11
REMARK    5  A    between atoms: N_14  and  C_15
REMARK    6  A    between atoms: C_15  and  C_16
REMARK    7  A    between atoms: N_21  and  C_22
REMARK    8  A    between atoms: C_22  and  C_23
REMARK                            x       y       z     vdW  Elec       q    Type
REMARK                         _______ _______ _______ _____ _____    ______ ____
ROOT
ATOM      1  N   UNL     1      -1.188  10.840  19.659  0.00  0.00    +0.000 NA
ATOM      2  C   UNL     1      -0.613   9.892  18.679  0.00  0.00    +0.000 C 
ATOM      3  C   UNL     1       0.920   9.728  18.803  0.00  0.00    +0.000 C 
ATOM      4  N   UNL     1       1.483   9.573  20.171  0.00  0.00    +0.000 NA
ATOM      5  C   UNL     1       0.905  10.636  21.029  0.00  0.00    +0.000 C 
ATOM      6  C   UNL     1      -0.633  10.719  21.025  0.00  0.00    +0.000 C 
ENDROOT
BRANCH   1   7
ATOM      7  S   UNL     1      -1.763  12.348  19.184  0.00  0.00    +0.000 S 
ATOM      8  O   UNL     1      -1.199  12.627  17.881  0.00  0.00    +0.000 OA
ATOM      9  O   UNL     1      -1.570  13.268  20.288  0.00  0.00    +0.000 OA
BRANCH   7  16
ATOM     10  C   UNL     1      -6.472  12.475  21.416  0.00  0.00    +0.000 C 
ATOM     11  C   UNL     1      -5.687  12.220  20.162  0.00  0.00    +0.000 A 
ATOM     12  C   UNL     1      -6.257  11.523  19.094  0.00  0.00    +0.000 A 
ATOM     13  C   UNL     1      -5.485  11.176  17.982  0.00  0.00    +0.000 A 
ATOM     14  C   UNL     1      -4.112  11.472  17.927  0.00  0.00    +0.000 A 
ATOM     15  C   UNL     1      -3.326  10.984  16.744  0.00  0.00    +0.000 C 
ATOM     16  C   UNL     1      -3.537  12.164  19.010  0.00  0.00    +0.000 A 
ATOM     17  C   UNL     1      -4.333  12.576  20.095  0.00  0.00    +0.000 A 
ENDBRANCH   7  16
ENDBRANCH   1   7
BRANCH   4  18
ATOM     18  C   UNL     1       1.212   8.253  20.773  0.00  0.00    +0.000 C 
BRANCH  18  19
ATOM     19  C   UNL     1       1.995   7.134  20.116  0.00  0.00    +0.000 C 
ATOM     20  O   UNL     1       2.589   7.329  19.060  0.00  0.00    +0.000 OA
ATOM     21  N   UNL     1       1.950   5.905  20.762  0.00  0.00    +0.000 N 
ATOM     22  C   UNL     1       2.633   4.767  20.413  0.00  0.00    +0.000 C 
ATOM     23  O   UNL     1       2.549   3.750  21.085  0.00  0.00    +0.000 OA
ATOM     24  N   UNL     1       3.421   4.885  19.307  0.00  0.00    +0.000 N 
ATOM     25  H   UNL     1       1.433   5.839  21.633  0.00  0.00    +0.000 HD
ATOM     26  H   UNL     1       3.302   5.720  18.738  0.00  0.00    +0.000 HD
BRANCH  24  27
ATOM     27  C   UNL     1       4.189   3.809  18.745  0.00  0.00    +0.000 C 
BRANCH  27  28
ATOM     28  C   UNL     1       5.403   4.390  18.118  0.00  0.00    +0.000 A 
ATOM     29  C   UNL     1       5.665   4.888  16.858  0.00  0.00    +0.000 A 
ATOM     30  C   UNL     1       7.020   5.297  16.861  0.00  0.00    +0.000 A 
ATOM     31  C   UNL     1       7.501   5.018  18.118  0.00  0.00    +0.000 A 
ATOM     32  O   UNL     1       6.530   4.460  18.888  0.00  0.00    +0.000 OA
ENDBRANCH  27  28
ENDBRANCH  24  27
ENDBRANCH  18  19
ENDBRANCH   4  18
TORSDOF 6
ENDMDL
MODEL 2
REMARK VINA RESULT:      -7.3      2.662     10.380
REMARK  Name = 
REMARK  8 active torsions:
REMARK  status: ('A' for Active; 'I' for Inactive)
REMARK    1  A    between atoms: C_1  and  C_2
REMARK    2  A    between atoms: C_5  and  C_6
REMARK    3  A    between atoms: C_7  and  S_8
REMARK    4  A    between atoms: S_8  and  N_11
REMARK    5  A    between atoms: N_14  and  C_15
REMARK    6  A    between atoms: C_15  and  C_16
REMARK    7  A    between atoms: N_21  and  C_22
REMARK    8  A    between atoms: C_22  and  C_23
REMARK                            x       y       z     vdW  Elec       q    Type
REMARK                         _______ _______ _______ _____ _____    ______ ____
ROOT
ATOM      1  N   UNL     1       3.990   5.304  19.049  0.00  0.00    +0.000 NA
ATOM      2  C   UNL     1       3.776   6.585  18.340  0.00  0.00    +0.000 C 
ATOM      3  C   UNL     1       2.295   7.030  18.299  0.00  0.00    +0.000 C 
ATOM      4  N   UNL     1       1.512   6.917  19.558  0.00  0.00    +0.000 NA
ATOM      5  C   UNL     1       1.733   5.561  20.118  0.00  0.00    +0.000 C 
ATOM      6  C   UNL     1       3.209   5.158  20.298  0.00  0.00    +0.000 C 
ENDROOT
BRANCH   1   7
ATOM      7  S   UNL     1       4.393   3.899  18.216  0.00  0.00    +0.000 S 
ATOM      8  O   UNL     1       3.162   3.349  17.691  0.00  0.00    +0.000 OA
ATOM      9  O   UNL     1       5.255   3.105  19.070  0.00  0.00    +0.000 OA
BRANCH   7  16
ATOM     10  C   UNL     1       5.340   3.761  13.092  0.00  0.00    +0.000 C 
ATOM     11  C   UNL     1       5.788   4.261  14.435  0.00  0.00    +0.000 A 
ATOM     12  C   UNL     1       7.087   4.738  14.621  0.00  0.00    +0.000 A 
ATOM     13  C   UNL     1       7.539   5.082  15.898  0.00  0.00    +0.000 A 
ATOM     14  C   UNL     1       6.724   4.913  17.031  0.00  0.00    +0.000 A 
ATOM     15  C   UNL     1       7.309   5.212  18.380  0.00  0.00    +0.000 C 
ATOM     16  C   UNL     1       5.418   4.420  16.841  0.00  0.00    +0.000 A 
ATOM     17  C   UNL     1       4.941   4.144  15.547  0.00  0.00    +0.000 A 
ENDBRANCH   7  16
ENDBRANCH   1   7
BRANCH   4  18
ATOM     18  C   UNL     1       1.872   7.931  20.569  0.00  0.00    +0.000 C 
BRANCH  18  19
ATOM     19  C   UNL     1       1.009   9.174  20.489  0.00  0.00    +0.000 C 
ATOM     20  O   UNL     1       0.690   9.639  19.399  0.00  0.00    +0.000 OA
ATOM     21  N   UNL     1       0.660   9.745  21.706  0.00  0.00    +0.000 N 
ATOM     22  C   UNL     1      -0.172  10.819  21.901  0.00  0.00    +0.000 C 
ATOM     23  O   UNL     1      -0.444  11.210  23.027  0.00  0.00    +0.000 OA
ATOM     24  N   UNL     1      -0.684  11.365  20.763  0.00  0.00    +0.000 N 
ATOM     25  H   UNL     1       0.969   9.288  22.558  0.00  0.00    +0.000 HD
ATOM     26  H   UNL     1      -0.278  11.065  19.879  0.00  0.00    +0.000 HD
BRANCH  24  27
ATOM     27  C   UNL     1      -1.543  12.517  20.735  0.00  0.00    +0.000 C 
BRANCH  27  28
ATOM     28  C   UNL     1      -2.673  12.226  19.817  0.00  0.00    +0.000 A 
ATOM     29  C   UNL     1      -4.027  12.481  19.882  0.00  0.00    +0.000 A 
ATOM     30  C   UNL     1      -4.594  11.952  18.698  0.00  0.00    +0.000 A 
ATOM     31  C   UNL     1      -3.552  11.403  17.988  0.00  0.00    +0.000 A 
ATOM     32  O   UNL     1      -2.382  11.557  18.662  0.00  0.00    +0.000 OA
ENDBRANCH  27  28
ENDBRANCH  24  27
ENDBRANCH  18  19
ENDBRANCH   4  18
TORSDOF 6
ENDMDL
MODEL 3
REMARK VINA RESULT:      -7.3      6.365      9.810
REMARK  Name = 
REMARK  8 active torsions:
REMARK  status: ('A' for Active; 'I' for Inactive)
REMARK    1  A    between atoms: C_1  and  C_2
REMARK    2  A    between atoms: C_5  and  C_6
REMARK    3  A    between atoms: C_7  and  S_8
REMARK    4  A    between atoms: S_8  and  N_11
REMARK    5  A    between atoms: N_14  and  C_15
REMARK    6  A    between atoms: C_15  and  C_16
REMARK    7  A    between atoms: N_21  and  C_22
REMARK    8  A    between atoms: C_22  and  C_23
REMARK                            x       y       z     vdW  Elec       q    Type
REMARK                         _______ _______ _______ _____ _____    ______ ____
ROOT
ATOM      1  N   UNL     1       5.303   5.474  18.101  0.00  0.00    +0.000 NA
ATOM      2  C   UNL     1       6.132   6.058  19.179  0.00  0.00    +0.000 C 
ATOM      3  C   UNL     1       7.601   6.303  18.765  0.00  0.00    +0.000 C 
ATOM      4  N   UNL     1       7.844   6.924  17.436  0.00  0.00    +0.000 NA
ATOM      5  C   UNL     1       7.035   6.191  16.431  0.00  0.00    +0.000 C 
ATOM      6  C   UNL     1       5.536   6.062  16.763  0.00  0.00    +0.000 C 
ENDROOT
BRANCH   1   7
ATOM      7  S   UNL     1       4.780   3.876  18.166  0.00  0.00    +0.000 S 
ATOM      8  O   UNL     1       5.663   3.177  19.075  0.00  0.00    +0.000 OA
ATOM      9  O   UNL     1       4.597   3.409  16.806  0.00  0.00    +0.000 OA
BRANCH   7  16
ATOM     10  C   UNL     1       1.239   6.500  20.950  0.00  0.00    +0.000 C 
ATOM     11  C   UNL     1       1.571   5.227  20.227  0.00  0.00    +0.000 A 
ATOM     12  C   UNL     1       0.827   4.066  20.450  0.00  0.00    +0.000 A 
ATOM     13  C   UNL     1       1.215   2.854  19.874  0.00  0.00    +0.000 A 
ATOM     14  C   UNL     1       2.385   2.756  19.101  0.00  0.00    +0.000 A 
ATOM     15  C   UNL     1       2.792   1.402  18.594  0.00  0.00    +0.000 C 
ATOM     16  C   UNL     1       3.140   3.925  18.888  0.00  0.00    +0.000 A 
ATOM     17  C   UNL     1       2.707   5.158  19.408  0.00  0.00    +0.000 A 
ENDBRANCH   7  16
ENDBRANCH   1   7
BRANCH   4  18
ATOM     18  C   UNL     1       7.506   8.360  17.386  0.00  0.00    +0.000 C 
BRANCH  18  19
ATOM     19  C   UNL     1       8.475   9.220  18.170  0.00  0.00    +0.000 C 
ATOM     20  O   UNL     1       9.022   8.780  19.177  0.00  0.00    +0.000 OA
ATOM     21  N   UNL     1       8.653  10.515  17.697  0.00  0.00    +0.000 N 
ATOM     22  C   UNL     1       9.529  11.454  18.182  0.00  0.00    +0.000 C 
ATOM     23  O   UNL     1       9.631  12.552  17.655  0.00  0.00    +0.000 OA
ATOM     24  N   UNL     1      10.281  11.047  19.243  0.00  0.00    +0.000 N 
ATOM     25  H   UNL     1       8.159  10.790  16.855  0.00  0.00    +0.000 HD
ATOM     26  H   UNL     1      10.013  10.176  19.697  0.00  0.00    +0.000 HD
BRANCH  24  27
ATOM     27  C   UNL     1      11.230  11.881  19.928  0.00  0.00    +0.000 C 
BRANCH  27  28
ATOM     28  C   UNL     1      10.480  12.754  20.866  0.00  0.00    +0.000 A 
ATOM     29  C   UNL     1       9.478  12.510  21.782  0.00  0.00    +0.000 A 
ATOM     30  C   UNL     1       9.164  13.755  22.377  0.00  0.00    +0.000 A 
ATOM     31  C   UNL     1       9.989  14.681  21.784  0.00  0.00    +0.000 A 
ATOM     32  O   UNL     1      10.787  14.086  20.859  0.00  0.00    +0.000 OA
ENDBRANCH  27  28
ENDBRANCH  24  27
ENDBRANCH  18  19
ENDBRANCH   4  18
TORSDOF 6
ENDMDL
MODEL 4
REMARK VINA RESULT:      -7.3      1.826      3.079
REMARK  Name = 
REMARK  8 active torsions:
REMARK  status: ('A' for Active; 'I' for Inactive)
REMARK    1  A    between atoms: C_1  and  C_2
REMARK    2  A    between atoms: C_5  and  C_6
REMARK    3  A    between atoms: C_7  and  S_8
REMARK    4  A    between atoms: S_8  and  N_11
REMARK    5  A    between atoms: N_14  and  C_15
REMARK    6  A    between atoms: C_15  and  C_16
REMARK    7  A    between atoms: N_21  and  C_22
REMARK    8  A    between atoms: C_22  and  C_23
REMARK                            x       y       z     vdW  Elec       q    Type
REMARK                         _______ _______ _______ _____ _____    ______ ____
ROOT
ATOM      1  N   UNL     1      -0.178   9.690  19.015  0.00  0.00    +0.000 NA
ATOM      2  C   UNL     1       0.906   9.521  18.022  0.00  0.00    +0.000 C 
ATOM      3  C   UNL     1       2.292   9.267  18.659  0.00  0.00    +0.000 C 
ATOM      4  N   UNL     1       2.364   8.292  19.779  0.00  0.00    +0.000 NA
ATOM      5  C   UNL     1       1.292   8.626  20.749  0.00  0.00    +0.000 C 
ATOM      6  C   UNL     1      -0.122   8.743  20.151  0.00  0.00    +0.000 C 
ENDROOT
BRANCH   1   7
ATOM      7  S   UNL     1      -0.887  11.191  19.290  0.00  0.00    +0.000 S 
ATOM      8  O   UNL     1      -0.034  12.183  18.671  0.00  0.00    +0.000 OA
ATOM      9  O   UNL     1      -1.221  11.277  20.698  0.00  0.00    +0.000 OA
BRANCH   7  16
ATOM     10  C   UNL     1      -3.508  10.119  14.913  0.00  0.00    +0.000 C 
ATOM     11  C   UNL     1      -3.575  10.655  16.315  0.00  0.00    +0.000 A 
ATOM     12  C   UNL     1      -4.667  11.418  16.734  0.00  0.00    +0.000 A 
ATOM     13  C   UNL     1      -4.668  12.022  17.994  0.00  0.00    +0.000 A 
ATOM     14  C   UNL     1      -3.559  11.921  18.851  0.00  0.00    +0.000 A 
ATOM     15  C   UNL     1      -3.591  12.675  20.149  0.00  0.00    +0.000 C 
ATOM     16  C   UNL     1      -2.454  11.162  18.421  0.00  0.00    +0.000 A 
ATOM     17  C   UNL     1      -2.486  10.495  17.182  0.00  0.00    +0.000 A 
ENDBRANCH   7  16
ENDBRANCH   1   7
BRANCH   4  18
ATOM     18  C   UNL     1       2.215   6.888  19.348  0.00  0.00    +0.000 C 
BRANCH  18  19
ATOM     19  C   UNL     1       3.456   6.348  18.666  0.00  0.00    +0.000 C 
ATOM     20  O   UNL     1       3.552   6.371  17.442  0.00  0.00    +0.000 OA
ATOM     21  N   UNL     1       4.419   5.804  19.507  0.00  0.00    +0.000 N 
ATOM     22  C   UNL     1       5.653   5.326  19.142  0.00  0.00    +0.000 C 
ATOM     23  O   UNL     1       6.440   4.909  19.979  0.00  0.00    +0.000 OA
ATOM     24  N   UNL     1       5.927   5.397  17.809  0.00  0.00    +0.000 N 
ATOM     25  H   UNL     1       4.253   5.830  20.507  0.00  0.00    +0.000 HD
ATOM     26  H   UNL     1       5.154   5.617  17.185  0.00  0.00    +0.000 HD
BRANCH  24  27
ATOM     27  C   UNL     1       7.141   4.918  17.208  0.00  0.00    +0.000 C 
BRANCH  27  28
ATOM     28  C   UNL     1       6.865   4.633  15.777  0.00  0.00    +0.000 A 
ATOM     29  C   UNL     1       5.897   3.888  15.136  0.00  0.00    +0.000 A 
ATOM     30  C   UNL     1       6.160   3.994  13.750  0.00  0.00    +0.000 A 
ATOM     31  C   UNL     1       7.274   4.791  13.632  0.00  0.00    +0.000 A 
ATOM     32  O   UNL     1       7.715   5.179  14.857  0.00  0.00    +0.000 OA
ENDBRANCH  27  28
ENDBRANCH  24  27
ENDBRANCH  18  19
ENDBRANCH   4  18
TORSDOF 6
ENDMDL
MODEL 5
REMARK VINA RESULT:      -7.2      3.146     10.565
REMARK  Name = 
REMARK  8 active torsions:
REMARK  status: ('A' for Active; 'I' for Inactive)
REMARK    1  A    between atoms: C_1  and  C_2
REMARK    2  A    between atoms: C_5  and  C_6
REMARK    3  A    between atoms: C_7  and  S_8
REMARK    4  A    between atoms: S_8  and  N_11
REMARK    5  A    between atoms: N_14  and  C_15
REMARK    6  A    between atoms: C_15  and  C_16
REMARK    7  A    between atoms: N_21  and  C_22
REMARK    8  A    between atoms: C_22  and  C_23
REMARK                            x       y       z     vdW  Elec       q    Type
REMARK                         _______ _______ _______ _____ _____    ______ ____
ROOT
ATOM      1  N   UNL     1       3.794   5.038  19.664  0.00  0.00    +0.000 NA
ATOM      2  C   UNL     1       3.661   6.374  19.042  0.00  0.00    +0.000 C 
ATOM      3  C   UNL     1       2.194   6.816  18.835  0.00  0.00    +0.000 C 
ATOM      4  N   UNL     1       1.247   6.595  19.960  0.00  0.00    +0.000 NA
ATOM      5  C   UNL     1       1.409   5.198  20.430  0.00  0.00    +0.000 C 
ATOM      6  C   UNL     1       2.851   4.785  20.777  0.00  0.00    +0.000 C 
ENDROOT
BRANCH   1   7
ATOM      7  S   UNL     1       4.328   3.709  18.781  0.00  0.00    +0.000 S 
ATOM      8  O   UNL     1       3.159   3.096  18.188  0.00  0.00    +0.000 OA
ATOM      9  O   UNL     1       5.220   2.940  19.625  0.00  0.00    +0.000 OA
BRANCH   7  16
ATOM     10  C   UNL     1       5.499   3.827  13.703  0.00  0.00    +0.000 C 
ATOM     11  C   UNL     1       5.837   4.326  15.078  0.00  0.00    +0.000 A 
ATOM     12  C   UNL     1       7.073   4.923  15.335  0.00  0.00    +0.000 A 
ATOM     13  C   UNL     1       7.434   5.269  16.640  0.00  0.00    +0.000 A 
ATOM     14  C   UNL     1       6.593   4.985  17.730  0.00  0.00    +0.000 A 
ATOM     15  C   UNL     1       7.088   5.298  19.112  0.00  0.00    +0.000 C 
ATOM     16  C   UNL     1       5.353   4.372  17.468  0.00  0.00    +0.000 A 
ATOM     17  C   UNL     1       4.961   4.091  16.147  0.00  0.00    +0.000 A 
ENDBRANCH   7  16
ENDBRANCH   1   7
BRANCH   4  18
ATOM     18  C   UNL     1       1.451   7.521  21.091  0.00  0.00    +0.000 C 
BRANCH  18  19
ATOM     19  C   UNL     1       0.567   8.749  21.013  0.00  0.00    +0.000 C 
ATOM     20  O   UNL     1      -0.506   8.782  21.609  0.00  0.00    +0.000 OA
ATOM     21  N   UNL     1       1.035   9.779  20.206  0.00  0.00    +0.000 N 
ATOM     22  C   UNL     1       0.462  11.015  20.036  0.00  0.00    +0.000 C 
ATOM     23  O   UNL     1       0.989  11.863  19.330  0.00  0.00    +0.000 OA
ATOM     24  N   UNL     1      -0.690  11.217  20.736  0.00  0.00    +0.000 N 
ATOM     25  H   UNL     1       1.935   9.663  19.753  0.00  0.00    +0.000 HD
ATOM     26  H   UNL     1      -1.121  10.403  21.168  0.00  0.00    +0.000 HD
BRANCH  24  27
ATOM     27  C   UNL     1      -1.472  12.421  20.673  0.00  0.00    +0.000 C 
BRANCH  27  28
ATOM     28  C   UNL     1      -2.351  12.461  21.869  0.00  0.00    +0.000 A 
ATOM     29  C   UNL     1      -2.273  11.872  23.114  0.00  0.00    +0.000 A 
ATOM     30  C   UNL     1      -3.423  12.285  23.827  0.00  0.00    +0.000 A 
ATOM     31  C   UNL     1      -4.133  13.095  22.973  0.00  0.00    +0.000 A 
ATOM     32  O   UNL     1      -3.495  13.203  21.778  0.00  0.00    +0.000 OA
ENDBRANCH  27  28
ENDBRANCH  24  27
ENDBRANCH  18  19
ENDBRANCH   4  18
TORSDOF 6
ENDMDL
MODEL 6
REMARK VINA RESULT:      -7.1      2.914     10.425
REMARK  Name = 
REMARK  8 active torsions:
REMARK  status: ('A' for Active; 'I' for Inactive)
REMARK    1  A    between atoms: C_1  and  C_2
REMARK    2  A    between atoms: C_5  and  C_6
REMARK    3  A    between atoms: C_7  and  S_8
REMARK    4  A    between atoms: S_8  and  N_11
REMARK    5  A    between atoms: N_14  and  C_15
REMARK    6  A    between atoms: C_15  and  C_16
REMARK    7  A    between atoms: N_21  and  C_22
REMARK    8  A    between atoms: C_22  and  C_23
REMARK                            x       y       z     vdW  Elec       q    Type
REMARK                         _______ _______ _______ _____ _____    ______ ____
ROOT
ATOM      1  N   UNL     1       2.759   4.183  18.847  0.00  0.00    +0.000 NA
ATOM      2  C   UNL     1       2.106   4.126  20.174  0.00  0.00    +0.000 C 
ATOM      3  C   UNL     1       2.404   5.356  21.063  0.00  0.00    +0.000 C 
ATOM      4  N   UNL     1       2.325   6.697  20.425  0.00  0.00    +0.000 NA
ATOM      5  C   UNL     1       3.095   6.651  19.159  0.00  0.00    +0.000 C 
ATOM      6  C   UNL     1       2.710   5.511  18.197  0.00  0.00    +0.000 C 
ENDROOT
BRANCH   1   7
ATOM      7  S   UNL     1       4.054   3.178  18.466  0.00  0.00    +0.000 S 
ATOM      8  O   UNL     1       3.514   2.048  17.741  0.00  0.00    +0.000 OA
ATOM      9  O   UNL     1       4.837   2.981  19.669  0.00  0.00    +0.000 OA
BRANCH   7  16
ATOM     10  C   UNL     1       5.924   3.865  13.648  0.00  0.00    +0.000 C 
ATOM     11  C   UNL     1       5.936   4.333  15.075  0.00  0.00    +0.000 A 
ATOM     12  C   UNL     1       6.961   5.155  15.546  0.00  0.00    +0.000 A 
ATOM     13  C   UNL     1       7.039   5.484  16.902  0.00  0.00    +0.000 A 
ATOM     14  C   UNL     1       6.124   4.961  17.833  0.00  0.00    +0.000 A 
ATOM     15  C   UNL     1       6.326   5.280  19.286  0.00  0.00    +0.000 C 
ATOM     16  C   UNL     1       5.098   4.122  17.357  0.00  0.00    +0.000 A 
ATOM     17  C   UNL     1       4.979   3.853  15.981  0.00  0.00    +0.000 A 
ENDBRANCH   7  16
ENDBRANCH   1   7
BRANCH   4  18
ATOM     18  C   UNL     1       0.943   7.135  20.144  0.00  0.00    +0.000 C 
BRANCH  18  19
ATOM     19  C   UNL     1       0.690   8.576  20.539  0.00  0.00    +0.000 C 
ATOM     20  O   UNL     1       0.858   9.480  19.726  0.00  0.00    +0.000 OA
ATOM     21  N   UNL     1       0.310   8.783  21.859  0.00  0.00    +0.000 N 
ATOM     22  C   UNL     1      -0.049   9.977  22.433  0.00  0.00    +0.000 C 
ATOM     23  O   UNL     1      -0.409  10.031  23.600  0.00  0.00    +0.000 OA
ATOM     24  N   UNL     1      -0.009  11.052  21.598  0.00  0.00    +0.000 N 
ATOM     25  H   UNL     1       0.196   7.972  22.458  0.00  0.00    +0.000 HD
ATOM     26  H   UNL     1       0.447  10.926  20.697  0.00  0.00    +0.000 HD
BRANCH  24  27
ATOM     27  C   UNL     1      -0.307  12.399  22.001  0.00  0.00    +0.000 C 
BRANCH  27  28
ATOM     28  C   UNL     1      -1.763  12.622  21.820  0.00  0.00    +0.000 A 
ATOM     29  C   UNL     1      -2.784  12.934  22.695  0.00  0.00    +0.000 A 
ATOM     30  C   UNL     1      -3.967  13.011  21.922  0.00  0.00    +0.000 A 
ATOM     31  C   UNL     1      -3.596  12.736  20.627  0.00  0.00    +0.000 A 
ATOM     32  O   UNL     1      -2.262  12.491  20.555  0.00  0.00    +0.000 OA
ENDBRANCH  27  28
ENDBRANCH  24  27
ENDBRANCH  18  19
ENDBRANCH   4  18
TORSDOF 6
ENDMDL
MODEL 7
REMARK VINA RESULT:      -7.1      3.212     10.341
REMARK  Name = 
REMARK  8 active torsions:
REMARK  status: ('A' for Active; 'I' for Inactive)
REMARK    1  A    between atoms: C_1  and  C_2
REMARK    2  A    between atoms: C_5  and  C_6
REMARK    3  A    between atoms: C_7  and  S_8
REMARK    4  A    between atoms: S_8  and  N_11
REMARK    5  A    between atoms: N_14  and  C_15
REMARK    6  A    between atoms: C_15  and  C_16
REMARK    7  A    between atoms: N_21  and  C_22
REMARK    8  A    between atoms: C_22  and  C_23
REMARK                            x       y       z     vdW  Elec       q    Type
REMARK                         _______ _______ _______ _____ _____    ______ ____
ROOT
ATOM      1  N   UNL     1       4.055   5.329  19.002  0.00  0.00    +0.000 NA
ATOM      2  C   UNL     1       3.823   6.597  18.275  0.00  0.00    +0.000 C 
ATOM      3  C   UNL     1       2.339   7.031  18.248  0.00  0.00    +0.000 C 
ATOM      4  N   UNL     1       1.573   6.933  19.519  0.00  0.00    +0.000 NA
ATOM      5  C   UNL     1       1.811   5.588  20.097  0.00  0.00    +0.000 C 
ATOM      6  C   UNL     1       3.292   5.198  20.263  0.00  0.00    +0.000 C 
ENDROOT
BRANCH   1   7
ATOM      7  S   UNL     1       4.457   3.914  18.186  0.00  0.00    +0.000 S 
ATOM      8  O   UNL     1       3.224   3.352  17.677  0.00  0.00    +0.000 OA
ATOM      9  O   UNL     1       5.327   3.134  19.045  0.00  0.00    +0.000 OA
BRANCH   7  16
ATOM     10  C   UNL     1       5.351   3.731  13.054  0.00  0.00    +0.000 C 
ATOM     11  C   UNL     1       5.815   4.238  14.389  0.00  0.00    +0.000 A 
ATOM     12  C   UNL     1       7.118   4.709  14.558  0.00  0.00    +0.000 A 
ATOM     13  C   UNL     1       7.585   5.060  15.827  0.00  0.00    +0.000 A 
ATOM     14  C   UNL     1       6.781   4.904  16.969  0.00  0.00    +0.000 A 
ATOM     15  C   UNL     1       7.381   5.210  18.311  0.00  0.00    +0.000 C 
ATOM     16  C   UNL     1       5.471   4.418  16.797  0.00  0.00    +0.000 A 
ATOM     17  C   UNL     1       4.979   4.135  15.510  0.00  0.00    +0.000 A 
ENDBRANCH   7  16
ENDBRANCH   1   7
BRANCH   4  18
ATOM     18  C   UNL     1       1.940   7.966  20.508  0.00  0.00    +0.000 C 
BRANCH  18  19
ATOM     19  C   UNL     1       0.973   9.132  20.528  0.00  0.00    +0.000 C 
ATOM     20  O   UNL     1       0.542   9.599  19.478  0.00  0.00    +0.000 OA
ATOM     21  N   UNL     1       0.661   9.636  21.785  0.00  0.00    +0.000 N 
ATOM     22  C   UNL     1      -0.242  10.630  22.071  0.00  0.00    +0.000 C 
ATOM     23  O   UNL     1      -0.467  10.963  23.225  0.00  0.00    +0.000 OA
ATOM     24  N   UNL     1      -0.875  11.162  20.988  0.00  0.00    +0.000 N 
ATOM     25  H   UNL     1       1.066   9.184  22.598  0.00  0.00    +0.000 HD
ATOM     26  H   UNL     1      -0.508  10.923  20.070  0.00  0.00    +0.000 HD
BRANCH  24  27
ATOM     27  C   UNL     1      -1.827  12.236  21.056  0.00  0.00    +0.000 C 
BRANCH  27  28
ATOM     28  C   UNL     1      -1.245  13.411  20.360  0.00  0.00    +0.000 A 
ATOM     29  C   UNL     1      -1.124  14.742  20.701  0.00  0.00    +0.000 A 
ATOM     30  C   UNL     1      -0.477  15.379  19.615  0.00  0.00    +0.000 A 
ATOM     31  C   UNL     1      -0.250  14.399  18.678  0.00  0.00    +0.000 A 
ATOM     32  O   UNL     1      -0.718  13.201  19.117  0.00  0.00    +0.000 OA
ENDBRANCH  27  28
ENDBRANCH  24  27
ENDBRANCH  18  19
ENDBRANCH   4  18
TORSDOF 6
ENDMDL
MODEL 8
REMARK VINA RESULT:      -7.0      4.053      9.965
REMARK  Name = 
REMARK  8 active torsions:
REMARK  status: ('A' for Active; 'I' for Inactive)
REMARK    1  A    between atoms: C_1  and  C_2
REMARK    2  A    between atoms: C_5  and  C_6
REMARK    3  A    between atoms: C_7  and  S_8
REMARK    4  A    between atoms: S_8  and  N_11
REMARK    5  A    between atoms: N_14  and  C_15
REMARK    6  A    between atoms: C_15  and  C_16
REMARK    7  A    between atoms: N_21  and  C_22
REMARK    8  A    between atoms: C_22  and  C_23
REMARK                            x       y       z     vdW  Elec       q    Type
REMARK                         _______ _______ _______ _____ _____    ______ ____
ROOT
ATOM      1  N   UNL     1       2.554   4.598  18.454  0.00  0.00    +0.000 NA
ATOM      2  C   UNL     1       1.718   4.616  19.675  0.00  0.00    +0.000 C 
ATOM      3  C   UNL     1       2.067   5.768  20.646  0.00  0.00    +0.000 C 
ATOM      4  N   UNL     1       2.280   7.118  20.059  0.00  0.00    +0.000 NA
ATOM      5  C   UNL     1       3.206   6.979  18.909  0.00  0.00    +0.000 C 
ATOM      6  C   UNL     1       2.796   5.931  17.858  0.00  0.00    +0.000 C 
ENDROOT
BRANCH   1   7
ATOM      7  S   UNL     1       3.725   3.415  18.212  0.00  0.00    +0.000 S 
ATOM      8  O   UNL     1       3.107   2.357  17.443  0.00  0.00    +0.000 OA
ATOM      9  O   UNL     1       4.348   3.135  19.491  0.00  0.00    +0.000 OA
BRANCH   7  16
ATOM     10  C   UNL     1       6.083   3.804  13.579  0.00  0.00    +0.000 C 
ATOM     11  C   UNL     1       6.049   4.260  15.010  0.00  0.00    +0.000 A 
ATOM     12  C   UNL     1       7.150   4.904  15.578  0.00  0.00    +0.000 A 
ATOM     13  C   UNL     1       7.164   5.211  16.941  0.00  0.00    +0.000 A 
ATOM     14  C   UNL     1       6.102   4.841  17.784  0.00  0.00    +0.000 A 
ATOM     15  C   UNL     1       6.229   5.118  19.254  0.00  0.00    +0.000 C 
ATOM     16  C   UNL     1       4.998   4.181  17.210  0.00  0.00    +0.000 A 
ATOM     17  C   UNL     1       4.954   3.938  15.825  0.00  0.00    +0.000 A 
ENDBRANCH   7  16
ENDBRANCH   1   7
BRANCH   4  18
ATOM     18  C   UNL     1       1.033   7.767  19.609  0.00  0.00    +0.000 C 
BRANCH  18  19
ATOM     19  C   UNL     1       1.006   9.254  19.899  0.00  0.00    +0.000 C 
ATOM     20  O   UNL     1       1.402  10.058  19.059  0.00  0.00    +0.000 OA
ATOM     21  N   UNL     1       0.554   9.616  21.162  0.00  0.00    +0.000 N 
ATOM     22  C   UNL     1       0.364  10.891  21.633  0.00  0.00    +0.000 C 
ATOM     23  O   UNL     1      -0.082  11.089  22.754  0.00  0.00    +0.000 OA
ATOM     24  N   UNL     1       0.667  11.883  20.749  0.00  0.00    +0.000 N 
ATOM     25  H   UNL     1       0.246   8.881  21.790  0.00  0.00    +0.000 HD
ATOM     26  H   UNL     1       1.171  11.617  19.906  0.00  0.00    +0.000 HD
BRANCH  24  27
ATOM     27  C   UNL     1       0.579  13.286  21.049  0.00  0.00    +0.000 C 
BRANCH  27  28
ATOM     28  C   UNL     1       1.934  13.873  20.900  0.00  0.00    +0.000 A 
ATOM     29  C   UNL     1       2.674  14.266  19.803  0.00  0.00    +0.000 A 
ATOM     30  C   UNL     1       3.907  14.749  20.302  0.00  0.00    +0.000 A 
ATOM     31  C   UNL     1       3.845  14.617  21.669  0.00  0.00    +0.000 A 
ATOM     32  O   UNL     1       2.654  14.079  22.043  0.00  0.00    +0.000 OA
ENDBRANCH  27  28
ENDBRANCH  24  27
ENDBRANCH  18  19
ENDBRANCH   4  18
TORSDOF 6
ENDMDL
MODEL 9
REMARK VINA RESULT:      -7.0      3.263      4.852
REMARK  Name = 
REMARK  8 active torsions:
REMARK  status: ('A' for Active; 'I' for Inactive)
REMARK    1  A    between atoms: C_1  and  C_2
REMARK    2  A    between atoms: C_5  and  C_6
REMARK    3  A    between atoms: C_7  and  S_8
REMARK    4  A    between atoms: S_8  and  N_11
REMARK    5  A    between atoms: N_14  and  C_15
REMARK    6  A    between atoms: C_15  and  C_16
REMARK    7  A    between atoms: N_21  and  C_22
REMARK    8  A    between atoms: C_22  and  C_23
REMARK                            x       y       z     vdW  Elec       q    Type
REMARK                         _______ _______ _______ _____ _____    ______ ____
ROOT
ATOM      1  N   UNL     1       0.646  12.422  20.131  0.00  0.00    +0.000 NA
ATOM      2  C   UNL     1       0.205  11.903  21.444  0.00  0.00    +0.000 C 
ATOM      3  C   UNL     1      -0.510  10.534  21.359  0.00  0.00    +0.000 C 
ATOM      4  N   UNL     1       0.104   9.494  20.492  0.00  0.00    +0.000 NA
ATOM      5  C   UNL     1       0.411  10.111  19.179  0.00  0.00    +0.000 C 
ATOM      6  C   UNL     1       1.247  11.404  19.241  0.00  0.00    +0.000 C 
ENDROOT
BRANCH   1   7
ATOM      7  S   UNL     1      -0.117  13.734  19.406  0.00  0.00    +0.000 S 
ATOM      8  O   UNL     1      -1.059  14.263  20.370  0.00  0.00    +0.000 OA
ATOM      9  O   UNL     1      -0.559  13.323  18.088  0.00  0.00    +0.000 OA
BRANCH   7  16
ATOM     10  C   UNL     1       4.804  15.257  20.203  0.00  0.00    +0.000 C 
ATOM     11  C   UNL     1       3.474  15.589  19.590  0.00  0.00    +0.000 A 
ATOM     12  C   UNL     1       3.175  16.896  19.200  0.00  0.00    +0.000 A 
ATOM     13  C   UNL     1       1.894  17.226  18.750  0.00  0.00    +0.000 A 
ATOM     14  C   UNL     1       0.862  16.271  18.723  0.00  0.00    +0.000 A 
ATOM     15  C   UNL     1      -0.512  16.720  18.320  0.00  0.00    +0.000 C 
ATOM     16  C   UNL     1       1.163  14.957  19.129  0.00  0.00    +0.000 A 
ATOM     17  C   UNL     1       2.472  14.611  19.512  0.00  0.00    +0.000 A 
ENDBRANCH   7  16
ENDBRANCH   1   7
BRANCH   4  18
ATOM     18  C   UNL     1       1.335   8.907  21.059  0.00  0.00    +0.000 C 
BRANCH  18  19
ATOM     19  C   UNL     1       1.825   7.703  20.280  0.00  0.00    +0.000 C 
ATOM     20  O   UNL     1       2.263   7.837  19.141  0.00  0.00    +0.000 OA
ATOM     21  N   UNL     1       1.702   6.477  20.922  0.00  0.00    +0.000 N 
ATOM     22  C   UNL     1       2.143   5.261  20.463  0.00  0.00    +0.000 C 
ATOM     23  O   UNL     1       2.018   4.249  21.138  0.00  0.00    +0.000 OA
ATOM     24  N   UNL     1       2.750   5.291  19.244  0.00  0.00    +0.000 N 
ATOM     25  H   UNL     1       1.330   6.465  21.866  0.00  0.00    +0.000 HD
ATOM     26  H   UNL     1       2.667   6.150  18.703  0.00  0.00    +0.000 HD
BRANCH  24  27
ATOM     27  C   UNL     1       3.249   4.129  18.561  0.00  0.00    +0.000 C 
BRANCH  27  28
ATOM     28  C   UNL     1       4.118   4.588  17.448  0.00  0.00    +0.000 A 
ATOM     29  C   UNL     1       4.468   5.838  16.982  0.00  0.00    +0.000 A 
ATOM     30  C   UNL     1       5.330   5.629  15.879  0.00  0.00    +0.000 A 
ATOM     31  C   UNL     1       5.448   4.267  15.738  0.00  0.00    +0.000 A 
ATOM     32  O   UNL     1       4.710   3.624  16.681  0.00  0.00    +0.000 OA
ENDBRANCH  27  28
ENDBRANCH  24  27
ENDBRANCH  18  19
ENDBRANCH   4  18
TORSDOF 6
ENDMDL
