MODEL 1
REMARK VINA RESULT:      -7.3      0.000      0.000
REMARK  Name = 
REMARK  9 active torsions:
REMARK  status: ('A' for Active; 'I' for Inactive)
REMARK    1  A    between atoms: C_1  and  S_2
REMARK    2  A    between atoms: S_2  and  C_3
REMARK    3  A    between atoms: C_6  and  S_7
REMARK    4  A    between atoms: S_7  and  N_10
REMARK    5  A    between atoms: N_10  and  C_11
REMARK    6  A    between atoms: C_11  and  C_12
REMARK    7  A    between atoms: C_12  and  O_13
REMARK    8  A    between atoms: O_13  and  C_14
REMARK    9  A    between atoms: C_19  and  C_20
REMARK                            x       y       z     vdW  Elec       q    Type
REMARK                         _______ _______ _______ _____ _____    ______ ____
ROOT
ATOM      1  N   UNL     1       7.265   6.953  18.037  0.00  0.00    +0.000 NA
ATOM      2  H   UNL     1       7.584   6.640  18.953  0.00  0.00    +0.000 HD
ENDROOT
BRANCH   1   3
ATOM      3  S   UNL     1       6.786   5.685  17.040  0.00  0.00    +0.000 S 
ATOM      4  O   UNL     1       7.751   4.616  17.148  0.00  0.00    +0.000 OA
ATOM      5  O   UNL     1       6.441   6.274  15.762  0.00  0.00    +0.000 OA
BRANCH   3   9
ATOM      6  C   UNL     1       2.854   4.404  18.946  0.00  0.00    +0.000 A 
ATOM      7  C   UNL     1       3.091   4.196  17.583  0.00  0.00    +0.000 A 
ATOM      8  C   UNL     1       4.307   4.571  17.019  0.00  0.00    +0.000 A 
ATOM      9  C   UNL     1       5.278   5.178  17.818  0.00  0.00    +0.000 A 
ATOM     10  C   UNL     1       5.043   5.429  19.172  0.00  0.00    +0.000 A 
ATOM     11  C   UNL     1       3.823   5.039  19.733  0.00  0.00    +0.000 A 
BRANCH   6  13
ATOM     12  C   UNL     1       1.066   2.352  18.701  0.00  0.00    +0.000 C 
ATOM     13  S   UNL     1       1.330   3.852  19.688  0.00  0.00    +0.000 S 
ENDBRANCH   6  13
ENDBRANCH   3   9
ENDBRANCH   1   3
BRANCH   1  14
ATOM     14  C   UNL     1       7.878   8.174  17.476  0.00  0.00    +0.000 C 
BRANCH  14  15
ATOM     15  C   UNL     1       8.713   8.921  18.511  0.00  0.00    +0.000 C 
BRANCH  15  16
ATOM     16  O   UNL     1       8.574  10.332  18.351  0.00  0.00    +0.000 OA
BRANCH  16  17
ATOM     17  C   UNL     1       9.662  11.060  18.778  0.00  0.00    +0.000 A 
ATOM     18  C   UNL     1      10.600  11.339  17.773  0.00  0.00    +0.000 A 
ATOM     19  C   UNL     1      11.800  11.988  18.071  0.00  0.00    +0.000 A 
ATOM     20  C   UNL     1      12.075  12.365  19.380  0.00  0.00    +0.000 A 
ATOM     21  C   UNL     1      11.146  12.098  20.384  0.00  0.00    +0.000 A 
ATOM     22  C   UNL     1       9.937  11.433  20.106  0.00  0.00    +0.000 A 
ATOM     23  C   UNL     1       9.032  11.166  21.275  0.00  0.00    +0.000 C 
ENDBRANCH  16  17
ENDBRANCH  15  16
ENDBRANCH  14  15
ENDBRANCH   1  14
TORSDOF 7
ENDMDL
MODEL 2
REMARK VINA RESULT:      -7.2      0.803      1.262
REMARK  Name = 
REMARK  9 active torsions:
REMARK  status: ('A' for Active; 'I' for Inactive)
REMARK    1  A    between atoms: C_1  and  S_2
REMARK    2  A    between atoms: S_2  and  C_3
REMARK    3  A    between atoms: C_6  and  S_7
REMARK    4  A    between atoms: S_7  and  N_10
REMARK    5  A    between atoms: N_10  and  C_11
REMARK    6  A    between atoms: C_11  and  C_12
REMARK    7  A    between atoms: C_12  and  O_13
REMARK    8  A    between atoms: O_13  and  C_14
REMARK    9  A    between atoms: C_19  and  C_20
REMARK                            x       y       z     vdW  Elec       q    Type
REMARK                         _______ _______ _______ _____ _____    ______ ____
ROOT
ATOM      1  N   UNL     1       7.105   6.741  17.901  0.00  0.00    +0.000 NA
ATOM      2  H   UNL     1       7.261   6.486  18.876  0.00  0.00    +0.000 HD
ENDROOT
BRANCH   1   3
ATOM      3  S   UNL     1       6.897   5.406  16.898  0.00  0.00    +0.000 S 
ATOM      4  O   UNL     1       7.998   4.493  17.102  0.00  0.00    +0.000 OA
ATOM      5  O   UNL     1       6.571   5.925  15.585  0.00  0.00    +0.000 OA
BRANCH   3   9
ATOM      6  C   UNL     1       3.172   3.490  18.685  0.00  0.00    +0.000 A 
ATOM      7  C   UNL     1       4.348   3.609  19.436  0.00  0.00    +0.000 A 
ATOM      8  C   UNL     1       5.471   4.219  18.884  0.00  0.00    +0.000 A 
ATOM      9  C   UNL     1       5.424   4.688  17.570  0.00  0.00    +0.000 A 
ATOM     10  C   UNL     1       4.272   4.542  16.793  0.00  0.00    +0.000 A 
ATOM     11  C   UNL     1       3.144   3.939  17.358  0.00  0.00    +0.000 A 
BRANCH   6  13
ATOM     12  C   UNL     1       1.135   4.229  20.349  0.00  0.00    +0.000 C 
ATOM     13  S   UNL     1       1.709   2.782  19.415  0.00  0.00    +0.000 S 
ENDBRANCH   6  13
ENDBRANCH   3   9
ENDBRANCH   1   3
BRANCH   1  14
ATOM     14  C   UNL     1       7.742   7.977  17.403  0.00  0.00    +0.000 C 
BRANCH  14  15
ATOM     15  C   UNL     1       8.594   8.650  18.473  0.00  0.00    +0.000 C 
BRANCH  15  16
ATOM     16  O   UNL     1       8.337  10.053  18.517  0.00  0.00    +0.000 OA
BRANCH  16  17
ATOM     17  C   UNL     1       9.429  10.819  18.859  0.00  0.00    +0.000 A 
ATOM     18  C   UNL     1      10.288  11.110  17.788  0.00  0.00    +0.000 A 
ATOM     19  C   UNL     1      11.485  11.798  17.994  0.00  0.00    +0.000 A 
ATOM     20  C   UNL     1      11.838  12.202  19.276  0.00  0.00    +0.000 A 
ATOM     21  C   UNL     1      10.988  11.924  20.345  0.00  0.00    +0.000 A 
ATOM     22  C   UNL     1       9.784  11.219  20.160  0.00  0.00    +0.000 A 
ATOM     23  C   UNL     1       8.969  10.943  21.392  0.00  0.00    +0.000 C 
ENDBRANCH  16  17
ENDBRANCH  15  16
ENDBRANCH  14  15
ENDBRANCH   1  14
TORSDOF 7
ENDMDL
MODEL 3
REMARK VINA RESULT:      -7.0      1.080      1.847
REMARK  Name = 
REMARK  9 active torsions:
REMARK  status: ('A' for Active; 'I' for Inactive)
REMARK    1  A    between atoms: C_1  and  S_2
REMARK    2  A    between atoms: S_2  and  C_3
REMARK    3  A    between atoms: C_6  and  S_7
REMARK    4  A    between atoms: S_7  and  N_10
REMARK    5  A    between atoms: N_10  and  C_11
REMARK    6  A    between atoms: C_11  and  C_12
REMARK    7  A    between atoms: C_12  and  O_13
REMARK    8  A    between atoms: O_13  and  C_14
REMARK    9  A    between atoms: C_19  and  C_20
REMARK                            x       y       z     vdW  Elec       q    Type
REMARK                         _______ _______ _______ _____ _____    ______ ____
ROOT
ATOM      1  N   UNL     1       7.649   6.888  18.168  0.00  0.00    +0.000 NA
ATOM      2  H   UNL     1       8.296   6.509  18.858  0.00  0.00    +0.000 HD
ENDROOT
BRANCH   1   3
ATOM      3  S   UNL     1       6.981   5.705  17.175  0.00  0.00    +0.000 S 
ATOM      4  O   UNL     1       7.831   4.537  17.204  0.00  0.00    +0.000 OA
ATOM      5  O   UNL     1       6.630   6.361  15.931  0.00  0.00    +0.000 OA
BRANCH   3   9
ATOM      6  C   UNL     1       3.092   4.875  19.394  0.00  0.00    +0.000 A 
ATOM      7  C   UNL     1       3.258   6.051  18.653  0.00  0.00    +0.000 A 
ATOM      8  C   UNL     1       4.443   6.279  17.961  0.00  0.00    +0.000 A 
ATOM      9  C   UNL     1       5.474   5.340  18.030  0.00  0.00    +0.000 A 
ATOM     10  C   UNL     1       5.340   4.179  18.796  0.00  0.00    +0.000 A 
ATOM     11  C   UNL     1       4.142   3.951  19.480  0.00  0.00    +0.000 A 
BRANCH   6  13
ATOM     12  C   UNL     1       1.916   2.878  20.841  0.00  0.00    +0.000 C 
ATOM     13  S   UNL     1       1.546   4.541  20.216  0.00  0.00    +0.000 S 
ENDBRANCH   6  13
ENDBRANCH   3   9
ENDBRANCH   1   3
BRANCH   1  14
ATOM     14  C   UNL     1       7.904   8.252  17.662  0.00  0.00    +0.000 C 
BRANCH  14  15
ATOM     15  C   UNL     1       8.718   9.083  18.648  0.00  0.00    +0.000 C 
BRANCH  15  16
ATOM     16  O   UNL     1       9.140  10.308  18.050  0.00  0.00    +0.000 OA
BRANCH  16  17
ATOM     17  C   UNL     1       9.688  11.210  18.934  0.00  0.00    +0.000 A 
ATOM     18  C   UNL     1       9.303  11.015  20.270  0.00  0.00    +0.000 A 
ATOM     19  C   UNL     1       9.702  11.904  21.270  0.00  0.00    +0.000 A 
ATOM     20  C   UNL     1      10.491  13.001  20.944  0.00  0.00    +0.000 A 
ATOM     21  C   UNL     1      10.883  13.200  19.622  0.00  0.00    +0.000 A 
ATOM     22  C   UNL     1      10.480  12.322  18.597  0.00  0.00    +0.000 A 
ATOM     23  C   UNL     1      10.932  12.660  17.205  0.00  0.00    +0.000 C 
ENDBRANCH  16  17
ENDBRANCH  15  16
ENDBRANCH  14  15
ENDBRANCH   1  14
TORSDOF 7
ENDMDL
MODEL 4
REMARK VINA RESULT:      -6.9      5.377      8.434
REMARK  Name = 
REMARK  9 active torsions:
REMARK  status: ('A' for Active; 'I' for Inactive)
REMARK    1  A    between atoms: C_1  and  S_2
REMARK    2  A    between atoms: S_2  and  C_3
REMARK    3  A    between atoms: C_6  and  S_7
REMARK    4  A    between atoms: S_7  and  N_10
REMARK    5  A    between atoms: N_10  and  C_11
REMARK    6  A    between atoms: C_11  and  C_12
REMARK    7  A    between atoms: C_12  and  O_13
REMARK    8  A    between atoms: O_13  and  C_14
REMARK    9  A    between atoms: C_19  and  C_20
REMARK                            x       y       z     vdW  Elec       q    Type
REMARK                         _______ _______ _______ _____ _____    ______ ____
ROOT
ATOM      1  N   UNL     1       4.265   5.979  19.468  0.00  0.00    +0.000 NA
ATOM      2  H   UNL     1       3.656   5.759  20.255  0.00  0.00    +0.000 HD
ENDROOT
BRANCH   1   3
ATOM      3  S   UNL     1       3.417   6.421  18.084  0.00  0.00    +0.000 S 
ATOM      4  O   UNL     1       2.605   5.304  17.658  0.00  0.00    +0.000 OA
ATOM      5  O   UNL     1       4.376   7.048  17.196  0.00  0.00    +0.000 OA
BRANCH   3   9
ATOM      6  C   UNL     1       0.748   9.768  19.635  0.00  0.00    +0.000 A 
ATOM      7  C   UNL     1       1.207   9.771  18.313  0.00  0.00    +0.000 A 
ATOM      8  C   UNL     1       2.002   8.729  17.846  0.00  0.00    +0.000 A 
ATOM      9  C   UNL     1       2.359   7.694  18.712  0.00  0.00    +0.000 A 
ATOM     10  C   UNL     1       1.943   7.695  20.046  0.00  0.00    +0.000 A 
ATOM     11  C   UNL     1       1.135   8.740  20.504  0.00  0.00    +0.000 A 
BRANCH   6  13
ATOM     12  C   UNL     1      -0.992  11.610  18.613  0.00  0.00    +0.000 C 
ATOM     13  S   UNL     1      -0.336  11.059  20.213  0.00  0.00    +0.000 S 
ENDBRANCH   6  13
ENDBRANCH   3   9
ENDBRANCH   1   3
BRANCH   1  14
ATOM     14  C   UNL     1       5.554   5.263  19.376  0.00  0.00    +0.000 C 
BRANCH  14  15
ATOM     15  C   UNL     1       5.376   3.828  18.890  0.00  0.00    +0.000 C 
BRANCH  15  16
ATOM     16  O   UNL     1       4.739   3.031  19.888  0.00  0.00    +0.000 OA
BRANCH  16  17
ATOM     17  C   UNL     1       3.413   2.760  19.635  0.00  0.00    +0.000 A 
ATOM     18  C   UNL     1       3.185   2.070  18.433  0.00  0.00    +0.000 A 
ATOM     19  C   UNL     1       1.887   1.805  17.993  0.00  0.00    +0.000 A 
ATOM     20  C   UNL     1       0.801   2.228  18.750  0.00  0.00    +0.000 A 
ATOM     21  C   UNL     1       1.017   2.907  19.947  0.00  0.00    +0.000 A 
ATOM     22  C   UNL     1       2.317   3.197  20.401  0.00  0.00    +0.000 A 
ATOM     23  C   UNL     1       2.426   3.968  21.686  0.00  0.00    +0.000 C 
ENDBRANCH  16  17
ENDBRANCH  15  16
ENDBRANCH  14  15
ENDBRANCH   1  14
TORSDOF 7
ENDMDL
MODEL 5
REMARK VINA RESULT:      -6.9      4.614      6.640
REMARK  Name = 
REMARK  9 active torsions:
REMARK  status: ('A' for Active; 'I' for Inactive)
REMARK    1  A    between atoms: C_1  and  S_2
REMARK    2  A    between atoms: S_2  and  C_3
REMARK    3  A    between atoms: C_6  and  S_7
REMARK    4  A    between atoms: S_7  and  N_10
REMARK    5  A    between atoms: N_10  and  C_11
REMARK    6  A    between atoms: C_11  and  C_12
REMARK    7  A    between atoms: C_12  and  O_13
REMARK    8  A    between atoms: O_13  and  C_14
REMARK    9  A    between atoms: C_19  and  C_20
REMARK                            x       y       z     vdW  Elec       q    Type
REMARK                         _______ _______ _______ _____ _____    ______ ____
ROOT
ATOM      1  N   UNL     1       2.844   2.024  19.369  0.00  0.00    +0.000 NA
ATOM      2  H   UNL     1       2.891   1.960  18.353  0.00  0.00    +0.000 HD
ENDROOT
BRANCH   1   3
ATOM      3  S   UNL     1       1.433   2.760  19.916  0.00  0.00    +0.000 S 
ATOM      4  O   UNL     1       1.391   2.675  21.357  0.00  0.00    +0.000 OA
ATOM      5  O   UNL     1       0.356   2.251  19.091  0.00  0.00    +0.000 OA
BRANCH   3   9
ATOM      6  C   UNL     1       2.223   7.058  18.636  0.00  0.00    +0.000 A 
ATOM      7  C   UNL     1       2.224   6.019  17.698  0.00  0.00    +0.000 A 
ATOM      8  C   UNL     1       1.957   4.714  18.100  0.00  0.00    +0.000 A 
ATOM      9  C   UNL     1       1.713   4.445  19.449  0.00  0.00    +0.000 A 
ATOM     10  C   UNL     1       1.747   5.464  20.404  0.00  0.00    +0.000 A 
ATOM     11  C   UNL     1       2.005   6.774  19.990  0.00  0.00    +0.000 A 
BRANCH   6  13
ATOM     12  C   UNL     1       1.200   9.547  19.110  0.00  0.00    +0.000 C 
ATOM     13  S   UNL     1       2.485   8.741  18.112  0.00  0.00    +0.000 S 
ENDBRANCH   6  13
ENDBRANCH   3   9
ENDBRANCH   1   3
BRANCH   1  14
ATOM     14  C   UNL     1       4.114   2.168  20.109  0.00  0.00    +0.000 C 
BRANCH  14  15
ATOM     15  C   UNL     1       4.863   3.437  19.715  0.00  0.00    +0.000 C 
BRANCH  15  16
ATOM     16  O   UNL     1       5.063   3.489  18.303  0.00  0.00    +0.000 OA
BRANCH  16  17
ATOM     17  C   UNL     1       5.886   4.511  17.885  0.00  0.00    +0.000 A 
ATOM     18  C   UNL     1       6.587   5.147  18.922  0.00  0.00    +0.000 A 
ATOM     19  C   UNL     1       7.391   6.260  18.668  0.00  0.00    +0.000 A 
ATOM     20  C   UNL     1       7.500   6.751  17.372  0.00  0.00    +0.000 A 
ATOM     21  C   UNL     1       6.814   6.122  16.336  0.00  0.00    +0.000 A 
ATOM     22  C   UNL     1       5.989   5.007  16.573  0.00  0.00    +0.000 A 
ATOM     23  C   UNL     1       5.268   4.437  15.384  0.00  0.00    +0.000 C 
ENDBRANCH  16  17
ENDBRANCH  15  16
ENDBRANCH  14  15
ENDBRANCH   1  14
TORSDOF 7
ENDMDL
MODEL 6
REMARK VINA RESULT:      -6.9      1.054      1.170
REMARK  Name = 
REMARK  9 active torsions:
REMARK  status: ('A' for Active; 'I' for Inactive)
REMARK    1  A    between atoms: C_1  and  S_2
REMARK    2  A    between atoms: S_2  and  C_3
REMARK    3  A    between atoms: C_6  and  S_7
REMARK    4  A    between atoms: S_7  and  N_10
REMARK    5  A    between atoms: N_10  and  C_11
REMARK    6  A    between atoms: C_11  and  C_12
REMARK    7  A    between atoms: C_12  and  O_13
REMARK    8  A    between atoms: O_13  and  C_14
REMARK    9  A    between atoms: C_19  and  C_20
REMARK                            x       y       z     vdW  Elec       q    Type
REMARK                         _______ _______ _______ _____ _____    ______ ____
ROOT
ATOM      1  N   UNL     1       6.993   7.011  17.759  0.00  0.00    +0.000 NA
ATOM      2  H   UNL     1       6.214   7.429  18.266  0.00  0.00    +0.000 HD
ENDROOT
BRANCH   1   3
ATOM      3  S   UNL     1       7.250   5.397  18.161  0.00  0.00    +0.000 S 
ATOM      4  O   UNL     1       7.888   5.336  19.456  0.00  0.00    +0.000 OA
ATOM      5  O   UNL     1       7.833   4.769  16.993  0.00  0.00    +0.000 OA
BRANCH   3   9
ATOM      6  C   UNL     1       2.961   3.892  18.441  0.00  0.00    +0.000 A 
ATOM      7  C   UNL     1       3.724   3.674  17.287  0.00  0.00    +0.000 A 
ATOM      8  C   UNL     1       5.041   4.119  17.226  0.00  0.00    +0.000 A 
ATOM      9  C   UNL     1       5.588   4.805  18.313  0.00  0.00    +0.000 A 
ATOM     10  C   UNL     1       4.829   5.066  19.456  0.00  0.00    +0.000 A 
ATOM     11  C   UNL     1       3.510   4.606  19.515  0.00  0.00    +0.000 A 
BRANCH   6  13
ATOM     12  C   UNL     1       0.888   3.844  20.220  0.00  0.00    +0.000 C 
ATOM     13  S   UNL     1       1.301   3.254  18.554  0.00  0.00    +0.000 S 
ENDBRANCH   6  13
ENDBRANCH   3   9
ENDBRANCH   1   3
BRANCH   1  14
ATOM     14  C   UNL     1       8.118   7.890  17.381  0.00  0.00    +0.000 C 
BRANCH  14  15
ATOM     15  C   UNL     1       7.996   9.274  18.010  0.00  0.00    +0.000 C 
BRANCH  15  16
ATOM     16  O   UNL     1       8.973   9.453  19.035  0.00  0.00    +0.000 OA
BRANCH  16  17
ATOM     17  C   UNL     1       9.539  10.707  19.065  0.00  0.00    +0.000 A 
ATOM     18  C   UNL     1      10.189  11.075  17.877  0.00  0.00    +0.000 A 
ATOM     19  C   UNL     1      10.890  12.279  17.785  0.00  0.00    +0.000 A 
ATOM     20  C   UNL     1      10.950  13.129  18.883  0.00  0.00    +0.000 A 
ATOM     21  C   UNL     1      10.302  12.776  20.064  0.00  0.00    +0.000 A 
ATOM     22  C   UNL     1       9.602  11.561  20.182  0.00  0.00    +0.000 A 
ATOM     23  C   UNL     1       8.976  11.270  21.516  0.00  0.00    +0.000 C 
ENDBRANCH  16  17
ENDBRANCH  15  16
ENDBRANCH  14  15
ENDBRANCH   1  14
TORSDOF 7
ENDMDL
MODEL 7
REMARK VINA RESULT:      -6.9      1.087      1.791
REMARK  Name = 
REMARK  9 active torsions:
REMARK  status: ('A' for Active; 'I' for Inactive)
REMARK    1  A    between atoms: C_1  and  S_2
REMARK    2  A    between atoms: S_2  and  C_3
REMARK    3  A    between atoms: C_6  and  S_7
REMARK    4  A    between atoms: S_7  and  N_10
REMARK    5  A    between atoms: N_10  and  C_11
REMARK    6  A    between atoms: C_11  and  C_12
REMARK    7  A    between atoms: C_12  and  O_13
REMARK    8  A    between atoms: O_13  and  C_14
REMARK    9  A    between atoms: C_19  and  C_20
REMARK                            x       y       z     vdW  Elec       q    Type
REMARK                         _______ _______ _______ _____ _____    ______ ____
ROOT
ATOM      1  N   UNL     1       7.476   6.850  18.106  0.00  0.00    +0.000 NA
ATOM      2  H   UNL     1       8.026   6.593  18.925  0.00  0.00    +0.000 HD
ENDROOT
BRANCH   1   3
ATOM      3  S   UNL     1       7.031   5.525  17.170  0.00  0.00    +0.000 S 
ATOM      4  O   UNL     1       7.943   4.437  17.439  0.00  0.00    +0.000 OA
ATOM      5  O   UNL     1       6.815   6.023  15.827  0.00  0.00    +0.000 OA
BRANCH   3   9
ATOM      6  C   UNL     1       3.001   4.411  18.974  0.00  0.00    +0.000 A 
ATOM      7  C   UNL     1       4.194   4.109  19.642  0.00  0.00    +0.000 A 
ATOM      8  C   UNL     1       5.417   4.477  19.089  0.00  0.00    +0.000 A 
ATOM      9  C   UNL     1       5.447   5.127  17.854  0.00  0.00    +0.000 A 
ATOM     10  C   UNL     1       4.269   5.401  17.155  0.00  0.00    +0.000 A 
ATOM     11  C   UNL     1       3.043   5.038  17.722  0.00  0.00    +0.000 A 
BRANCH   6  13
ATOM     12  C   UNL     1       1.011   2.558  18.716  0.00  0.00    +0.000 C 
ATOM     13  S   UNL     1       1.430   4.013  19.715  0.00  0.00    +0.000 S 
ENDBRANCH   6  13
ENDBRANCH   3   9
ENDBRANCH   1   3
BRANCH   1  14
ATOM     14  C   UNL     1       7.737   8.166  17.488  0.00  0.00    +0.000 C 
BRANCH  14  15
ATOM     15  C   UNL     1       8.438   9.119  18.451  0.00  0.00    +0.000 C 
BRANCH  15  16
ATOM     16  O   UNL     1       9.136  10.138  17.736  0.00  0.00    +0.000 OA
BRANCH  16  17
ATOM     17  C   UNL     1       9.441  11.250  18.488  0.00  0.00    +0.000 A 
ATOM     18  C   UNL     1      10.333  11.005  19.544  0.00  0.00    +0.000 A 
ATOM     19  C   UNL     1      10.666  12.012  20.451  0.00  0.00    +0.000 A 
ATOM     20  C   UNL     1      10.108  13.278  20.313  0.00  0.00    +0.000 A 
ATOM     21  C   UNL     1       9.227  13.532  19.265  0.00  0.00    +0.000 A 
ATOM     22  C   UNL     1       8.868  12.527  18.348  0.00  0.00    +0.000 A 
ATOM     23  C   UNL     1       7.880  12.908  17.283  0.00  0.00    +0.000 C 
ENDBRANCH  16  17
ENDBRANCH  15  16
ENDBRANCH  14  15
ENDBRANCH   1  14
TORSDOF 7
ENDMDL
MODEL 8
REMARK VINA RESULT:      -6.9      1.321      2.054
REMARK  Name = 
REMARK  9 active torsions:
REMARK  status: ('A' for Active; 'I' for Inactive)
REMARK    1  A    between atoms: C_1  and  S_2
REMARK    2  A    between atoms: S_2  and  C_3
REMARK    3  A    between atoms: C_6  and  S_7
REMARK    4  A    between atoms: S_7  and  N_10
REMARK    5  A    between atoms: N_10  and  C_11
REMARK    6  A    between atoms: C_11  and  C_12
REMARK    7  A    between atoms: C_12  and  O_13
REMARK    8  A    between atoms: O_13  and  C_14
REMARK    9  A    between atoms: C_19  and  C_20
REMARK                            x       y       z     vdW  Elec       q    Type
REMARK                         _______ _______ _______ _____ _____    ______ ____
ROOT
ATOM      1  N   UNL     1       7.191   6.817  16.929  0.00  0.00    +0.000 NA
ATOM      2  H   UNL     1       6.669   6.714  16.060  0.00  0.00    +0.000 HD
ENDROOT
BRANCH   1   3
ATOM      3  S   UNL     1       7.411   5.360  17.741  0.00  0.00    +0.000 S 
ATOM      4  O   UNL     1       7.983   5.631  19.039  0.00  0.00    +0.000 OA
ATOM      5  O   UNL     1       8.047   4.457  16.802  0.00  0.00    +0.000 OA
BRANCH   3   9
ATOM      6  C   UNL     1       3.136   3.927  18.382  0.00  0.00    +0.000 A 
ATOM      7  C   UNL     1       3.927   4.332  19.463  0.00  0.00    +0.000 A 
ATOM      8  C   UNL     1       5.223   4.791  19.249  0.00  0.00    +0.000 A 
ATOM      9  C   UNL     1       5.738   4.820  17.952  0.00  0.00    +0.000 A 
ATOM     10  C   UNL     1       4.977   4.381  16.865  0.00  0.00    +0.000 A 
ATOM     11  C   UNL     1       3.672   3.932  17.087  0.00  0.00    +0.000 A 
BRANCH   6  13
ATOM     12  C   UNL     1       1.152   4.235  20.234  0.00  0.00    +0.000 C 
ATOM     13  S   UNL     1       1.450   3.415  18.643  0.00  0.00    +0.000 S 
ENDBRANCH   6  13
ENDBRANCH   3   9
ENDBRANCH   1   3
BRANCH   1  14
ATOM     14  C   UNL     1       7.049   8.088  17.669  0.00  0.00    +0.000 C 
BRANCH  14  15
ATOM     15  C   UNL     1       8.313   8.938  17.590  0.00  0.00    +0.000 C 
BRANCH  15  16
ATOM     16  O   UNL     1       8.284   9.979  18.566  0.00  0.00    +0.000 OA
BRANCH  16  17
ATOM     17  C   UNL     1       9.193  10.989  18.342  0.00  0.00    +0.000 A 
ATOM     18  C   UNL     1      10.462  10.755  18.895  0.00  0.00    +0.000 A 
ATOM     19  C   UNL     1      11.463  11.726  18.832  0.00  0.00    +0.000 A 
ATOM     20  C   UNL     1      11.204  12.945  18.216  0.00  0.00    +0.000 A 
ATOM     21  C   UNL     1       9.950  13.184  17.659  0.00  0.00    +0.000 A 
ATOM     22  C   UNL     1       8.924  12.223  17.724  0.00  0.00    +0.000 A 
ATOM     23  C   UNL     1       7.602  12.608  17.123  0.00  0.00    +0.000 C 
ENDBRANCH  16  17
ENDBRANCH  15  16
ENDBRANCH  14  15
ENDBRANCH   1  14
TORSDOF 7
ENDMDL
MODEL 9
REMARK VINA RESULT:      -6.9      5.226      8.193
REMARK  Name = 
REMARK  9 active torsions:
REMARK  status: ('A' for Active; 'I' for Inactive)
REMARK    1  A    between atoms: C_1  and  S_2
REMARK    2  A    between atoms: S_2  and  C_3
REMARK    3  A    between atoms: C_6  and  S_7
REMARK    4  A    between atoms: S_7  and  N_10
REMARK    5  A    between atoms: N_10  and  C_11
REMARK    6  A    between atoms: C_11  and  C_12
REMARK    7  A    between atoms: C_12  and  O_13
REMARK    8  A    between atoms: O_13  and  C_14
REMARK    9  A    between atoms: C_19  and  C_20
REMARK                            x       y       z     vdW  Elec       q    Type
REMARK                         _______ _______ _______ _____ _____    ______ ____
ROOT
ATOM      1  N   UNL     1       5.057   3.481  17.321  0.00  0.00    +0.000 NA
ATOM      2  H   UNL     1       5.106   2.679  17.948  0.00  0.00    +0.000 HD
ENDROOT
BRANCH   1   3
ATOM      3  S   UNL     1       5.911   4.813  17.893  0.00  0.00    +0.000 S 
ATOM      4  O   UNL     1       6.716   5.347  16.818  0.00  0.00    +0.000 OA
ATOM      5  O   UNL     1       6.496   4.416  19.157  0.00  0.00    +0.000 OA
BRANCH   3   9
ATOM      6  C   UNL     1       2.474   7.647  18.839  0.00  0.00    +0.000 A 
ATOM      7  C   UNL     1       2.750   6.552  19.667  0.00  0.00    +0.000 A 
ATOM      8  C   UNL     1       3.819   5.709  19.378  0.00  0.00    +0.000 A 
ATOM      9  C   UNL     1       4.598   5.948  18.244  0.00  0.00    +0.000 A 
ATOM     10  C   UNL     1       4.313   7.012  17.385  0.00  0.00    +0.000 A 
ATOM     11  C   UNL     1       3.244   7.862  17.689  0.00  0.00    +0.000 A 
BRANCH   6  13
ATOM     12  C   UNL     1       1.614  10.148  18.155  0.00  0.00    +0.000 C 
ATOM     13  S   UNL     1       1.157   8.774  19.250  0.00  0.00    +0.000 S 
ENDBRANCH   6  13
ENDBRANCH   3   9
ENDBRANCH   1   3
BRANCH   1  14
ATOM     14  C   UNL     1       3.830   3.651  16.516  0.00  0.00    +0.000 C 
BRANCH  14  15
ATOM     15  C   UNL     1       2.774   2.606  16.859  0.00  0.00    +0.000 C 
BRANCH  15  16
ATOM     16  O   UNL     1       3.183   1.820  17.977  0.00  0.00    +0.000 OA
BRANCH  16  17
ATOM     17  C   UNL     1       2.646   2.222  19.179  0.00  0.00    +0.000 A 
ATOM     18  C   UNL     1       1.326   2.692  19.092  0.00  0.00    +0.000 A 
ATOM     19  C   UNL     1       0.677   3.221  20.209  0.00  0.00    +0.000 A 
ATOM     20  C   UNL     1       1.342   3.288  21.427  0.00  0.00    +0.000 A 
ATOM     21  C   UNL     1       2.650   2.818  21.525  0.00  0.00    +0.000 A 
ATOM     22  C   UNL     1       3.326   2.293  20.408  0.00  0.00    +0.000 A 
ATOM     23  C   UNL     1       4.746   1.853  20.625  0.00  0.00    +0.000 C 
ENDBRANCH  16  17
ENDBRANCH  15  16
ENDBRANCH  14  15
ENDBRANCH   1  14
TORSDOF 7
ENDMDL
