MODEL 1
REMARK VINA RESULT:      -8.6      0.000      0.000
REMARK  Name = 
REMARK  12 active torsions:
REMARK  status: ('A' for Active; 'I' for Inactive)
REMARK    1  A    between atoms: C_1  and  C_2
REMARK    2  A    between atoms: C_5  and  C_6
REMARK    3  A    between atoms: C_6  and  O_7
REMARK    4  A    between atoms: C_6  and  C_8
REMARK    5  A    between atoms: C_6  and  C_28
REMARK    6  A    between atoms: N_10  and  C_11
REMARK    7  A    between atoms: C_11  and  C_12
REMARK    8  A    between atoms: C_12  and  C_13
REMARK    9  A    between atoms: C_13  and  N_14
REMARK   10  A    between atoms: C_17  and  C_18
REMARK   11  A    between atoms: C_17  and  C_20
REMARK   12  A    between atoms: C_31  and  C_32
REMARK                            x       y       z     vdW  Elec       q    Type
REMARK                         _______ _______ _______ _____ _____    ______ ____
ROOT
ATOM      1  C   UNL     1       6.779   6.139  17.089  0.00  0.00    +0.000 C 
ATOM      2  O   UNL     1       7.397   5.272  17.707  0.00  0.00    +0.000 OA
ATOM      3  N   UNL     1       7.139   7.473  17.189  0.00  0.00    +0.000 N 
ATOM      4  H   UNL     1       6.456   8.123  16.809  0.00  0.00    +0.000 HD
ENDROOT
BRANCH   1   5
ATOM      5  C   UNL     1       5.517   5.818  16.166  0.00  0.00    +0.000 C 
BRANCH   5  10
ATOM      6  C   UNL     1       6.952   2.726  11.360  0.00  0.00    +0.000 C 
ATOM      7  C   UNL     1       6.567   3.590  12.525  0.00  0.00    +0.000 A 
ATOM      8  C   UNL     1       7.513   4.400  13.155  0.00  0.00    +0.000 A 
ATOM      9  C   UNL     1       7.173   5.155  14.286  0.00  0.00    +0.000 A 
ATOM     10  C   UNL     1       5.878   5.118  14.829  0.00  0.00    +0.000 A 
ATOM     11  C   UNL     1       4.930   4.303  14.173  0.00  0.00    +0.000 A 
ATOM     12  C   UNL     1       5.266   3.561  13.031  0.00  0.00    +0.000 A 
ENDBRANCH   5  10
BRANCH   5  13
ATOM     13  C   UNL     1       4.484   4.973  16.944  0.00  0.00    +0.000 A 
ATOM     14  C   UNL     1       3.399   5.601  17.599  0.00  0.00    +0.000 A 
ATOM     15  C   UNL     1       2.487   4.867  18.368  0.00  0.00    +0.000 A 
ATOM     16  C   UNL     1       2.620   3.488  18.503  0.00  0.00    +0.000 A 
ATOM     17  C   UNL     1       1.645   2.706  19.337  0.00  0.00    +0.000 C 
ATOM     18  C   UNL     1       3.676   2.848  17.846  0.00  0.00    +0.000 A 
ATOM     19  C   UNL     1       4.596   3.579  17.078  0.00  0.00    +0.000 A 
ENDBRANCH   5  13
BRANCH   5  20
ATOM     20  O   UNL     1       4.939   7.109  15.842  0.00  0.00    +0.000 OA
ATOM     21  H   UNL     1       5.672   7.645  15.491  0.00  0.00    +0.000 HD
ENDBRANCH   5  20
ENDBRANCH   1   5
BRANCH   3  22
ATOM     22  C   UNL     1       8.110   7.949  18.172  0.00  0.00    +0.000 C 
BRANCH  22  23
ATOM     23  C   UNL     1       8.447   9.451  18.041  0.00  0.00    +0.000 C 
BRANCH  23  24
ATOM     24  C   UNL     1       9.195   9.983  19.290  0.00  0.00    +0.000 C 
BRANCH  24  25
ATOM     25  N   UNL     1       9.810  11.323  19.158  0.00  0.00    +0.000 NA
ATOM     26  C   UNL     1       9.484  12.192  20.280  0.00  0.00    +0.000 C 
ATOM     27  C   UNL     1      10.111  13.590  20.019  0.00  0.00    +0.000 C 
ATOM     28  C   UNL     1       9.187  14.450  18.971  0.00  0.00    +0.000 C 
ATOM     29  C   UNL     1       8.910  13.414  17.828  0.00  0.00    +0.000 C 
ATOM     30  C   UNL     1       9.688  12.033  17.878  0.00  0.00    +0.000 C 
BRANCH  28  31
ATOM     31  C   UNL     1       9.976  15.701  18.616  0.00  0.00    +0.000 A 
ATOM     32  C   UNL     1      10.931  15.670  17.578  0.00  0.00    +0.000 A 
ATOM     33  C   UNL     1      11.731  16.776  17.289  0.00  0.00    +0.000 A 
ATOM     34  C   UNL     1      11.576  17.951  18.016  0.00  0.00    +0.000 A 
ATOM     35  C   UNL     1      10.629  18.011  19.034  0.00  0.00    +0.000 A 
ATOM     36  C   UNL     1       9.835  16.897  19.334  0.00  0.00    +0.000 A 
ENDBRANCH  28  31
BRANCH  28  37
ATOM     37  C   UNL     1       8.094  14.599  20.018  0.00  0.00    +0.000 C 
ATOM     38  N   UNL     1       7.188  14.722  20.885  0.00  0.00    +0.000 NA
ENDBRANCH  28  37
ENDBRANCH  24  25
ENDBRANCH  23  24
ENDBRANCH  22  23
ENDBRANCH   3  22
TORSDOF 10
ENDMDL
MODEL 2
REMARK VINA RESULT:      -8.5      1.580      4.091
REMARK  Name = 
REMARK  12 active torsions:
REMARK  status: ('A' for Active; 'I' for Inactive)
REMARK    1  A    between atoms: C_1  and  C_2
REMARK    2  A    between atoms: C_5  and  C_6
REMARK    3  A    between atoms: C_6  and  O_7
REMARK    4  A    between atoms: C_6  and  C_8
REMARK    5  A    between atoms: C_6  and  C_28
REMARK    6  A    between atoms: N_10  and  C_11
REMARK    7  A    between atoms: C_11  and  C_12
REMARK    8  A    between atoms: C_12  and  C_13
REMARK    9  A    between atoms: C_13  and  N_14
REMARK   10  A    between atoms: C_17  and  C_18
REMARK   11  A    between atoms: C_17  and  C_20
REMARK   12  A    between atoms: C_31  and  C_32
REMARK                            x       y       z     vdW  Elec       q    Type
REMARK                         _______ _______ _______ _____ _____    ______ ____
ROOT
ATOM      1  C   UNL     1       7.282   5.606  18.377  0.00  0.00    +0.000 C 
ATOM      2  O   UNL     1       8.121   4.972  19.016  0.00  0.00    +0.000 OA
ATOM      3  N   UNL     1       7.460   6.955  18.116  0.00  0.00    +0.000 N 
ATOM      4  H   UNL     1       6.632   7.428  17.763  0.00  0.00    +0.000 HD
ENDROOT
BRANCH   1   5
ATOM      5  C   UNL     1       5.928   4.957  17.833  0.00  0.00    +0.000 C 
BRANCH   5  10
ATOM      6  C   UNL     1       1.492   8.715  18.794  0.00  0.00    +0.000 C 
ATOM      7  C   UNL     1       2.558   7.700  18.501  0.00  0.00    +0.000 A 
ATOM      8  C   UNL     1       2.778   6.626  19.366  0.00  0.00    +0.000 A 
ATOM      9  C   UNL     1       3.817   5.716  19.131  0.00  0.00    +0.000 A 
ATOM     10  C   UNL     1       4.678   5.855  18.030  0.00  0.00    +0.000 A 
ATOM     11  C   UNL     1       4.436   6.940  17.159  0.00  0.00    +0.000 A 
ATOM     12  C   UNL     1       3.384   7.840  17.384  0.00  0.00    +0.000 A 
ENDBRANCH   5  10
BRANCH   5  13
ATOM     13  C   UNL     1       6.077   4.576  16.343  0.00  0.00    +0.000 A 
ATOM     14  C   UNL     1       7.203   5.010  15.607  0.00  0.00    +0.000 A 
ATOM     15  C   UNL     1       7.331   4.737  14.238  0.00  0.00    +0.000 A 
ATOM     16  C   UNL     1       6.348   4.018  13.564  0.00  0.00    +0.000 A 
ATOM     17  C   UNL     1       6.484   3.736  12.095  0.00  0.00    +0.000 C 
ATOM     18  C   UNL     1       5.237   3.564  14.282  0.00  0.00    +0.000 A 
ATOM     19  C   UNL     1       5.101   3.839  15.652  0.00  0.00    +0.000 A 
ENDBRANCH   5  13
BRANCH   5  20
ATOM     20  O   UNL     1       5.733   3.756  18.622  0.00  0.00    +0.000 OA
ATOM     21  H   UNL     1       5.906   4.015  19.544  0.00  0.00    +0.000 HD
ENDBRANCH   5  20
ENDBRANCH   1   5
BRANCH   3  22
ATOM     22  C   UNL     1       8.519   7.739  18.747  0.00  0.00    +0.000 C 
BRANCH  22  23
ATOM     23  C   UNL     1       8.493   9.238  18.374  0.00  0.00    +0.000 C 
BRANCH  23  24
ATOM     24  C   UNL     1       9.169  10.113  19.460  0.00  0.00    +0.000 C 
BRANCH  24  25
ATOM     25  N   UNL     1       9.731  11.403  19.001  0.00  0.00    +0.000 NA
ATOM     26  C   UNL     1      10.426  12.113  20.066  0.00  0.00    +0.000 C 
ATOM     27  C   UNL     1      10.916  13.478  19.509  0.00  0.00    +0.000 C 
ATOM     28  C   UNL     1       9.684  14.562  19.471  0.00  0.00    +0.000 C 
ATOM     29  C   UNL     1       8.525  13.740  18.810  0.00  0.00    +0.000 C 
ATOM     30  C   UNL     1       8.875  12.309  18.223  0.00  0.00    +0.000 C 
BRANCH  28  31
ATOM     31  C   UNL     1      10.199  15.784  18.726  0.00  0.00    +0.000 A 
ATOM     32  C   UNL     1      11.162  15.642  17.704  0.00  0.00    +0.000 A 
ATOM     33  C   UNL     1      11.716  16.751  17.064  0.00  0.00    +0.000 A 
ATOM     34  C   UNL     1      11.301  18.031  17.415  0.00  0.00    +0.000 A 
ATOM     35  C   UNL     1      10.341  18.196  18.410  0.00  0.00    +0.000 A 
ATOM     36  C   UNL     1       9.793  17.084  19.061  0.00  0.00    +0.000 A 
ENDBRANCH  28  31
BRANCH  28  37
ATOM     37  C   UNL     1       9.670  14.636  20.990  0.00  0.00    +0.000 C 
ATOM     38  N   UNL     1       9.658  14.696  22.249  0.00  0.00    +0.000 NA
ENDBRANCH  28  37
ENDBRANCH  24  25
ENDBRANCH  23  24
ENDBRANCH  22  23
ENDBRANCH   3  22
TORSDOF 10
ENDMDL
MODEL 3
REMARK VINA RESULT:      -8.4      5.404     10.634
REMARK  Name = 
REMARK  12 active torsions:
REMARK  status: ('A' for Active; 'I' for Inactive)
REMARK    1  A    between atoms: C_1  and  C_2
REMARK    2  A    between atoms: C_5  and  C_6
REMARK    3  A    between atoms: C_6  and  O_7
REMARK    4  A    between atoms: C_6  and  C_8
REMARK    5  A    between atoms: C_6  and  C_28
REMARK    6  A    between atoms: N_10  and  C_11
REMARK    7  A    between atoms: C_11  and  C_12
REMARK    8  A    between atoms: C_12  and  C_13
REMARK    9  A    between atoms: C_13  and  N_14
REMARK   10  A    between atoms: C_17  and  C_18
REMARK   11  A    between atoms: C_17  and  C_20
REMARK   12  A    between atoms: C_31  and  C_32
REMARK                            x       y       z     vdW  Elec       q    Type
REMARK                         _______ _______ _______ _____ _____    ______ ____
ROOT
ATOM      1  C   UNL     1       0.047   9.532  20.661  0.00  0.00    +0.000 C 
ATOM      2  O   UNL     1      -0.452   8.967  21.634  0.00  0.00    +0.000 OA
ATOM      3  N   UNL     1       1.081   8.944  19.953  0.00  0.00    +0.000 N 
ATOM      4  H   UNL     1       1.552   9.566  19.302  0.00  0.00    +0.000 HD
ENDROOT
BRANCH   1   5
ATOM      5  C   UNL     1      -0.418  10.975  20.160  0.00  0.00    +0.000 C 
BRANCH   5  10
ATOM      6  C   UNL     1       3.734  14.984  18.971  0.00  0.00    +0.000 C 
ATOM      7  C   UNL     1       2.744  13.892  19.257  0.00  0.00    +0.000 A 
ATOM      8  C   UNL     1       1.989  13.327  18.227  0.00  0.00    +0.000 A 
ATOM      9  C   UNL     1       1.015  12.357  18.500  0.00  0.00    +0.000 A 
ATOM     10  C   UNL     1       0.756  11.928  19.813  0.00  0.00    +0.000 A 
ATOM     11  C   UNL     1       1.536  12.501  20.841  0.00  0.00    +0.000 A 
ATOM     12  C   UNL     1       2.523  13.458  20.566  0.00  0.00    +0.000 A 
ENDBRANCH   5  10
BRANCH   5  13
ATOM     13  C   UNL     1      -1.368  10.841  18.948  0.00  0.00    +0.000 A 
ATOM     14  C   UNL     1      -1.076   9.923  17.913  0.00  0.00    +0.000 A 
ATOM     15  C   UNL     1      -1.882   9.828  16.771  0.00  0.00    +0.000 A 
ATOM     16  C   UNL     1      -3.006  10.638  16.627  0.00  0.00    +0.000 A 
ATOM     17  C   UNL     1      -3.862  10.540  15.397  0.00  0.00    +0.000 C 
ATOM     18  C   UNL     1      -3.320  11.538  17.651  0.00  0.00    +0.000 A 
ATOM     19  C   UNL     1      -2.513  11.640  18.795  0.00  0.00    +0.000 A 
ENDBRANCH   5  13
BRANCH   5  20
ATOM     20  O   UNL     1      -1.139  11.557  21.276  0.00  0.00    +0.000 OA
ATOM     21  H   UNL     1      -2.016  11.133  21.272  0.00  0.00    +0.000 HD
ENDBRANCH   5  20
ENDBRANCH   1   5
BRANCH   3  22
ATOM     22  C   UNL     1       1.772   7.747  20.427  0.00  0.00    +0.000 C 
BRANCH  22  23
ATOM     23  C   UNL     1       2.891   7.255  19.483  0.00  0.00    +0.000 C 
BRANCH  23  24
ATOM     24  C   UNL     1       2.755   5.743  19.170  0.00  0.00    +0.000 C 
BRANCH  24  25
ATOM     25  N   UNL     1       3.328   5.291  17.882  0.00  0.00    +0.000 NA
ATOM     26  C   UNL     1       4.404   4.327  18.065  0.00  0.00    +0.000 C 
ATOM     27  C   UNL     1       4.985   3.968  16.669  0.00  0.00    +0.000 C 
ATOM     28  C   UNL     1       6.007   5.142  16.150  0.00  0.00    +0.000 C 
ATOM     29  C   UNL     1       5.190   6.452  16.420  0.00  0.00    +0.000 C 
ATOM     30  C   UNL     1       3.677   6.299  16.872  0.00  0.00    +0.000 C 
BRANCH  28  31
ATOM     31  C   UNL     1       6.357   4.812  14.707  0.00  0.00    +0.000 A 
ATOM     32  C   UNL     1       5.610   3.849  13.995  0.00  0.00    +0.000 A 
ATOM     33  C   UNL     1       5.962   3.462  12.702  0.00  0.00    +0.000 A 
ATOM     34  C   UNL     1       7.057   4.049  12.078  0.00  0.00    +0.000 A 
ATOM     35  C   UNL     1       7.800   5.013  12.754  0.00  0.00    +0.000 A 
ATOM     36  C   UNL     1       7.455   5.393  14.057  0.00  0.00    +0.000 A 
ENDBRANCH  28  31
BRANCH  28  37
ATOM     37  C   UNL     1       7.026   4.759  17.211  0.00  0.00    +0.000 C 
ATOM     38  N   UNL     1       7.871   4.442  18.091  0.00  0.00    +0.000 NA
ENDBRANCH  28  37
ENDBRANCH  24  25
ENDBRANCH  23  24
ENDBRANCH  22  23
ENDBRANCH   3  22
TORSDOF 10
ENDMDL
MODEL 4
REMARK VINA RESULT:      -8.2      1.655      2.435
REMARK  Name = 
REMARK  12 active torsions:
REMARK  status: ('A' for Active; 'I' for Inactive)
REMARK    1  A    between atoms: C_1  and  C_2
REMARK    2  A    between atoms: C_5  and  C_6
REMARK    3  A    between atoms: C_6  and  O_7
REMARK    4  A    between atoms: C_6  and  C_8
REMARK    5  A    between atoms: C_6  and  C_28
REMARK    6  A    between atoms: N_10  and  C_11
REMARK    7  A    between atoms: C_11  and  C_12
REMARK    8  A    between atoms: C_12  and  C_13
REMARK    9  A    between atoms: C_13  and  N_14
REMARK   10  A    between atoms: C_17  and  C_18
REMARK   11  A    between atoms: C_17  and  C_20
REMARK   12  A    between atoms: C_31  and  C_32
REMARK                            x       y       z     vdW  Elec       q    Type
REMARK                         _______ _______ _______ _____ _____    ______ ____
ROOT
ATOM      1  C   UNL     1       6.432   6.352  17.641  0.00  0.00    +0.000 C 
ATOM      2  O   UNL     1       6.680   5.850  18.737  0.00  0.00    +0.000 OA
ATOM      3  N   UNL     1       7.181   7.414  17.162  0.00  0.00    +0.000 N 
ATOM      4  H   UNL     1       6.779   7.882  16.354  0.00  0.00    +0.000 HD
ENDROOT
BRANCH   1   5
ATOM      5  C   UNL     1       5.232   5.860  16.709  0.00  0.00    +0.000 C 
BRANCH   5  10
ATOM      6  C   UNL     1       6.980   3.292  11.702  0.00  0.00    +0.000 C 
ATOM      7  C   UNL     1       6.547   3.859  13.023  0.00  0.00    +0.000 A 
ATOM      8  C   UNL     1       5.210   3.803  13.419  0.00  0.00    +0.000 A 
ATOM      9  C   UNL     1       4.791   4.393  14.619  0.00  0.00    +0.000 A 
ATOM     10  C   UNL     1       5.693   5.067  15.458  0.00  0.00    +0.000 A 
ATOM     11  C   UNL     1       7.045   5.105  15.049  0.00  0.00    +0.000 A 
ATOM     12  C   UNL     1       7.467   4.499  13.857  0.00  0.00    +0.000 A 
ENDBRANCH   5  10
BRANCH   5  13
ATOM     13  C   UNL     1       4.227   5.021  17.529  0.00  0.00    +0.000 A 
ATOM     14  C   UNL     1       2.983   5.573  17.911  0.00  0.00    +0.000 A 
ATOM     15  C   UNL     1       2.081   4.859  18.711  0.00  0.00    +0.000 A 
ATOM     16  C   UNL     1       2.385   3.573  19.148  0.00  0.00    +0.000 A 
ATOM     17  C   UNL     1       1.420   2.815  20.014  0.00  0.00    +0.000 C 
ATOM     18  C   UNL     1       3.603   3.003  18.763  0.00  0.00    +0.000 A 
ATOM     19  C   UNL     1       4.513   3.716  17.965  0.00  0.00    +0.000 A 
ENDBRANCH   5  13
BRANCH   5  20
ATOM     20  O   UNL     1       4.584   7.072  16.245  0.00  0.00    +0.000 OA
ATOM     21  H   UNL     1       4.064   6.810  15.465  0.00  0.00    +0.000 HD
ENDBRANCH   5  20
ENDBRANCH   1   5
BRANCH   3  22
ATOM     22  C   UNL     1       8.149   8.126  17.993  0.00  0.00    +0.000 C 
BRANCH  22  23
ATOM     23  C   UNL     1       7.970   9.660  17.986  0.00  0.00    +0.000 C 
BRANCH  23  24
ATOM     24  C   UNL     1       9.326  10.398  18.132  0.00  0.00    +0.000 C 
BRANCH  24  25
ATOM     25  N   UNL     1       9.350  11.533  19.082  0.00  0.00    +0.000 NA
ATOM     26  C   UNL     1       9.158  12.814  18.416  0.00  0.00    +0.000 C 
ATOM     27  C   UNL     1       9.269  13.942  19.479  0.00  0.00    +0.000 C 
ATOM     28  C   UNL     1      10.842  14.258  19.821  0.00  0.00    +0.000 C 
ATOM     29  C   UNL     1      11.441  12.826  20.035  0.00  0.00    +0.000 C 
ATOM     30  C   UNL     1      10.433  11.602  20.072  0.00  0.00    +0.000 C 
BRANCH  28  31
ATOM     31  C   UNL     1      10.850  15.212  21.006  0.00  0.00    +0.000 A 
ATOM     32  C   UNL     1      10.028  14.963  22.126  0.00  0.00    +0.000 A 
ATOM     33  C   UNL     1       9.948  15.865  23.188  0.00  0.00    +0.000 A 
ATOM     34  C   UNL     1      10.709  17.028  23.166  0.00  0.00    +0.000 A 
ATOM     35  C   UNL     1      11.539  17.288  22.080  0.00  0.00    +0.000 A 
ATOM     36  C   UNL     1      11.611  16.390  21.008  0.00  0.00    +0.000 A 
ENDBRANCH  28  31
BRANCH  28  37
ATOM     37  C   UNL     1      11.045  14.869  18.444  0.00  0.00    +0.000 C 
ATOM     38  N   UNL     1      11.212  15.375  17.302  0.00  0.00    +0.000 NA
ENDBRANCH  28  37
ENDBRANCH  24  25
ENDBRANCH  23  24
ENDBRANCH  22  23
ENDBRANCH   3  22
TORSDOF 10
ENDMDL
MODEL 5
REMARK VINA RESULT:      -8.2      1.781      4.521
REMARK  Name = 
REMARK  12 active torsions:
REMARK  status: ('A' for Active; 'I' for Inactive)
REMARK    1  A    between atoms: C_1  and  C_2
REMARK    2  A    between atoms: C_5  and  C_6
REMARK    3  A    between atoms: C_6  and  O_7
REMARK    4  A    between atoms: C_6  and  C_8
REMARK    5  A    between atoms: C_6  and  C_28
REMARK    6  A    between atoms: N_10  and  C_11
REMARK    7  A    between atoms: C_11  and  C_12
REMARK    8  A    between atoms: C_12  and  C_13
REMARK    9  A    between atoms: C_13  and  N_14
REMARK   10  A    between atoms: C_17  and  C_18
REMARK   11  A    between atoms: C_17  and  C_20
REMARK   12  A    between atoms: C_31  and  C_32
REMARK                            x       y       z     vdW  Elec       q    Type
REMARK                         _______ _______ _______ _____ _____    ______ ____
ROOT
ATOM      1  C   UNL     1       7.220   5.918  18.460  0.00  0.00    +0.000 C 
ATOM      2  O   UNL     1       7.948   5.458  19.339  0.00  0.00    +0.000 OA
ATOM      3  N   UNL     1       7.500   7.143  17.876  0.00  0.00    +0.000 N 
ATOM      4  H   UNL     1       6.743   7.523  17.314  0.00  0.00    +0.000 HD
ENDROOT
BRANCH   1   5
ATOM      5  C   UNL     1       5.901   5.179  17.947  0.00  0.00    +0.000 C 
BRANCH   5  10
ATOM      6  C   UNL     1       1.240   8.608  19.062  0.00  0.00    +0.000 C 
ATOM      7  C   UNL     1       2.367   7.673  18.731  0.00  0.00    +0.000 A 
ATOM      8  C   UNL     1       2.683   6.609  19.577  0.00  0.00    +0.000 A 
ATOM      9  C   UNL     1       3.776   5.776  19.306  0.00  0.00    +0.000 A 
ATOM     10  C   UNL     1       4.597   5.985  18.185  0.00  0.00    +0.000 A 
ATOM     11  C   UNL     1       4.257   7.059  17.333  0.00  0.00    +0.000 A 
ATOM     12  C   UNL     1       3.151   7.881  17.594  0.00  0.00    +0.000 A 
ENDBRANCH   5  10
BRANCH   5  13
ATOM     13  C   UNL     1       6.035   4.820  16.450  0.00  0.00    +0.000 A 
ATOM     14  C   UNL     1       5.025   4.072  15.804  0.00  0.00    +0.000 A 
ATOM     15  C   UNL     1       5.152   3.673  14.467  0.00  0.00    +0.000 A 
ATOM     16  C   UNL     1       6.283   4.014  13.730  0.00  0.00    +0.000 A 
ATOM     17  C   UNL     1       6.420   3.577  12.300  0.00  0.00    +0.000 C 
ATOM     18  C   UNL     1       7.284   4.771  14.348  0.00  0.00    +0.000 A 
ATOM     19  C   UNL     1       7.164   5.168  15.689  0.00  0.00    +0.000 A 
ENDBRANCH   5  13
BRANCH   5  20
ATOM     20  O   UNL     1       5.813   3.961  18.729  0.00  0.00    +0.000 OA
ATOM     21  H   UNL     1       4.868   3.851  18.939  0.00  0.00    +0.000 HD
ENDBRANCH   5  20
ENDBRANCH   1   5
BRANCH   3  22
ATOM     22  C   UNL     1       8.525   8.042  18.401  0.00  0.00    +0.000 C 
BRANCH  22  23
ATOM     23  C   UNL     1       8.214   9.539  18.182  0.00  0.00    +0.000 C 
BRANCH  23  24
ATOM     24  C   UNL     1       9.450  10.431  18.465  0.00  0.00    +0.000 C 
BRANCH  24  25
ATOM     25  N   UNL     1       9.168  11.835  18.841  0.00  0.00    +0.000 NA
ATOM     26  C   UNL     1       9.565  12.774  17.802  0.00  0.00    +0.000 C 
ATOM     27  C   UNL     1       9.297  14.217  18.314  0.00  0.00    +0.000 C 
ATOM     28  C   UNL     1      10.491  14.700  19.330  0.00  0.00    +0.000 C 
ATOM     29  C   UNL     1      10.643  13.470  20.290  0.00  0.00    +0.000 C 
ATOM     30  C   UNL     1       9.574  12.304  20.172  0.00  0.00    +0.000 C 
BRANCH  28  31
ATOM     31  C   UNL     1      10.043  16.020  19.938  0.00  0.00    +0.000 A 
ATOM     32  C   UNL     1       8.680  16.245  20.225  0.00  0.00    +0.000 A 
ATOM     33  C   UNL     1       8.228  17.477  20.700  0.00  0.00    +0.000 A 
ATOM     34  C   UNL     1       9.134  18.507  20.923  0.00  0.00    +0.000 A 
ATOM     35  C   UNL     1      10.486  18.304  20.662  0.00  0.00    +0.000 A 
ATOM     36  C   UNL     1      10.939  17.072  20.174  0.00  0.00    +0.000 A 
ENDBRANCH  28  31
BRANCH  28  37
ATOM     37  C   UNL     1      11.478  14.773  18.176  0.00  0.00    +0.000 C 
ATOM     38  N   UNL     1      12.295  14.832  17.218  0.00  0.00    +0.000 NA
ENDBRANCH  28  37
ENDBRANCH  24  25
ENDBRANCH  23  24
ENDBRANCH  22  23
ENDBRANCH   3  22
TORSDOF 10
ENDMDL
MODEL 6
REMARK VINA RESULT:      -8.1      5.246     10.611
REMARK  Name = 
REMARK  12 active torsions:
REMARK  status: ('A' for Active; 'I' for Inactive)
REMARK    1  A    between atoms: C_1  and  C_2
REMARK    2  A    between atoms: C_5  and  C_6
REMARK    3  A    between atoms: C_6  and  O_7
REMARK    4  A    between atoms: C_6  and  C_8
REMARK    5  A    between atoms: C_6  and  C_28
REMARK    6  A    between atoms: N_10  and  C_11
REMARK    7  A    between atoms: C_11  and  C_12
REMARK    8  A    between atoms: C_12  and  C_13
REMARK    9  A    between atoms: C_13  and  N_14
REMARK   10  A    between atoms: C_17  and  C_18
REMARK   11  A    between atoms: C_17  and  C_20
REMARK   12  A    between atoms: C_31  and  C_32
REMARK                            x       y       z     vdW  Elec       q    Type
REMARK                         _______ _______ _______ _____ _____    ______ ____
ROOT
ATOM      1  C   UNL     1       1.175   9.483  19.735  0.00  0.00    +0.000 C 
ATOM      2  O   UNL     1       1.583   9.136  18.627  0.00  0.00    +0.000 OA
ATOM      3  N   UNL     1       1.354   8.671  20.842  0.00  0.00    +0.000 N 
ATOM      4  H   UNL     1       0.814   8.947  21.658  0.00  0.00    +0.000 HD
ENDROOT
BRANCH   1   5
ATOM      5  C   UNL     1       0.393  10.853  19.986  0.00  0.00    +0.000 C 
BRANCH   5  10
ATOM      6  C   UNL     1       3.262  15.919  19.080  0.00  0.00    +0.000 C 
ATOM      7  C   UNL     1       2.617  14.589  19.340  0.00  0.00    +0.000 A 
ATOM      8  C   UNL     1       2.577  13.609  18.346  0.00  0.00    +0.000 A 
ATOM      9  C   UNL     1       1.915  12.393  18.562  0.00  0.00    +0.000 A 
ATOM     10  C   UNL     1       1.262  12.120  19.776  0.00  0.00    +0.000 A 
ATOM     11  C   UNL     1       1.321  13.117  20.775  0.00  0.00    +0.000 A 
ATOM     12  C   UNL     1       1.999  14.326  20.565  0.00  0.00    +0.000 A 
ENDBRANCH   5  10
BRANCH   5  13
ATOM     13  C   UNL     1      -0.868  10.921  19.094  0.00  0.00    +0.000 A 
ATOM     14  C   UNL     1      -1.923  11.803  19.420  0.00  0.00    +0.000 A 
ATOM     15  C   UNL     1      -3.105  11.837  18.669  0.00  0.00    +0.000 A 
ATOM     16  C   UNL     1      -3.270  11.002  17.567  0.00  0.00    +0.000 A 
ATOM     17  C   UNL     1      -4.543  11.034  16.770  0.00  0.00    +0.000 C 
ATOM     18  C   UNL     1      -2.227  10.137  17.219  0.00  0.00    +0.000 A 
ATOM     19  C   UNL     1      -1.043  10.095  17.971  0.00  0.00    +0.000 A 
ENDBRANCH   5  13
BRANCH   5  20
ATOM     20  O   UNL     1      -0.004  10.819  21.380  0.00  0.00    +0.000 OA
ATOM     21  H   UNL     1       0.780  10.514  21.869  0.00  0.00    +0.000 HD
ENDBRANCH   5  20
ENDBRANCH   1   5
BRANCH   3  22
ATOM     22  C   UNL     1       1.832   7.295  20.733  0.00  0.00    +0.000 C 
BRANCH  22  23
ATOM     23  C   UNL     1       2.214   6.878  19.295  0.00  0.00    +0.000 C 
BRANCH  23  24
ATOM     24  C   UNL     1       3.320   5.792  19.286  0.00  0.00    +0.000 C 
BRANCH  24  25
ATOM     25  N   UNL     1       3.771   5.334  17.953  0.00  0.00    +0.000 NA
ATOM     26  C   UNL     1       4.802   4.309  18.042  0.00  0.00    +0.000 C 
ATOM     27  C   UNL     1       5.259   3.945  16.601  0.00  0.00    +0.000 C 
ATOM     28  C   UNL     1       6.305   5.071  16.026  0.00  0.00    +0.000 C 
ATOM     29  C   UNL     1       5.585   6.418  16.376  0.00  0.00    +0.000 C 
ATOM     30  C   UNL     1       4.103   6.340  16.936  0.00  0.00    +0.000 C 
BRANCH  28  31
ATOM     31  C   UNL     1       6.531   4.749  14.557  0.00  0.00    +0.000 A 
ATOM     32  C   UNL     1       5.747   3.767  13.915  0.00  0.00    +0.000 A 
ATOM     33  C   UNL     1       5.990   3.389  12.593  0.00  0.00    +0.000 A 
ATOM     34  C   UNL     1       7.007   4.004  11.874  0.00  0.00    +0.000 A 
ATOM     35  C   UNL     1       7.783   4.988  12.481  0.00  0.00    +0.000 A 
ATOM     36  C   UNL     1       7.549   5.358  13.811  0.00  0.00    +0.000 A 
ENDBRANCH  28  31
BRANCH  28  37
ATOM     37  C   UNL     1       7.375   4.611  17.004  0.00  0.00    +0.000 C 
ATOM     38  N   UNL     1       8.263   4.231  17.814  0.00  0.00    +0.000 NA
ENDBRANCH  28  37
ENDBRANCH  24  25
ENDBRANCH  23  24
ENDBRANCH  22  23
ENDBRANCH   3  22
TORSDOF 10
ENDMDL
MODEL 7
REMARK VINA RESULT:      -8.1      5.427     10.775
REMARK  Name = 
REMARK  12 active torsions:
REMARK  status: ('A' for Active; 'I' for Inactive)
REMARK    1  A    between atoms: C_1  and  C_2
REMARK    2  A    between atoms: C_5  and  C_6
REMARK    3  A    between atoms: C_6  and  O_7
REMARK    4  A    between atoms: C_6  and  C_8
REMARK    5  A    between atoms: C_6  and  C_28
REMARK    6  A    between atoms: N_10  and  C_11
REMARK    7  A    between atoms: C_11  and  C_12
REMARK    8  A    between atoms: C_12  and  C_13
REMARK    9  A    between atoms: C_13  and  N_14
REMARK   10  A    between atoms: C_17  and  C_18
REMARK   11  A    between atoms: C_17  and  C_20
REMARK   12  A    between atoms: C_31  and  C_32
REMARK                            x       y       z     vdW  Elec       q    Type
REMARK                         _______ _______ _______ _____ _____    ______ ____
ROOT
ATOM      1  C   UNL     1       0.591   9.537  20.040  0.00  0.00    +0.000 C 
ATOM      2  O   UNL     1       0.085   9.693  21.151  0.00  0.00    +0.000 OA
ATOM      3  N   UNL     1       1.373   8.427  19.767  0.00  0.00    +0.000 N 
ATOM      4  H   UNL     1       1.902   8.488  18.902  0.00  0.00    +0.000 HD
ENDROOT
BRANCH   1   5
ATOM      5  C   UNL     1       0.425  10.590  18.852  0.00  0.00    +0.000 C 
BRANCH   5  10
ATOM      6  C   UNL     1      -5.310  11.229  17.658  0.00  0.00    +0.000 C 
ATOM      7  C   UNL     1      -3.831  11.137  17.896  0.00  0.00    +0.000 A 
ATOM      8  C   UNL     1      -3.034  10.295  17.118  0.00  0.00    +0.000 A 
ATOM      9  C   UNL     1      -1.665  10.155  17.383  0.00  0.00    +0.000 A 
ATOM     10  C   UNL     1      -1.049  10.845  18.440  0.00  0.00    +0.000 A 
ATOM     11  C   UNL     1      -1.866  11.702  19.210  0.00  0.00    +0.000 A 
ATOM     12  C   UNL     1      -3.232  11.856  18.934  0.00  0.00    +0.000 A 
ENDBRANCH   5  10
BRANCH   5  13
ATOM     13  C   UNL     1       1.111  11.926  19.219  0.00  0.00    +0.000 A 
ATOM     14  C   UNL     1       0.660  12.675  20.329  0.00  0.00    +0.000 A 
ATOM     15  C   UNL     1       1.218  13.921  20.644  0.00  0.00    +0.000 A 
ATOM     16  C   UNL     1       2.246  14.455  19.871  0.00  0.00    +0.000 A 
ATOM     17  C   UNL     1       2.834  15.795  20.206  0.00  0.00    +0.000 C 
ATOM     18  C   UNL     1       2.717  13.717  18.780  0.00  0.00    +0.000 A 
ATOM     19  C   UNL     1       2.159  12.470  18.457  0.00  0.00    +0.000 A 
ENDBRANCH   5  13
BRANCH   5  20
ATOM     20  O   UNL     1       1.102   9.997  17.714  0.00  0.00    +0.000 OA
ATOM     21  H   UNL     1       1.686   9.311  18.084  0.00  0.00    +0.000 HD
ENDBRANCH   5  20
ENDBRANCH   1   5
BRANCH   3  22
ATOM     22  C   UNL     1       1.812   7.505  20.811  0.00  0.00    +0.000 C 
BRANCH  22  23
ATOM     23  C   UNL     1       1.100   6.134  20.775  0.00  0.00    +0.000 C 
BRANCH  23  24
ATOM     24  C   UNL     1       2.106   4.960  20.883  0.00  0.00    +0.000 C 
BRANCH  24  25
ATOM     25  N   UNL     1       2.808   4.588  19.634  0.00  0.00    +0.000 NA
ATOM     26  C   UNL     1       4.157   4.099  19.885  0.00  0.00    +0.000 C 
ATOM     27  C   UNL     1       4.835   3.802  18.517  0.00  0.00    +0.000 C 
ATOM     28  C   UNL     1       5.372   5.191  17.827  0.00  0.00    +0.000 C 
ATOM     29  C   UNL     1       4.140   6.148  17.977  0.00  0.00    +0.000 C 
ATOM     30  C   UNL     1       2.780   5.524  18.502  0.00  0.00    +0.000 C 
BRANCH  28  31
ATOM     31  C   UNL     1       5.824   4.834  16.420  0.00  0.00    +0.000 A 
ATOM     32  C   UNL     1       7.085   5.255  15.948  0.00  0.00    +0.000 A 
ATOM     33  C   UNL     1       7.490   5.018  14.634  0.00  0.00    +0.000 A 
ATOM     34  C   UNL     1       6.651   4.330  13.765  0.00  0.00    +0.000 A 
ATOM     35  C   UNL     1       5.408   3.891  14.212  0.00  0.00    +0.000 A 
ATOM     36  C   UNL     1       4.995   4.139  15.527  0.00  0.00    +0.000 A 
ENDBRANCH  28  31
BRANCH  28  37
ATOM     37  C   UNL     1       6.456   5.326  18.885  0.00  0.00    +0.000 C 
ATOM     38  N   UNL     1       7.355   5.439  19.761  0.00  0.00    +0.000 NA
ENDBRANCH  28  37
ENDBRANCH  24  25
ENDBRANCH  23  24
ENDBRANCH  22  23
ENDBRANCH   3  22
TORSDOF 10
ENDMDL
MODEL 8
REMARK VINA RESULT:      -8.1      4.851      7.216
REMARK  Name = 
REMARK  12 active torsions:
REMARK  status: ('A' for Active; 'I' for Inactive)
REMARK    1  A    between atoms: C_1  and  C_2
REMARK    2  A    between atoms: C_5  and  C_6
REMARK    3  A    between atoms: C_6  and  O_7
REMARK    4  A    between atoms: C_6  and  C_8
REMARK    5  A    between atoms: C_6  and  C_28
REMARK    6  A    between atoms: N_10  and  C_11
REMARK    7  A    between atoms: C_11  and  C_12
REMARK    8  A    between atoms: C_12  and  C_13
REMARK    9  A    between atoms: C_13  and  N_14
REMARK   10  A    between atoms: C_17  and  C_18
REMARK   11  A    between atoms: C_17  and  C_20
REMARK   12  A    between atoms: C_31  and  C_32
REMARK                            x       y       z     vdW  Elec       q    Type
REMARK                         _______ _______ _______ _____ _____    ______ ____
ROOT
ATOM      1  C   UNL     1       1.516  11.945  19.809  0.00  0.00    +0.000 C 
ATOM      2  O   UNL     1       1.279  11.943  21.016  0.00  0.00    +0.000 OA
ATOM      3  N   UNL     1       2.147  13.023  19.212  0.00  0.00    +0.000 N 
ATOM      4  H   UNL     1       2.117  13.018  18.196  0.00  0.00    +0.000 HD
ENDROOT
BRANCH   1   5
ATOM      5  C   UNL     1       1.097  10.748  18.838  0.00  0.00    +0.000 C 
BRANCH   5  10
ATOM      6  C   UNL     1       2.084   5.220  20.624  0.00  0.00    +0.000 C 
ATOM      7  C   UNL     1       1.914   6.655  20.219  0.00  0.00    +0.000 A 
ATOM      8  C   UNL     1       1.200   7.544  21.025  0.00  0.00    +0.000 A 
ATOM      9  C   UNL     1       0.981   8.866  20.616  0.00  0.00    +0.000 A 
ATOM     10  C   UNL     1       1.458   9.341  19.384  0.00  0.00    +0.000 A 
ATOM     11  C   UNL     1       2.188   8.433  18.585  0.00  0.00    +0.000 A 
ATOM     12  C   UNL     1       2.423   7.115  19.002  0.00  0.00    +0.000 A 
ENDBRANCH   5  10
BRANCH   5  13
ATOM     13  C   UNL     1      -0.412  10.821  18.517  0.00  0.00    +0.000 A 
ATOM     14  C   UNL     1      -1.232  11.772  19.165  0.00  0.00    +0.000 A 
ATOM     15  C   UNL     1      -2.616  11.816  18.945  0.00  0.00    +0.000 A 
ATOM     16  C   UNL     1      -3.223  10.921  18.068  0.00  0.00    +0.000 A 
ATOM     17  C   UNL     1      -4.707  10.965  17.842  0.00  0.00    +0.000 C 
ATOM     18  C   UNL     1      -2.423   9.986  17.403  0.00  0.00    +0.000 A 
ATOM     19  C   UNL     1      -1.037   9.934  17.624  0.00  0.00    +0.000 A 
ENDBRANCH   5  13
BRANCH   5  20
ATOM     20  O   UNL     1       1.860  10.955  17.621  0.00  0.00    +0.000 OA
ATOM     21  H   UNL     1       2.684  10.450  17.739  0.00  0.00    +0.000 HD
ENDBRANCH   5  20
ENDBRANCH   1   5
BRANCH   3  22
ATOM     22  C   UNL     1       2.374  14.283  19.915  0.00  0.00    +0.000 C 
BRANCH  22  23
ATOM     23  C   UNL     1       2.858  15.431  19.001  0.00  0.00    +0.000 C 
BRANCH  23  24
ATOM     24  C   UNL     1       4.236  15.981  19.451  0.00  0.00    +0.000 C 
BRANCH  24  25
ATOM     25  N   UNL     1       5.368  15.029  19.394  0.00  0.00    +0.000 NA
ATOM     26  C   UNL     1       6.437  15.387  20.316  0.00  0.00    +0.000 C 
ATOM     27  C   UNL     1       7.602  14.375  20.135  0.00  0.00    +0.000 C 
ATOM     28  C   UNL     1       8.496  14.757  18.812  0.00  0.00    +0.000 C 
ATOM     29  C   UNL     1       7.402  15.000  17.717  0.00  0.00    +0.000 C 
ATOM     30  C   UNL     1       5.900  14.643  18.081  0.00  0.00    +0.000 C 
BRANCH  28  31
ATOM     31  C   UNL     1       9.471  13.610  18.596  0.00  0.00    +0.000 A 
ATOM     32  C   UNL     1       9.554  12.560  19.535  0.00  0.00    +0.000 A 
ATOM     33  C   UNL     1      10.498  11.540  19.409  0.00  0.00    +0.000 A 
ATOM     34  C   UNL     1      11.367  11.533  18.324  0.00  0.00    +0.000 A 
ATOM     35  C   UNL     1      11.294  12.550  17.376  0.00  0.00    +0.000 A 
ATOM     36  C   UNL     1      10.355  13.580  17.509  0.00  0.00    +0.000 A 
ENDBRANCH  28  31
BRANCH  28  37
ATOM     37  C   UNL     1       9.036  15.998  19.505  0.00  0.00    +0.000 C 
ATOM     38  N   UNL     1       9.483  17.028  20.080  0.00  0.00    +0.000 NA
ENDBRANCH  28  37
ENDBRANCH  24  25
ENDBRANCH  23  24
ENDBRANCH  22  23
ENDBRANCH   3  22
TORSDOF 10
ENDMDL
MODEL 9
REMARK VINA RESULT:      -8.0      6.218     10.002
REMARK  Name = 
REMARK  12 active torsions:
REMARK  status: ('A' for Active; 'I' for Inactive)
REMARK    1  A    between atoms: C_1  and  C_2
REMARK    2  A    between atoms: C_5  and  C_6
REMARK    3  A    between atoms: C_6  and  O_7
REMARK    4  A    between atoms: C_6  and  C_8
REMARK    5  A    between atoms: C_6  and  C_28
REMARK    6  A    between atoms: N_10  and  C_11
REMARK    7  A    between atoms: C_11  and  C_12
REMARK    8  A    between atoms: C_12  and  C_13
REMARK    9  A    between atoms: C_13  and  N_14
REMARK   10  A    between atoms: C_17  and  C_18
REMARK   11  A    between atoms: C_17  and  C_20
REMARK   12  A    between atoms: C_31  and  C_32
REMARK                            x       y       z     vdW  Elec       q    Type
REMARK                         _______ _______ _______ _____ _____    ______ ____
ROOT
ATOM      1  C   UNL     1       5.098   6.788  17.387  0.00  0.00    +0.000 C 
ATOM      2  O   UNL     1       5.952   7.670  17.460  0.00  0.00    +0.000 OA
ATOM      3  N   UNL     1       3.751   7.107  17.339  0.00  0.00    +0.000 N 
ATOM      4  H   UNL     1       3.126   6.318  17.481  0.00  0.00    +0.000 HD
ENDROOT
BRANCH   1   5
ATOM      5  C   UNL     1       5.452   5.231  17.374  0.00  0.00    +0.000 C 
BRANCH   5  10
ATOM      6  C   UNL     1       0.932   2.214  19.652  0.00  0.00    +0.000 C 
ATOM      7  C   UNL     1       2.114   2.898  19.030  0.00  0.00    +0.000 A 
ATOM      8  C   UNL     1       3.340   2.948  19.695  0.00  0.00    +0.000 A 
ATOM      9  C   UNL     1       4.426   3.645  19.149  0.00  0.00    +0.000 A 
ATOM     10  C   UNL     1       4.319   4.324  17.924  0.00  0.00    +0.000 A 
ATOM     11  C   UNL     1       3.075   4.255  17.258  0.00  0.00    +0.000 A 
ATOM     12  C   UNL     1       1.994   3.542  17.796  0.00  0.00    +0.000 A 
ENDBRANCH   5  10
BRANCH   5  13
ATOM     13  C   UNL     1       5.844   4.782  15.948  0.00  0.00    +0.000 A 
ATOM     14  C   UNL     1       7.104   5.134  15.413  0.00  0.00    +0.000 A 
ATOM     15  C   UNL     1       7.460   4.799  14.099  0.00  0.00    +0.000 A 
ATOM     16  C   UNL     1       6.577   4.098  13.282  0.00  0.00    +0.000 A 
ATOM     17  C   UNL     1       6.957   3.750  11.872  0.00  0.00    +0.000 C 
ATOM     18  C   UNL     1       5.333   3.725  13.803  0.00  0.00    +0.000 A 
ATOM     19  C   UNL     1       4.970   4.062  15.116  0.00  0.00    +0.000 A 
ENDBRANCH   5  13
BRANCH   5  20
ATOM     20  O   UNL     1       6.594   5.088  18.256  0.00  0.00    +0.000 OA
ATOM     21  H   UNL     1       7.300   5.632  17.862  0.00  0.00    +0.000 HD
ENDBRANCH   5  20
ENDBRANCH   1   5
BRANCH   3  22
ATOM     22  C   UNL     1       3.260   8.462  17.583  0.00  0.00    +0.000 C 
BRANCH  22  23
ATOM     23  C   UNL     1       1.844   8.513  18.198  0.00  0.00    +0.000 C 
BRANCH  23  24
ATOM     24  C   UNL     1       1.232   9.934  18.115  0.00  0.00    +0.000 C 
BRANCH  24  25
ATOM     25  N   UNL     1      -0.187  10.056  18.519  0.00  0.00    +0.000 NA
ATOM     26  C   UNL     1      -1.096   9.557  17.496  0.00  0.00    +0.000 C 
ATOM     27  C   UNL     1      -2.555   9.791  17.979  0.00  0.00    +0.000 C 
ATOM     28  C   UNL     1      -2.999  11.352  17.735  0.00  0.00    +0.000 C 
ATOM     29  C   UNL     1      -1.776  12.150  18.304  0.00  0.00    +0.000 C 
ATOM     30  C   UNL     1      -0.655  11.333  19.074  0.00  0.00    +0.000 C 
BRANCH  28  31
ATOM     31  C   UNL     1      -4.344  11.536  18.419  0.00  0.00    +0.000 A 
ATOM     32  C   UNL     1      -5.474  10.815  17.976  0.00  0.00    +0.000 A 
ATOM     33  C   UNL     1      -6.738  11.028  18.527  0.00  0.00    +0.000 A 
ATOM     34  C   UNL     1      -6.899  11.951  19.553  0.00  0.00    +0.000 A 
ATOM     35  C   UNL     1      -5.797  12.664  20.018  0.00  0.00    +0.000 A 
ATOM     36  C   UNL     1      -4.530  12.460  19.458  0.00  0.00    +0.000 A 
ENDBRANCH  28  31
BRANCH  28  37
ATOM     37  C   UNL     1      -3.016  11.138  16.229  0.00  0.00    +0.000 C 
ATOM     38  N   UNL     1      -3.028  10.961  14.981  0.00  0.00    +0.000 NA
ENDBRANCH  28  37
ENDBRANCH  24  25
ENDBRANCH  23  24
ENDBRANCH  22  23
ENDBRANCH   3  22
TORSDOF 10
ENDMDL
