MODEL 1
REMARK VINA RESULT:      -7.2      0.000      0.000
REMARK  Name = 
REMARK  9 active torsions:
REMARK  status: ('A' for Active; 'I' for Inactive)
REMARK    1  A    between atoms: C_1  and  C_2
REMARK    2  A    between atoms: C_4  and  C_5
REMARK    3  A    between atoms: C_8  and  C_9
REMARK    4  A    between atoms: C_9  and  N_10
REMARK    5  A    between atoms: C_12  and  C_13
REMARK    6  A    between atoms: C_13  and  C_14
REMARK    7  A    between atoms: C_14  and  O_15
REMARK    8  A    between atoms: C_16  and  N_17
REMARK    9  A    between atoms: C_20  and  O_21
REMARK                            x       y       z     vdW  Elec       q    Type
REMARK                         _______ _______ _______ _____ _____    ______ ____
ROOT
ATOM      1  C   UNL     1      -0.916  13.148  20.055  0.00  0.00    +0.000 C 
ATOM      2  C   UNL     1      -0.314  11.782  20.205  0.00  0.00    +0.000 A 
ATOM      3  C   UNL     1      -0.542  11.018  21.346  0.00  0.00    +0.000 A 
ATOM      4  C   UNL     1       0.026   9.737  21.487  0.00  0.00    +0.000 A 
ATOM      5  C   UNL     1      -0.307   8.933  22.715  0.00  0.00    +0.000 C 
ATOM      6  C   UNL     1       0.828   9.184  20.477  0.00  0.00    +0.000 A 
ATOM      7  N   UNL     1       1.348   7.940  20.619  0.00  0.00    +0.000 NA
ATOM      8  C   UNL     1       2.098   7.402  19.620  0.00  0.00    +0.000 A 
ATOM      9  C   UNL     1       2.358   8.085  18.443  0.00  0.00    +0.000 A 
ATOM     10  C   UNL     1       1.829   9.362  18.301  0.00  0.00    +0.000 A 
ATOM     11  C   UNL     1       1.051   9.947  19.314  0.00  0.00    +0.000 A 
ATOM     12  C   UNL     1       0.482  11.240  19.194  0.00  0.00    +0.000 A 
ENDROOT
BRANCH  10  13
ATOM     13  O   UNL     1       2.046  10.059  17.138  0.00  0.00    +0.000 OA
ATOM     14  H   UNL     1       1.254   9.996  16.579  0.00  0.00    +0.000 HD
ENDBRANCH  10  13
BRANCH   8  15
ATOM     15  C   UNL     1       2.557   5.960  19.801  0.00  0.00    +0.000 C 
BRANCH  15  16
ATOM     16  N   UNL     1       3.039   5.287  18.578  0.00  0.00    +0.000 NA
ATOM     17  C   UNL     1       4.229   4.467  18.816  0.00  0.00    +0.000 C 
ATOM     18  C   UNL     1       4.300   3.602  17.552  0.00  0.00    +0.000 C 
ATOM     19  C   UNL     1       2.822   3.239  17.314  0.00  0.00    +0.000 C 
ATOM     20  C   UNL     1       2.030   4.341  18.061  0.00  0.00    +0.000 C 
BRANCH  19  21
ATOM     21  N   UNL     1       2.503   1.901  17.827  0.00  0.00    +0.000 NA
ATOM     22  H   UNL     1       2.312   1.267  17.050  0.00  0.00    +0.000 HD
ATOM     23  H   UNL     1       1.640   1.943  18.371  0.00  0.00    +0.000 HD
ENDBRANCH  19  21
BRANCH  18  24
ATOM     24  C   UNL     1       4.867   4.335  16.319  0.00  0.00    +0.000 C 
BRANCH  24  25
ATOM     25  C   UNL     1       6.375   4.552  16.387  0.00  0.00    +0.000 C 
BRANCH  25  26
ATOM     26  O   UNL     1       6.696   5.854  15.916  0.00  0.00    +0.000 OA
ATOM     27  H   UNL     1       6.889   5.787  14.969  0.00  0.00    +0.000 HD
ENDBRANCH  25  26
ENDBRANCH  24  25
ENDBRANCH  18  24
ENDBRANCH  15  16
ENDBRANCH   8  15
TORSDOF 7
ENDMDL
MODEL 2
REMARK VINA RESULT:      -7.1      1.021      1.041
REMARK  Name = 
REMARK  9 active torsions:
REMARK  status: ('A' for Active; 'I' for Inactive)
REMARK    1  A    between atoms: C_1  and  C_2
REMARK    2  A    between atoms: C_4  and  C_5
REMARK    3  A    between atoms: C_8  and  C_9
REMARK    4  A    between atoms: C_9  and  N_10
REMARK    5  A    between atoms: C_12  and  C_13
REMARK    6  A    between atoms: C_13  and  C_14
REMARK    7  A    between atoms: C_14  and  O_15
REMARK    8  A    between atoms: C_16  and  N_17
REMARK    9  A    between atoms: C_20  and  O_21
REMARK                            x       y       z     vdW  Elec       q    Type
REMARK                         _______ _______ _______ _____ _____    ______ ____
ROOT
ATOM      1  C   UNL     1      -1.364  12.803  19.794  0.00  0.00    +0.000 C 
ATOM      2  C   UNL     1      -0.651  11.517  20.090  0.00  0.00    +0.000 A 
ATOM      3  C   UNL     1      -0.813  10.871  21.312  0.00  0.00    +0.000 A 
ATOM      4  C   UNL     1      -0.141   9.665  21.590  0.00  0.00    +0.000 A 
ATOM      5  C   UNL     1      -0.404   8.981  22.905  0.00  0.00    +0.000 C 
ATOM      6  C   UNL     1       0.700   9.067  20.640  0.00  0.00    +0.000 A 
ATOM      7  N   UNL     1       1.321   7.894  20.915  0.00  0.00    +0.000 NA
ATOM      8  C   UNL     1       2.109   7.308  19.975  0.00  0.00    +0.000 A 
ATOM      9  C   UNL     1       2.310   7.872  18.725  0.00  0.00    +0.000 A 
ATOM     10  C   UNL     1       1.677   9.078  18.446  0.00  0.00    +0.000 A 
ATOM     11  C   UNL     1       0.857   9.709  19.396  0.00  0.00    +0.000 A 
ATOM     12  C   UNL     1       0.184  10.929  19.137  0.00  0.00    +0.000 A 
ENDROOT
BRANCH  10  13
ATOM     13  O   UNL     1       1.833   9.653  17.209  0.00  0.00    +0.000 OA
ATOM     14  H   UNL     1       1.291   9.170  16.564  0.00  0.00    +0.000 HD
ENDBRANCH  10  13
BRANCH   8  15
ATOM     15  C   UNL     1       2.686   5.939  20.312  0.00  0.00    +0.000 C 
BRANCH  15  16
ATOM     16  N   UNL     1       3.407   5.263  19.214  0.00  0.00    +0.000 NA
ATOM     17  C   UNL     1       4.862   5.330  19.370  0.00  0.00    +0.000 C 
ATOM     18  C   UNL     1       5.355   4.274  18.373  0.00  0.00    +0.000 C 
ATOM     19  C   UNL     1       4.343   3.130  18.572  0.00  0.00    +0.000 C 
ATOM     20  C   UNL     1       3.099   3.820  19.186  0.00  0.00    +0.000 C 
BRANCH  19  21
ATOM     21  N   UNL     1       4.873   2.084  19.456  0.00  0.00    +0.000 NA
ATOM     22  H   UNL     1       4.677   2.320  20.429  0.00  0.00    +0.000 HD
ATOM     23  H   UNL     1       5.890   2.054  19.375  0.00  0.00    +0.000 HD
ENDBRANCH  19  21
BRANCH  18  24
ATOM     24  C   UNL     1       5.340   4.741  16.903  0.00  0.00    +0.000 C 
BRANCH  24  25
ATOM     25  C   UNL     1       6.603   5.491  16.495  0.00  0.00    +0.000 C 
BRANCH  25  26
ATOM     26  O   UNL     1       7.438   4.641  15.719  0.00  0.00    +0.000 OA
ATOM     27  H   UNL     1       8.337   4.706  16.074  0.00  0.00    +0.000 HD
ENDBRANCH  25  26
ENDBRANCH  24  25
ENDBRANCH  18  24
ENDBRANCH  15  16
ENDBRANCH   8  15
TORSDOF 7
ENDMDL
MODEL 3
REMARK VINA RESULT:      -7.0      4.808      6.454
REMARK  Name = 
REMARK  9 active torsions:
REMARK  status: ('A' for Active; 'I' for Inactive)
REMARK    1  A    between atoms: C_1  and  C_2
REMARK    2  A    between atoms: C_4  and  C_5
REMARK    3  A    between atoms: C_8  and  C_9
REMARK    4  A    between atoms: C_9  and  N_10
REMARK    5  A    between atoms: C_12  and  C_13
REMARK    6  A    between atoms: C_13  and  C_14
REMARK    7  A    between atoms: C_14  and  O_15
REMARK    8  A    between atoms: C_16  and  N_17
REMARK    9  A    between atoms: C_20  and  O_21
REMARK                            x       y       z     vdW  Elec       q    Type
REMARK                         _______ _______ _______ _____ _____    ______ ____
ROOT
ATOM      1  C   UNL     1       8.755   9.760  17.852  0.00  0.00    +0.000 C 
ATOM      2  C   UNL     1       8.093   8.418  17.946  0.00  0.00    +0.000 A 
ATOM      3  C   UNL     1       8.446   7.510  18.941  0.00  0.00    +0.000 A 
ATOM      4  C   UNL     1       7.825   6.249  19.025  0.00  0.00    +0.000 A 
ATOM      5  C   UNL     1       8.206   5.335  20.159  0.00  0.00    +0.000 C 
ATOM      6  C   UNL     1       6.822   5.872  18.121  0.00  0.00    +0.000 A 
ATOM      7  N   UNL     1       6.218   4.663  18.231  0.00  0.00    +0.000 NA
ATOM      8  C   UNL     1       5.224   4.321  17.368  0.00  0.00    +0.000 A 
ATOM      9  C   UNL     1       4.797   5.171  16.362  0.00  0.00    +0.000 A 
ATOM     10  C   UNL     1       5.420   6.409  16.246  0.00  0.00    +0.000 A 
ATOM     11  C   UNL     1       6.450   6.792  17.121  0.00  0.00    +0.000 A 
ATOM     12  C   UNL     1       7.094   8.052  17.041  0.00  0.00    +0.000 A 
ENDROOT
BRANCH  10  13
ATOM     13  O   UNL     1       5.005   7.287  15.276  0.00  0.00    +0.000 OA
ATOM     14  H   UNL     1       4.047   7.192  15.150  0.00  0.00    +0.000 HD
ENDBRANCH  10  13
BRANCH   8  15
ATOM     15  C   UNL     1       4.517   2.995  17.619  0.00  0.00    +0.000 C 
BRANCH  15  16
ATOM     16  N   UNL     1       3.467   3.020  18.657  0.00  0.00    +0.000 NA
ATOM     17  C   UNL     1       2.475   4.074  18.433  0.00  0.00    +0.000 C 
ATOM     18  C   UNL     1       1.332   3.665  19.371  0.00  0.00    +0.000 C 
ATOM     19  C   UNL     1       1.280   2.136  19.184  0.00  0.00    +0.000 C 
ATOM     20  C   UNL     1       2.688   1.766  18.654  0.00  0.00    +0.000 C 
BRANCH  19  21
ATOM     21  N   UNL     1       0.226   1.739  18.242  0.00  0.00    +0.000 NA
ATOM     22  H   UNL     1       0.109   2.460  17.529  0.00  0.00    +0.000 HD
ATOM     23  H   UNL     1      -0.666   1.686  18.734  0.00  0.00    +0.000 HD
ENDBRANCH  19  21
BRANCH  18  24
ATOM     24  C   UNL     1       1.581   4.006  20.854  0.00  0.00    +0.000 C 
BRANCH  24  25
ATOM     25  C   UNL     1       1.603   2.779  21.759  0.00  0.00    +0.000 C 
BRANCH  25  26
ATOM     26  O   UNL     1       2.947   2.376  21.991  0.00  0.00    +0.000 OA
ATOM     27  H   UNL     1       3.266   1.934  21.191  0.00  0.00    +0.000 HD
ENDBRANCH  25  26
ENDBRANCH  24  25
ENDBRANCH  18  24
ENDBRANCH  15  16
ENDBRANCH   8  15
TORSDOF 7
ENDMDL
MODEL 4
REMARK VINA RESULT:      -6.7      2.407      3.081
REMARK  Name = 
REMARK  9 active torsions:
REMARK  status: ('A' for Active; 'I' for Inactive)
REMARK    1  A    between atoms: C_1  and  C_2
REMARK    2  A    between atoms: C_4  and  C_5
REMARK    3  A    between atoms: C_8  and  C_9
REMARK    4  A    between atoms: C_9  and  N_10
REMARK    5  A    between atoms: C_12  and  C_13
REMARK    6  A    between atoms: C_13  and  C_14
REMARK    7  A    between atoms: C_14  and  O_15
REMARK    8  A    between atoms: C_16  and  N_17
REMARK    9  A    between atoms: C_20  and  O_21
REMARK                            x       y       z     vdW  Elec       q    Type
REMARK                         _______ _______ _______ _____ _____    ______ ____
ROOT
ATOM      1  C   UNL     1      -1.206  13.106  22.019  0.00  0.00    +0.000 C 
ATOM      2  C   UNL     1      -0.517  11.912  21.426  0.00  0.00    +0.000 A 
ATOM      3  C   UNL     1      -0.594  10.663  22.035  0.00  0.00    +0.000 A 
ATOM      4  C   UNL     1       0.056   9.544  21.479  0.00  0.00    +0.000 A 
ATOM      5  C   UNL     1      -0.114   8.207  22.149  0.00  0.00    +0.000 C 
ATOM      6  C   UNL     1       0.788   9.648  20.287  0.00  0.00    +0.000 A 
ATOM      7  N   UNL     1       1.388   8.556  19.753  0.00  0.00    +0.000 NA
ATOM      8  C   UNL     1       2.068   8.662  18.580  0.00  0.00    +0.000 A 
ATOM      9  C   UNL     1       2.177   9.863  17.897  0.00  0.00    +0.000 A 
ATOM     10  C   UNL     1       1.567  10.983  18.448  0.00  0.00    +0.000 A 
ATOM     11  C   UNL     1       0.857  10.907  19.659  0.00  0.00    +0.000 A 
ATOM     12  C   UNL     1       0.209  12.026  20.239  0.00  0.00    +0.000 A 
ENDROOT
BRANCH  10  13
ATOM     13  O   UNL     1       1.633  12.184  17.786  0.00  0.00    +0.000 OA
ATOM     14  H   UNL     1       2.516  12.282  17.395  0.00  0.00    +0.000 HD
ENDBRANCH  10  13
BRANCH   8  15
ATOM     15  C   UNL     1       2.622   7.374  17.983  0.00  0.00    +0.000 C 
BRANCH  15  16
ATOM     16  N   UNL     1       2.489   6.172  18.829  0.00  0.00    +0.000 NA
ATOM     17  C   UNL     1       1.902   5.037  18.111  0.00  0.00    +0.000 C 
ATOM     18  C   UNL     1       2.217   3.855  19.035  0.00  0.00    +0.000 C 
ATOM     19  C   UNL     1       3.658   4.161  19.488  0.00  0.00    +0.000 C 
ATOM     20  C   UNL     1       3.810   5.688  19.275  0.00  0.00    +0.000 C 
BRANCH  19  21
ATOM     21  N   UNL     1       4.645   3.405  18.708  0.00  0.00    +0.000 NA
ATOM     22  H   UNL     1       4.492   2.404  18.832  0.00  0.00    +0.000 HD
ATOM     23  H   UNL     1       5.580   3.591  19.071  0.00  0.00    +0.000 HD
ENDBRANCH  19  21
BRANCH  18  24
ATOM     24  C   UNL     1       1.290   3.751  20.263  0.00  0.00    +0.000 C 
BRANCH  24  25
ATOM     25  C   UNL     1       2.046   3.563  21.575  0.00  0.00    +0.000 C 
BRANCH  25  26
ATOM     26  O   UNL     1       1.583   2.390  22.232  0.00  0.00    +0.000 OA
ATOM     27  H   UNL     1       0.687   2.207  21.913  0.00  0.00    +0.000 HD
ENDBRANCH  25  26
ENDBRANCH  24  25
ENDBRANCH  18  24
ENDBRANCH  15  16
ENDBRANCH   8  15
TORSDOF 7
ENDMDL
MODEL 5
REMARK VINA RESULT:      -6.7      3.694      6.380
REMARK  Name = 
REMARK  9 active torsions:
REMARK  status: ('A' for Active; 'I' for Inactive)
REMARK    1  A    between atoms: C_1  and  C_2
REMARK    2  A    between atoms: C_4  and  C_5
REMARK    3  A    between atoms: C_8  and  C_9
REMARK    4  A    between atoms: C_9  and  N_10
REMARK    5  A    between atoms: C_12  and  C_13
REMARK    6  A    between atoms: C_13  and  C_14
REMARK    7  A    between atoms: C_14  and  O_15
REMARK    8  A    between atoms: C_16  and  N_17
REMARK    9  A    between atoms: C_20  and  O_21
REMARK                            x       y       z     vdW  Elec       q    Type
REMARK                         _______ _______ _______ _____ _____    ______ ____
ROOT
ATOM      1  C   UNL     1       1.072   2.495  21.914  0.00  0.00    +0.000 C 
ATOM      2  C   UNL     1       1.763   3.281  20.840  0.00  0.00    +0.000 A 
ATOM      3  C   UNL     1       1.711   4.672  20.821  0.00  0.00    +0.000 A 
ATOM      4  C   UNL     1       2.358   5.408  19.810  0.00  0.00    +0.000 A 
ATOM      5  C   UNL     1       2.318   6.912  19.877  0.00  0.00    +0.000 C 
ATOM      6  C   UNL     1       3.088   4.767  18.798  0.00  0.00    +0.000 A 
ATOM      7  N   UNL     1       3.724   5.491  17.846  0.00  0.00    +0.000 NA
ATOM      8  C   UNL     1       4.455   4.859  16.889  0.00  0.00    +0.000 A 
ATOM      9  C   UNL     1       4.576   3.480  16.845  0.00  0.00    +0.000 A 
ATOM     10  C   UNL     1       3.919   2.737  17.818  0.00  0.00    +0.000 A 
ATOM     11  C   UNL     1       3.155   3.359  18.821  0.00  0.00    +0.000 A 
ATOM     12  C   UNL     1       2.487   2.633  19.838  0.00  0.00    +0.000 A 
ENDROOT
BRANCH  10  13
ATOM     13  O   UNL     1       4.037   1.369  17.821  0.00  0.00    +0.000 OA
ATOM     14  H   UNL     1       3.335   0.991  18.375  0.00  0.00    +0.000 HD
ENDBRANCH  10  13
BRANCH   8  15
ATOM     15  C   UNL     1       5.231   5.740  15.918  0.00  0.00    +0.000 C 
BRANCH  15  16
ATOM     16  N   UNL     1       6.379   6.468  16.497  0.00  0.00    +0.000 NA
ATOM     17  C   UNL     1       5.981   7.405  17.550  0.00  0.00    +0.000 C 
ATOM     18  C   UNL     1       7.316   7.731  18.231  0.00  0.00    +0.000 C 
ATOM     19  C   UNL     1       8.010   6.357  18.276  0.00  0.00    +0.000 C 
ATOM     20  C   UNL     1       7.317   5.539  17.158  0.00  0.00    +0.000 C 
BRANCH  19  21
ATOM     21  N   UNL     1       7.860   5.715  19.588  0.00  0.00    +0.000 NA
ATOM     22  H   UNL     1       7.360   4.831  19.486  0.00  0.00    +0.000 HD
ATOM     23  H   UNL     1       7.275   6.299  20.187  0.00  0.00    +0.000 HD
ENDBRANCH  19  21
BRANCH  18  24
ATOM     24  C   UNL     1       8.190   8.738  17.456  0.00  0.00    +0.000 C 
BRANCH  24  25
ATOM     25  C   UNL     1       8.822   9.800  18.349  0.00  0.00    +0.000 C 
BRANCH  25  26
ATOM     26  O   UNL     1       8.486  11.095  17.868  0.00  0.00    +0.000 OA
ATOM     27  H   UNL     1       7.715  11.404  18.365  0.00  0.00    +0.000 HD
ENDBRANCH  25  26
ENDBRANCH  24  25
ENDBRANCH  18  24
ENDBRANCH  15  16
ENDBRANCH   8  15
TORSDOF 7
ENDMDL
MODEL 6
REMARK VINA RESULT:      -6.5      4.328      6.349
REMARK  Name = 
REMARK  9 active torsions:
REMARK  status: ('A' for Active; 'I' for Inactive)
REMARK    1  A    between atoms: C_1  and  C_2
REMARK    2  A    between atoms: C_4  and  C_5
REMARK    3  A    between atoms: C_8  and  C_9
REMARK    4  A    between atoms: C_9  and  N_10
REMARK    5  A    between atoms: C_12  and  C_13
REMARK    6  A    between atoms: C_13  and  C_14
REMARK    7  A    between atoms: C_14  and  O_15
REMARK    8  A    between atoms: C_16  and  N_17
REMARK    9  A    between atoms: C_20  and  O_21
REMARK                            x       y       z     vdW  Elec       q    Type
REMARK                         _______ _______ _______ _____ _____    ______ ____
ROOT
ATOM      1  C   UNL     1       8.749   9.728  17.828  0.00  0.00    +0.000 C 
ATOM      2  C   UNL     1       8.081   8.388  17.929  0.00  0.00    +0.000 A 
ATOM      3  C   UNL     1       8.430   7.485  18.928  0.00  0.00    +0.000 A 
ATOM      4  C   UNL     1       7.804   6.226  19.020  0.00  0.00    +0.000 A 
ATOM      5  C   UNL     1       8.180   5.317  20.159  0.00  0.00    +0.000 C 
ATOM      6  C   UNL     1       6.798   5.849  18.118  0.00  0.00    +0.000 A 
ATOM      7  N   UNL     1       6.189   4.644  18.234  0.00  0.00    +0.000 NA
ATOM      8  C   UNL     1       5.194   4.302  17.374  0.00  0.00    +0.000 A 
ATOM      9  C   UNL     1       4.770   5.149  16.363  0.00  0.00    +0.000 A 
ATOM     10  C   UNL     1       5.398   6.383  16.240  0.00  0.00    +0.000 A 
ATOM     11  C   UNL     1       6.431   6.766  17.113  0.00  0.00    +0.000 A 
ATOM     12  C   UNL     1       7.080   8.022  17.027  0.00  0.00    +0.000 A 
ENDROOT
BRANCH  10  13
ATOM     13  O   UNL     1       4.987   7.258  15.266  0.00  0.00    +0.000 OA
ATOM     14  H   UNL     1       4.155   7.674  15.544  0.00  0.00    +0.000 HD
ENDBRANCH  10  13
BRANCH   8  15
ATOM     15  C   UNL     1       4.480   2.981  17.632  0.00  0.00    +0.000 C 
BRANCH  15  16
ATOM     16  N   UNL     1       3.416   3.020  18.655  0.00  0.00    +0.000 NA
ATOM     17  C   UNL     1       2.402   4.040  18.376  0.00  0.00    +0.000 C 
ATOM     18  C   UNL     1       1.256   3.640  19.313  0.00  0.00    +0.000 C 
ATOM     19  C   UNL     1       1.244   2.105  19.188  0.00  0.00    +0.000 C 
ATOM     20  C   UNL     1       2.668   1.749  18.691  0.00  0.00    +0.000 C 
BRANCH  19  21
ATOM     21  N   UNL     1       0.213   1.645  18.249  0.00  0.00    +0.000 NA
ATOM     22  H   UNL     1       0.614   1.543  17.316  0.00  0.00    +0.000 HD
ATOM     23  H   UNL     1      -0.512   2.358  18.164  0.00  0.00    +0.000 HD
ENDBRANCH  19  21
BRANCH  18  24
ATOM     24  C   UNL     1       1.476   4.046  20.785  0.00  0.00    +0.000 C 
BRANCH  24  25
ATOM     25  C   UNL     1       2.439   5.217  20.950  0.00  0.00    +0.000 C 
BRANCH  25  26
ATOM     26  O   UNL     1       1.722   6.443  20.878  0.00  0.00    +0.000 OA
ATOM     27  H   UNL     1       0.894   6.273  20.406  0.00  0.00    +0.000 HD
ENDBRANCH  25  26
ENDBRANCH  24  25
ENDBRANCH  18  24
ENDBRANCH  15  16
ENDBRANCH   8  15
TORSDOF 7
ENDMDL
MODEL 7
REMARK VINA RESULT:      -6.5      2.323      2.993
REMARK  Name = 
REMARK  9 active torsions:
REMARK  status: ('A' for Active; 'I' for Inactive)
REMARK    1  A    between atoms: C_1  and  C_2
REMARK    2  A    between atoms: C_4  and  C_5
REMARK    3  A    between atoms: C_8  and  C_9
REMARK    4  A    between atoms: C_9  and  N_10
REMARK    5  A    between atoms: C_12  and  C_13
REMARK    6  A    between atoms: C_13  and  C_14
REMARK    7  A    between atoms: C_14  and  O_15
REMARK    8  A    between atoms: C_16  and  N_17
REMARK    9  A    between atoms: C_20  and  O_21
REMARK                            x       y       z     vdW  Elec       q    Type
REMARK                         _______ _______ _______ _____ _____    ______ ____
ROOT
ATOM      1  C   UNL     1      -2.318  12.300  22.231  0.00  0.00    +0.000 C 
ATOM      2  C   UNL     1      -1.267  11.397  21.655  0.00  0.00    +0.000 A 
ATOM      3  C   UNL     1      -0.417  10.667  22.480  0.00  0.00    +0.000 A 
ATOM      4  C   UNL     1       0.571   9.822  21.937  0.00  0.00    +0.000 A 
ATOM      5  C   UNL     1       1.421   9.012  22.879  0.00  0.00    +0.000 C 
ATOM      6  C   UNL     1       0.720   9.677  20.550  0.00  0.00    +0.000 A 
ATOM      7  N   UNL     1       1.660   8.842  20.045  0.00  0.00    +0.000 NA
ATOM      8  C   UNL     1       1.773   8.684  18.699  0.00  0.00    +0.000 A 
ATOM      9  C   UNL     1       0.955   9.356  17.806  0.00  0.00    +0.000 A 
ATOM     10  C   UNL     1      -0.006  10.217  18.325  0.00  0.00    +0.000 A 
ATOM     11  C   UNL     1      -0.149  10.402  19.710  0.00  0.00    +0.000 A 
ATOM     12  C   UNL     1      -1.128  11.258  20.272  0.00  0.00    +0.000 A 
ENDROOT
BRANCH  10  13
ATOM     13  O   UNL     1      -0.852  10.881  17.471  0.00  0.00    +0.000 OA
ATOM     14  H   UNL     1      -0.565  11.806  17.397  0.00  0.00    +0.000 HD
ENDBRANCH  10  13
BRANCH   8  15
ATOM     15  C   UNL     1       2.776   7.648  18.206  0.00  0.00    +0.000 C 
BRANCH  15  16
ATOM     16  N   UNL     1       2.649   6.304  18.805  0.00  0.00    +0.000 NA
ATOM     17  C   UNL     1       2.225   5.290  17.836  0.00  0.00    +0.000 C 
ATOM     18  C   UNL     1       2.533   3.978  18.566  0.00  0.00    +0.000 C 
ATOM     19  C   UNL     1       3.893   4.275  19.226  0.00  0.00    +0.000 C 
ATOM     20  C   UNL     1       3.952   5.821  19.305  0.00  0.00    +0.000 C 
BRANCH  19  21
ATOM     21  N   UNL     1       5.009   3.732  18.440  0.00  0.00    +0.000 NA
ATOM     22  H   UNL     1       5.277   2.817  18.806  0.00  0.00    +0.000 HD
ATOM     23  H   UNL     1       5.828   4.329  18.555  0.00  0.00    +0.000 HD
ENDBRANCH  19  21
BRANCH  18  24
ATOM     24  C   UNL     1       1.498   3.598  19.643  0.00  0.00    +0.000 C 
BRANCH  24  25
ATOM     25  C   UNL     1       0.667   2.373  19.275  0.00  0.00    +0.000 C 
BRANCH  25  26
ATOM     26  O   UNL     1       1.512   1.362  18.741  0.00  0.00    +0.000 OA
ATOM     27  H   UNL     1       2.115   1.080  19.445  0.00  0.00    +0.000 HD
ENDBRANCH  25  26
ENDBRANCH  24  25
ENDBRANCH  18  24
ENDBRANCH  15  16
ENDBRANCH   8  15
TORSDOF 7
ENDMDL
MODEL 8
REMARK VINA RESULT:      -6.3      2.797      4.609
REMARK  Name = 
REMARK  9 active torsions:
REMARK  status: ('A' for Active; 'I' for Inactive)
REMARK    1  A    between atoms: C_1  and  C_2
REMARK    2  A    between atoms: C_4  and  C_5
REMARK    3  A    between atoms: C_8  and  C_9
REMARK    4  A    between atoms: C_9  and  N_10
REMARK    5  A    between atoms: C_12  and  C_13
REMARK    6  A    between atoms: C_13  and  C_14
REMARK    7  A    between atoms: C_14  and  O_15
REMARK    8  A    between atoms: C_16  and  N_17
REMARK    9  A    between atoms: C_20  and  O_21
REMARK                            x       y       z     vdW  Elec       q    Type
REMARK                         _______ _______ _______ _____ _____    ______ ____
ROOT
ATOM      1  C   UNL     1       0.727   8.810  21.794  0.00  0.00    +0.000 C 
ATOM      2  C   UNL     1       1.348   7.867  20.807  0.00  0.00    +0.000 A 
ATOM      3  C   UNL     1       1.792   8.315  19.566  0.00  0.00    +0.000 A 
ATOM      4  C   UNL     1       2.373   7.428  18.640  0.00  0.00    +0.000 A 
ATOM      5  C   UNL     1       2.889   7.982  17.339  0.00  0.00    +0.000 C 
ATOM      6  C   UNL     1       2.537   6.068  18.942  0.00  0.00    +0.000 A 
ATOM      7  N   UNL     1       3.119   5.232  18.048  0.00  0.00    +0.000 NA
ATOM      8  C   UNL     1       3.303   3.922  18.365  0.00  0.00    +0.000 A 
ATOM      9  C   UNL     1       2.909   3.397  19.585  0.00  0.00    +0.000 A 
ATOM     10  C   UNL     1       2.307   4.253  20.499  0.00  0.00    +0.000 A 
ATOM     11  C   UNL     1       2.103   5.612  20.202  0.00  0.00    +0.000 A 
ATOM     12  C   UNL     1       1.508   6.515  21.118  0.00  0.00    +0.000 A 
ENDROOT
BRANCH  10  13
ATOM     13  O   UNL     1       1.927   3.773  21.728  0.00  0.00    +0.000 OA
ATOM     14  H   UNL     1       1.757   4.522  22.322  0.00  0.00    +0.000 HD
ENDBRANCH  10  13
BRANCH   8  15
ATOM     15  C   UNL     1       4.062   3.067  17.358  0.00  0.00    +0.000 C 
BRANCH  15  16
ATOM     16  N   UNL     1       5.227   3.715  16.722  0.00  0.00    +0.000 NA
ATOM     17  C   UNL     1       4.842   4.707  15.715  0.00  0.00    +0.000 C 
ATOM     18  C   UNL     1       6.145   5.484  15.493  0.00  0.00    +0.000 C 
ATOM     19  C   UNL     1       6.699   5.621  16.924  0.00  0.00    +0.000 C 
ATOM     20  C   UNL     1       6.017   4.474  17.711  0.00  0.00    +0.000 C 
BRANCH  19  21
ATOM     21  N   UNL     1       6.387   6.934  17.503  0.00  0.00    +0.000 NA
ATOM     22  H   UNL     1       6.905   7.061  18.373  0.00  0.00    +0.000 HD
ATOM     23  H   UNL     1       5.399   6.966  17.759  0.00  0.00    +0.000 HD
ENDBRANCH  19  21
BRANCH  18  24
ATOM     24  C   UNL     1       7.169   4.753  14.600  0.00  0.00    +0.000 C 
BRANCH  24  25
ATOM     25  C   UNL     1       6.617   4.384  13.227  0.00  0.00    +0.000 C 
BRANCH  25  26
ATOM     26  O   UNL     1       6.429   2.977  13.147  0.00  0.00    +0.000 OA
ATOM     27  H   UNL     1       6.538   2.717  12.221  0.00  0.00    +0.000 HD
ENDBRANCH  25  26
ENDBRANCH  24  25
ENDBRANCH  18  24
ENDBRANCH  15  16
ENDBRANCH   8  15
TORSDOF 7
ENDMDL
MODEL 9
REMARK VINA RESULT:      -6.3      2.877      8.019
REMARK  Name = 
REMARK  9 active torsions:
REMARK  status: ('A' for Active; 'I' for Inactive)
REMARK    1  A    between atoms: C_1  and  C_2
REMARK    2  A    between atoms: C_4  and  C_5
REMARK    3  A    between atoms: C_8  and  C_9
REMARK    4  A    between atoms: C_9  and  N_10
REMARK    5  A    between atoms: C_12  and  C_13
REMARK    6  A    between atoms: C_13  and  C_14
REMARK    7  A    between atoms: C_14  and  O_15
REMARK    8  A    between atoms: C_16  and  N_17
REMARK    9  A    between atoms: C_20  and  O_21
REMARK                            x       y       z     vdW  Elec       q    Type
REMARK                         _______ _______ _______ _____ _____    ______ ____
ROOT
ATOM      1  C   UNL     1       4.491   2.094  19.415  0.00  0.00    +0.000 C 
ATOM      2  C   UNL     1       4.191   3.494  18.966  0.00  0.00    +0.000 A 
ATOM      3  C   UNL     1       4.731   4.001  17.787  0.00  0.00    +0.000 A 
ATOM      4  C   UNL     1       4.450   5.317  17.369  0.00  0.00    +0.000 A 
ATOM      5  C   UNL     1       5.013   5.788  16.055  0.00  0.00    +0.000 C 
ATOM      6  C   UNL     1       3.607   6.152  18.117  0.00  0.00    +0.000 A 
ATOM      7  N   UNL     1       3.329   7.407  17.688  0.00  0.00    +0.000 NA
ATOM      8  C   UNL     1       2.485   8.197  18.404  0.00  0.00    +0.000 A 
ATOM      9  C   UNL     1       1.889   7.764  19.577  0.00  0.00    +0.000 A 
ATOM     10  C   UNL     1       2.179   6.479  20.020  0.00  0.00    +0.000 A 
ATOM     11  C   UNL     1       3.047   5.638  19.303  0.00  0.00    +0.000 A 
ATOM     12  C   UNL     1       3.350   4.317  19.717  0.00  0.00    +0.000 A 
ENDROOT
BRANCH  10  13
ATOM     13  O   UNL     1       1.586   6.008  21.165  0.00  0.00    +0.000 OA
ATOM     14  H   UNL     1       1.441   6.750  21.775  0.00  0.00    +0.000 HD
ENDBRANCH  10  13
BRANCH   8  15
ATOM     15  C   UNL     1       2.132   9.552  17.805  0.00  0.00    +0.000 C 
BRANCH  15  16
ATOM     16  N   UNL     1       1.380  10.463  18.691  0.00  0.00    +0.000 NA
ATOM     17  C   UNL     1       1.802  11.860  18.556  0.00  0.00    +0.000 C 
ATOM     18  C   UNL     1       0.666  12.623  19.248  0.00  0.00    +0.000 C 
ATOM     19  C   UNL     1      -0.586  11.867  18.763  0.00  0.00    +0.000 C 
ATOM     20  C   UNL     1      -0.056  10.472  18.348  0.00  0.00    +0.000 C 
BRANCH  19  21
ATOM     21  N   UNL     1      -1.234  12.555  17.639  0.00  0.00    +0.000 NA
ATOM     22  H   UNL     1      -0.713  12.381  16.779  0.00  0.00    +0.000 HD
ATOM     23  H   UNL     1      -1.195  13.564  17.790  0.00  0.00    +0.000 HD
ENDBRANCH  19  21
BRANCH  18  24
ATOM     24  C   UNL     1       0.734  12.594  20.788  0.00  0.00    +0.000 C 
BRANCH  24  25
ATOM     25  C   UNL     1      -0.627  12.759  21.455  0.00  0.00    +0.000 C 
BRANCH  25  26
ATOM     26  O   UNL     1      -0.703  11.925  22.604  0.00  0.00    +0.000 OA
ATOM     27  H   UNL     1      -0.028  11.236  22.515  0.00  0.00    +0.000 HD
ENDBRANCH  25  26
ENDBRANCH  24  25
ENDBRANCH  18  24
ENDBRANCH  15  16
ENDBRANCH   8  15
TORSDOF 7
ENDMDL
