MODEL 1
REMARK VINA RESULT:      -6.3      0.000      0.000
REMARK  Name = 
REMARK  11 active torsions:
REMARK  status: ('A' for Active; 'I' for Inactive)
REMARK    1  A    between atoms: C_1  and  C_2
REMARK    2  A    between atoms: C_2  and  O_3
REMARK    3  A    between atoms: O_3  and  C_4
REMARK    4  A    between atoms: C_4  and  C_6
REMARK    5  A    between atoms: C_7  and  C_8
REMARK    6  A    between atoms: N_9  and  C_10
REMARK    7  A    between atoms: C_19  and  O_20
REMARK    8  A    between atoms: C_21  and  C_22
REMARK    9  A    between atoms: C_22  and  N_23
REMARK   10  A    between atoms: N_23  and  C_24
REMARK   11  A    between atoms: N_23  and  C_25
REMARK                            x       y       z     vdW  Elec       q    Type
REMARK                         _______ _______ _______ _____ _____    ______ ____
ROOT
ATOM      1  C   UNL     1       2.733   5.167  19.751  0.00  0.00    +0.000 A 
ATOM      2  C   UNL     1       3.678   4.537  18.928  0.00  0.00    +0.000 A 
ATOM      3  C   UNL     1       4.292   3.178  19.100  0.00  0.00    +0.000 C 
ATOM      4  N   UNL     1       4.067   5.437  17.934  0.00  0.00    +0.000 N 
ATOM      5  C   UNL     1       3.350   6.630  18.116  0.00  0.00    +0.000 A 
ATOM      6  C   UNL     1       3.323   7.800  17.325  0.00  0.00    +0.000 A 
ATOM      7  C   UNL     1       2.602   8.906  17.751  0.00  0.00    +0.000 A 
ATOM      8  C   UNL     1       1.835   8.828  18.898  0.00  0.00    +0.000 A 
ATOM      9  C   UNL     1       1.739   7.642  19.668  0.00  0.00    +0.000 A 
ATOM     10  C   UNL     1       2.537   6.510  19.259  0.00  0.00    +0.000 A 
ENDROOT
BRANCH   4  11
ATOM     11  C   UNL     1       5.062   5.206  16.913  0.00  0.00    +0.000 A 
ATOM     12  C   UNL     1       4.759   4.504  15.739  0.00  0.00    +0.000 A 
ATOM     13  C   UNL     1       5.741   4.253  14.774  0.00  0.00    +0.000 A 
ATOM     14  C   UNL     1       7.030   4.744  14.944  0.00  0.00    +0.000 A 
ATOM     15  C   UNL     1       7.343   5.467  16.090  0.00  0.00    +0.000 A 
ATOM     16  C   UNL     1       6.374   5.675  17.079  0.00  0.00    +0.000 A 
ENDBRANCH   4  11
BRANCH   1  17
ATOM     17  C   UNL     1       2.137   4.551  20.937  0.00  0.00    +0.000 C 
ATOM     18  O   UNL     1       2.645   4.543  22.048  0.00  0.00    +0.000 OA
BRANCH  17  19
ATOM     19  O   UNL     1       0.939   3.975  20.638  0.00  0.00    +0.000 OA
BRANCH  19  21
ATOM     20  C   UNL     1       0.619   2.446  18.887  0.00  0.00    +0.000 C 
ATOM     21  C   UNL     1       0.936   2.574  20.362  0.00  0.00    +0.000 C 
ENDBRANCH  19  21
ENDBRANCH  17  19
ENDBRANCH   1  17
BRANCH   8  22
ATOM     22  O   UNL     1       1.119   9.934  19.284  0.00  0.00    +0.000 OA
ATOM     23  H   UNL     1       0.831   9.818  20.203  0.00  0.00    +0.000 HD
ENDBRANCH   8  22
BRANCH   9  24
ATOM     24  C   UNL     1       0.743   7.649  20.825  0.00  0.00    +0.000 C 
BRANCH  24  25
ATOM     25  N   UNL     1       0.650   8.916  21.584  0.00  0.00    +0.000 NA
ATOM     26  C   UNL     1      -0.612   8.995  22.330  0.00  0.00    +0.000 C 
ATOM     27  C   UNL     1       1.761   8.965  22.544  0.00  0.00    +0.000 C 
ENDBRANCH  24  25
ENDBRANCH   9  24
TORSDOF 7
ENDMDL
MODEL 2
REMARK VINA RESULT:      -6.0      6.483      9.250
REMARK  Name = 
REMARK  11 active torsions:
REMARK  status: ('A' for Active; 'I' for Inactive)
REMARK    1  A    between atoms: C_1  and  C_2
REMARK    2  A    between atoms: C_2  and  O_3
REMARK    3  A    between atoms: O_3  and  C_4
REMARK    4  A    between atoms: C_4  and  C_6
REMARK    5  A    between atoms: C_7  and  C_8
REMARK    6  A    between atoms: N_9  and  C_10
REMARK    7  A    between atoms: C_19  and  O_20
REMARK    8  A    between atoms: C_21  and  C_22
REMARK    9  A    between atoms: C_22  and  N_23
REMARK   10  A    between atoms: N_23  and  C_24
REMARK   11  A    between atoms: N_23  and  C_25
REMARK                            x       y       z     vdW  Elec       q    Type
REMARK                         _______ _______ _______ _____ _____    ______ ____
ROOT
ATOM      1  C   UNL     1      -3.098  12.684  20.836  0.00  0.00    +0.000 A 
ATOM      2  C   UNL     1      -1.702  12.590  20.751  0.00  0.00    +0.000 A 
ATOM      3  C   UNL     1      -0.684  12.999  21.775  0.00  0.00    +0.000 C 
ATOM      4  N   UNL     1      -1.368  12.137  19.473  0.00  0.00    +0.000 N 
ATOM      5  C   UNL     1      -2.557  11.924  18.757  0.00  0.00    +0.000 A 
ATOM      6  C   UNL     1      -2.752  11.388  17.465  0.00  0.00    +0.000 A 
ATOM      7  C   UNL     1      -4.025  11.353  16.916  0.00  0.00    +0.000 A 
ATOM      8  C   UNL     1      -5.111  11.754  17.671  0.00  0.00    +0.000 A 
ATOM      9  C   UNL     1      -4.983  12.194  19.012  0.00  0.00    +0.000 A 
ATOM     10  C   UNL     1      -3.652  12.288  19.563  0.00  0.00    +0.000 A 
ENDROOT
BRANCH   4  11
ATOM     11  C   UNL     1      -0.033  11.952  18.952  0.00  0.00    +0.000 A 
ATOM     12  C   UNL     1       0.784  13.043  18.626  0.00  0.00    +0.000 A 
ATOM     13  C   UNL     1       2.061  12.852  18.085  0.00  0.00    +0.000 A 
ATOM     14  C   UNL     1       2.560  11.567  17.908  0.00  0.00    +0.000 A 
ATOM     15  C   UNL     1       1.774  10.472  18.251  0.00  0.00    +0.000 A 
ATOM     16  C   UNL     1       0.478  10.662  18.745  0.00  0.00    +0.000 A 
ENDBRANCH   4  11
BRANCH   1  17
ATOM     17  C   UNL     1      -3.817  13.179  22.011  0.00  0.00    +0.000 C 
ATOM     18  O   UNL     1      -4.223  14.323  22.149  0.00  0.00    +0.000 OA
BRANCH  17  19
ATOM     19  O   UNL     1      -3.969  12.195  22.941  0.00  0.00    +0.000 OA
BRANCH  19  21
ATOM     20  C   UNL     1      -5.190  12.339  24.939  0.00  0.00    +0.000 C 
ATOM     21  C   UNL     1      -3.830  12.563  24.313  0.00  0.00    +0.000 C 
ENDBRANCH  19  21
ENDBRANCH  17  19
ENDBRANCH   1  17
BRANCH   8  22
ATOM     22  O   UNL     1      -6.361  11.691  17.105  0.00  0.00    +0.000 OA
ATOM     23  H   UNL     1      -6.481  12.456  16.519  0.00  0.00    +0.000 HD
ENDBRANCH   8  22
BRANCH   9  24
ATOM     24  C   UNL     1      -6.277  12.465  19.776  0.00  0.00    +0.000 C 
BRANCH  24  25
ATOM     25  N   UNL     1      -6.602  11.500  20.849  0.00  0.00    +0.000 NA
ATOM     26  C   UNL     1      -7.443  12.119  21.882  0.00  0.00    +0.000 C 
ATOM     27  C   UNL     1      -7.344  10.378  20.257  0.00  0.00    +0.000 C 
ENDBRANCH  24  25
ENDBRANCH   9  24
TORSDOF 7
ENDMDL
MODEL 3
REMARK VINA RESULT:      -5.9      6.753      9.731
REMARK  Name = 
REMARK  11 active torsions:
REMARK  status: ('A' for Active; 'I' for Inactive)
REMARK    1  A    between atoms: C_1  and  C_2
REMARK    2  A    between atoms: C_2  and  O_3
REMARK    3  A    between atoms: O_3  and  C_4
REMARK    4  A    between atoms: C_4  and  C_6
REMARK    5  A    between atoms: C_7  and  C_8
REMARK    6  A    between atoms: N_9  and  C_10
REMARK    7  A    between atoms: C_19  and  O_20
REMARK    8  A    between atoms: C_21  and  C_22
REMARK    9  A    between atoms: C_22  and  N_23
REMARK   10  A    between atoms: N_23  and  C_24
REMARK   11  A    between atoms: N_23  and  C_25
REMARK                            x       y       z     vdW  Elec       q    Type
REMARK                         _______ _______ _______ _____ _____    ______ ____
ROOT
ATOM      1  C   UNL     1      -3.391  12.635  21.101  0.00  0.00    +0.000 A 
ATOM      2  C   UNL     1      -1.992  12.593  21.013  0.00  0.00    +0.000 A 
ATOM      3  C   UNL     1      -0.989  12.980  22.059  0.00  0.00    +0.000 C 
ATOM      4  N   UNL     1      -1.643  12.221  19.713  0.00  0.00    +0.000 N 
ATOM      5  C   UNL     1      -2.824  12.007  18.984  0.00  0.00    +0.000 A 
ATOM      6  C   UNL     1      -3.002  11.535  17.665  0.00  0.00    +0.000 A 
ATOM      7  C   UNL     1      -4.273  11.488  17.112  0.00  0.00    +0.000 A 
ATOM      8  C   UNL     1      -5.372  11.809  17.886  0.00  0.00    +0.000 A 
ATOM      9  C   UNL     1      -5.259  12.181  19.249  0.00  0.00    +0.000 A 
ATOM     10  C   UNL     1      -3.932  12.289  19.806  0.00  0.00    +0.000 A 
ENDROOT
BRANCH   4  11
ATOM     11  C   UNL     1      -0.303  12.110  19.185  0.00  0.00    +0.000 A 
ATOM     12  C   UNL     1       0.426  13.240  18.794  0.00  0.00    +0.000 A 
ATOM     13  C   UNL     1       1.709  13.119  18.247  0.00  0.00    +0.000 A 
ATOM     14  C   UNL     1       2.302  11.867  18.129  0.00  0.00    +0.000 A 
ATOM     15  C   UNL     1       1.604  10.736  18.536  0.00  0.00    +0.000 A 
ATOM     16  C   UNL     1       0.302  10.853  19.037  0.00  0.00    +0.000 A 
ENDBRANCH   4  11
BRANCH   1  17
ATOM     17  C   UNL     1      -4.127  13.040  22.299  0.00  0.00    +0.000 C 
ATOM     18  O   UNL     1      -4.488  12.280  23.185  0.00  0.00    +0.000 OA
BRANCH  17  19
ATOM     19  O   UNL     1      -4.367  14.381  22.296  0.00  0.00    +0.000 OA
BRANCH  19  21
ATOM     20  C   UNL     1      -5.615  15.629  23.842  0.00  0.00    +0.000 C 
ATOM     21  C   UNL     1      -5.700  14.809  22.572  0.00  0.00    +0.000 C 
ENDBRANCH  19  21
ENDBRANCH  17  19
ENDBRANCH   1  17
BRANCH   8  22
ATOM     22  O   UNL     1      -6.618  11.736  17.316  0.00  0.00    +0.000 OA
ATOM     23  H   UNL     1      -7.223  12.320  17.802  0.00  0.00    +0.000 HD
ENDBRANCH   8  22
BRANCH   9  24
ATOM     24  C   UNL     1      -6.561  12.366  20.025  0.00  0.00    +0.000 C 
BRANCH  24  25
ATOM     25  N   UNL     1      -6.867  11.319  21.025  0.00  0.00    +0.000 NA
ATOM     26  C   UNL     1      -7.864  11.787  21.994  0.00  0.00    +0.000 C 
ATOM     27  C   UNL     1      -7.414  10.150  20.322  0.00  0.00    +0.000 C 
ENDBRANCH  24  25
ENDBRANCH   9  24
TORSDOF 7
ENDMDL
MODEL 4
REMARK VINA RESULT:      -5.9      4.157      9.816
REMARK  Name = 
REMARK  11 active torsions:
REMARK  status: ('A' for Active; 'I' for Inactive)
REMARK    1  A    between atoms: C_1  and  C_2
REMARK    2  A    between atoms: C_2  and  O_3
REMARK    3  A    between atoms: O_3  and  C_4
REMARK    4  A    between atoms: C_4  and  C_6
REMARK    5  A    between atoms: C_7  and  C_8
REMARK    6  A    between atoms: N_9  and  C_10
REMARK    7  A    between atoms: C_19  and  O_20
REMARK    8  A    between atoms: C_21  and  C_22
REMARK    9  A    between atoms: C_22  and  N_23
REMARK   10  A    between atoms: N_23  and  C_24
REMARK   11  A    between atoms: N_23  and  C_25
REMARK                            x       y       z     vdW  Elec       q    Type
REMARK                         _______ _______ _______ _____ _____    ______ ____
ROOT
ATOM      1  C   UNL     1      -1.455  11.777  19.845  0.00  0.00    +0.000 A 
ATOM      2  C   UNL     1      -2.146  12.670  20.677  0.00  0.00    +0.000 A 
ATOM      3  C   UNL     1      -2.960  13.865  20.275  0.00  0.00    +0.000 C 
ATOM      4  N   UNL     1      -1.872  12.337  22.004  0.00  0.00    +0.000 N 
ATOM      5  C   UNL     1      -1.023  11.218  22.012  0.00  0.00    +0.000 A 
ATOM      6  C   UNL     1      -0.539  10.456  23.097  0.00  0.00    +0.000 A 
ATOM      7  C   UNL     1       0.373   9.434  22.873  0.00  0.00    +0.000 A 
ATOM      8  C   UNL     1       0.729   9.103  21.580  0.00  0.00    +0.000 A 
ATOM      9  C   UNL     1       0.186   9.762  20.449  0.00  0.00    +0.000 A 
ATOM     10  C   UNL     1      -0.715  10.864  20.684  0.00  0.00    +0.000 A 
ENDROOT
BRANCH   4  11
ATOM     11  C   UNL     1      -2.342  13.037  23.177  0.00  0.00    +0.000 A 
ATOM     12  C   UNL     1      -3.531  12.673  23.821  0.00  0.00    +0.000 A 
ATOM     13  C   UNL     1      -3.997  13.383  24.934  0.00  0.00    +0.000 A 
ATOM     14  C   UNL     1      -3.254  14.438  25.450  0.00  0.00    +0.000 A 
ATOM     15  C   UNL     1      -2.057  14.798  24.840  0.00  0.00    +0.000 A 
ATOM     16  C   UNL     1      -1.617  14.120  23.698  0.00  0.00    +0.000 A 
ENDBRANCH   4  11
BRANCH   1  17
ATOM     17  C   UNL     1      -1.456  11.849  18.383  0.00  0.00    +0.000 C 
ATOM     18  O   UNL     1      -0.867  12.694  17.727  0.00  0.00    +0.000 OA
BRANCH  17  19
ATOM     19  O   UNL     1      -2.212  10.851  17.845  0.00  0.00    +0.000 OA
BRANCH  19  21
ATOM     20  C   UNL     1      -2.777  10.509  15.594  0.00  0.00    +0.000 C 
ATOM     21  C   UNL     1      -3.184  11.220  16.867  0.00  0.00    +0.000 C 
ENDBRANCH  19  21
ENDBRANCH  17  19
ENDBRANCH   1  17
BRANCH   8  22
ATOM     22  O   UNL     1       1.620   8.075  21.389  0.00  0.00    +0.000 OA
ATOM     23  H   UNL     1       1.171   7.349  20.927  0.00  0.00    +0.000 HD
ENDBRANCH   8  22
BRANCH   9  24
ATOM     24  C   UNL     1       0.553   9.197  19.078  0.00  0.00    +0.000 C 
BRANCH  24  25
ATOM     25  N   UNL     1       1.963   9.380  18.666  0.00  0.00    +0.000 NA
ATOM     26  C   UNL     1       2.372   8.345  17.708  0.00  0.00    +0.000 C 
ATOM     27  C   UNL     1       2.090  10.691  18.015  0.00  0.00    +0.000 C 
ENDBRANCH  24  25
ENDBRANCH   9  24
TORSDOF 7
ENDMDL
MODEL 5
REMARK VINA RESULT:      -5.8      5.065      8.401
REMARK  Name = 
REMARK  11 active torsions:
REMARK  status: ('A' for Active; 'I' for Inactive)
REMARK    1  A    between atoms: C_1  and  C_2
REMARK    2  A    between atoms: C_2  and  O_3
REMARK    3  A    between atoms: O_3  and  C_4
REMARK    4  A    between atoms: C_4  and  C_6
REMARK    5  A    between atoms: C_7  and  C_8
REMARK    6  A    between atoms: N_9  and  C_10
REMARK    7  A    between atoms: C_19  and  O_20
REMARK    8  A    between atoms: C_21  and  C_22
REMARK    9  A    between atoms: C_22  and  N_23
REMARK   10  A    between atoms: N_23  and  C_24
REMARK   11  A    between atoms: N_23  and  C_25
REMARK                            x       y       z     vdW  Elec       q    Type
REMARK                         _______ _______ _______ _____ _____    ______ ____
ROOT
ATOM      1  C   UNL     1      -2.107  12.381  20.347  0.00  0.00    +0.000 A 
ATOM      2  C   UNL     1      -0.871  11.726  20.451  0.00  0.00    +0.000 A 
ATOM      3  C   UNL     1       0.291  12.082  21.331  0.00  0.00    +0.000 C 
ATOM      4  N   UNL     1      -0.830  10.708  19.497  0.00  0.00    +0.000 N 
ATOM      5  C   UNL     1      -2.051  10.705  18.804  0.00  0.00    +0.000 A 
ATOM      6  C   UNL     1      -2.529   9.818  17.814  0.00  0.00    +0.000 A 
ATOM      7  C   UNL     1      -3.745  10.064  17.194  0.00  0.00    +0.000 A 
ATOM      8  C   UNL     1      -4.530  11.120  17.614  0.00  0.00    +0.000 A 
ATOM      9  C   UNL     1      -4.149  11.974  18.679  0.00  0.00    +0.000 A 
ATOM     10  C   UNL     1      -2.856  11.756  19.283  0.00  0.00    +0.000 A 
ENDROOT
BRANCH   4  11
ATOM     11  C   UNL     1       0.284   9.828  19.232  0.00  0.00    +0.000 A 
ATOM     12  C   UNL     1       0.951   9.840  18.000  0.00  0.00    +0.000 A 
ATOM     13  C   UNL     1       2.004   8.956  17.740  0.00  0.00    +0.000 A 
ATOM     14  C   UNL     1       2.440   8.079  18.726  0.00  0.00    +0.000 A 
ATOM     15  C   UNL     1       1.807   8.070  19.965  0.00  0.00    +0.000 A 
ATOM     16  C   UNL     1       0.722   8.919  20.208  0.00  0.00    +0.000 A 
ENDBRANCH   4  11
BRANCH   1  17
ATOM     17  C   UNL     1      -2.491  13.542  21.152  0.00  0.00    +0.000 C 
ATOM     18  O   UNL     1      -2.045  14.670  21.004  0.00  0.00    +0.000 OA
BRANCH  17  19
ATOM     19  O   UNL     1      -3.408  13.198  22.099  0.00  0.00    +0.000 OA
BRANCH  19  21
ATOM     20  C   UNL     1      -4.001  12.447  24.241  0.00  0.00    +0.000 C 
ATOM     21  C   UNL     1      -2.982  12.308  23.131  0.00  0.00    +0.000 C 
ENDBRANCH  19  21
ENDBRANCH  17  19
ENDBRANCH   1  17
BRANCH   8  22
ATOM     22  O   UNL     1      -5.737  11.327  16.992  0.00  0.00    +0.000 OA
ATOM     23  H   UNL     1      -6.071  10.478  16.661  0.00  0.00    +0.000 HD
ENDBRANCH   8  22
BRANCH   9  24
ATOM     24  C   UNL     1      -5.175  13.008  19.136  0.00  0.00    +0.000 C 
BRANCH  24  25
ATOM     25  N   UNL     1      -6.487  12.467  19.557  0.00  0.00    +0.000 NA
ATOM     26  C   UNL     1      -6.445  11.999  20.947  0.00  0.00    +0.000 C 
ATOM     27  C   UNL     1      -7.486  13.540  19.457  0.00  0.00    +0.000 C 
ENDBRANCH  24  25
ENDBRANCH   9  24
TORSDOF 7
ENDMDL
MODEL 6
REMARK VINA RESULT:      -5.8      2.300      6.851
REMARK  Name = 
REMARK  11 active torsions:
REMARK  status: ('A' for Active; 'I' for Inactive)
REMARK    1  A    between atoms: C_1  and  C_2
REMARK    2  A    between atoms: C_2  and  O_3
REMARK    3  A    between atoms: O_3  and  C_4
REMARK    4  A    between atoms: C_4  and  C_6
REMARK    5  A    between atoms: C_7  and  C_8
REMARK    6  A    between atoms: N_9  and  C_10
REMARK    7  A    between atoms: C_19  and  O_20
REMARK    8  A    between atoms: C_21  and  C_22
REMARK    9  A    between atoms: C_22  and  N_23
REMARK   10  A    between atoms: N_23  and  C_24
REMARK   11  A    between atoms: N_23  and  C_25
REMARK                            x       y       z     vdW  Elec       q    Type
REMARK                         _______ _______ _______ _____ _____    ______ ____
ROOT
ATOM      1  C   UNL     1       3.662   6.668  18.081  0.00  0.00    +0.000 A 
ATOM      2  C   UNL     1       2.955   7.864  18.270  0.00  0.00    +0.000 A 
ATOM      3  C   UNL     1       3.131   9.165  17.542  0.00  0.00    +0.000 C 
ATOM      4  N   UNL     1       2.092   7.700  19.355  0.00  0.00    +0.000 N 
ATOM      5  C   UNL     1       2.239   6.390  19.840  0.00  0.00    +0.000 A 
ATOM      6  C   UNL     1       1.529   5.717  20.858  0.00  0.00    +0.000 A 
ATOM      7  C   UNL     1       1.910   4.438  21.237  0.00  0.00    +0.000 A 
ATOM      8  C   UNL     1       2.918   3.789  20.550  0.00  0.00    +0.000 A 
ATOM      9  C   UNL     1       3.587   4.377  19.447  0.00  0.00    +0.000 A 
ATOM     10  C   UNL     1       3.233   5.730  19.093  0.00  0.00    +0.000 A 
ENDROOT
BRANCH   4  11
ATOM     11  C   UNL     1       1.222   8.707  19.917  0.00  0.00    +0.000 A 
ATOM     12  C   UNL     1       1.184   8.956  21.295  0.00  0.00    +0.000 A 
ATOM     13  C   UNL     1       0.308   9.907  21.833  0.00  0.00    +0.000 A 
ATOM     14  C   UNL     1      -0.506  10.660  20.995  0.00  0.00    +0.000 A 
ATOM     15  C   UNL     1      -0.463  10.446  19.622  0.00  0.00    +0.000 A 
ATOM     16  C   UNL     1       0.376   9.460  19.088  0.00  0.00    +0.000 A 
ENDBRANCH   4  11
BRANCH   1  17
ATOM     17  C   UNL     1       4.701   6.479  17.068  0.00  0.00    +0.000 C 
ATOM     18  O   UNL     1       4.581   5.787  16.069  0.00  0.00    +0.000 OA
BRANCH  17  19
ATOM     19  O   UNL     1       5.829   7.172  17.389  0.00  0.00    +0.000 OA
BRANCH  19  21
ATOM     20  C   UNL     1       7.480   5.911  18.480  0.00  0.00    +0.000 C 
ATOM     21  C   UNL     1       7.082   6.527  17.156  0.00  0.00    +0.000 C 
ENDBRANCH  19  21
ENDBRANCH  17  19
ENDBRANCH   1  17
BRANCH   8  22
ATOM     22  O   UNL     1       3.260   2.517  20.937  0.00  0.00    +0.000 OA
ATOM     23  H   UNL     1       2.538   1.911  20.704  0.00  0.00    +0.000 HD
ENDBRANCH   8  22
BRANCH   9  24
ATOM     24  C   UNL     1       4.576   3.494  18.689  0.00  0.00    +0.000 C 
BRANCH  24  25
ATOM     25  N   UNL     1       3.987   2.605  17.664  0.00  0.00    +0.000 NA
ATOM     26  C   UNL     1       3.826   1.239  18.177  0.00  0.00    +0.000 C 
ATOM     27  C   UNL     1       2.661   3.125  17.304  0.00  0.00    +0.000 C 
ENDBRANCH  24  25
ENDBRANCH   9  24
TORSDOF 7
ENDMDL
MODEL 7
REMARK VINA RESULT:      -5.7      5.207     10.242
REMARK  Name = 
REMARK  11 active torsions:
REMARK  status: ('A' for Active; 'I' for Inactive)
REMARK    1  A    between atoms: C_1  and  C_2
REMARK    2  A    between atoms: C_2  and  O_3
REMARK    3  A    between atoms: O_3  and  C_4
REMARK    4  A    between atoms: C_4  and  C_6
REMARK    5  A    between atoms: C_7  and  C_8
REMARK    6  A    between atoms: N_9  and  C_10
REMARK    7  A    between atoms: C_19  and  O_20
REMARK    8  A    between atoms: C_21  and  C_22
REMARK    9  A    between atoms: C_22  and  N_23
REMARK   10  A    between atoms: N_23  and  C_24
REMARK   11  A    between atoms: N_23  and  C_25
REMARK                            x       y       z     vdW  Elec       q    Type
REMARK                         _______ _______ _______ _____ _____    ______ ____
ROOT
ATOM      1  C   UNL     1      -1.738  12.075  21.322  0.00  0.00    +0.000 A 
ATOM      2  C   UNL     1      -2.864  12.786  21.763  0.00  0.00    +0.000 A 
ATOM      3  C   UNL     1      -3.105  13.383  23.118  0.00  0.00    +0.000 C 
ATOM      4  N   UNL     1      -3.821  12.770  20.748  0.00  0.00    +0.000 N 
ATOM      5  C   UNL     1      -3.292  12.065  19.654  0.00  0.00    +0.000 A 
ATOM      6  C   UNL     1      -3.832  11.852  18.367  0.00  0.00    +0.000 A 
ATOM      7  C   UNL     1      -3.166  11.038  17.463  0.00  0.00    +0.000 A 
ATOM      8  C   UNL     1      -1.929  10.517  17.790  0.00  0.00    +0.000 A 
ATOM      9  C   UNL     1      -1.290  10.791  19.025  0.00  0.00    +0.000 A 
ATOM     10  C   UNL     1      -2.011  11.589  19.989  0.00  0.00    +0.000 A 
ENDROOT
BRANCH   4  11
ATOM     11  C   UNL     1      -5.147  13.341  20.812  0.00  0.00    +0.000 A 
ATOM     12  C   UNL     1      -6.255  12.578  21.202  0.00  0.00    +0.000 A 
ATOM     13  C   UNL     1      -7.541  13.131  21.223  0.00  0.00    +0.000 A 
ATOM     14  C   UNL     1      -7.731  14.470  20.903  0.00  0.00    +0.000 A 
ATOM     15  C   UNL     1      -6.639  15.250  20.540  0.00  0.00    +0.000 A 
ATOM     16  C   UNL     1      -5.360  14.685  20.470  0.00  0.00    +0.000 A 
ENDBRANCH   4  11
BRANCH   1  17
ATOM     17  C   UNL     1      -0.549  11.831  22.138  0.00  0.00    +0.000 C 
ATOM     18  O   UNL     1       0.533  12.374  21.973  0.00  0.00    +0.000 OA
BRANCH  17  19
ATOM     19  O   UNL     1      -0.802  10.908  23.108  0.00  0.00    +0.000 OA
BRANCH  19  21
ATOM     20  C   UNL     1      -0.551   8.727  22.280  0.00  0.00    +0.000 C 
ATOM     21  C   UNL     1       0.067   9.777  23.178  0.00  0.00    +0.000 C 
ENDBRANCH  19  21
ENDBRANCH  17  19
ENDBRANCH   1  17
BRANCH   8  22
ATOM     22  O   UNL     1      -1.286   9.729  16.868  0.00  0.00    +0.000 OA
ATOM     23  H   UNL     1      -1.749   8.878  16.801  0.00  0.00    +0.000 HD
ENDBRANCH   8  22
BRANCH   9  24
ATOM     24  C   UNL     1       0.136  10.274  19.196  0.00  0.00    +0.000 C 
BRANCH  24  25
ATOM     25  N   UNL     1       1.116  10.753  18.196  0.00  0.00    +0.000 NA
ATOM     26  C   UNL     1       1.844  11.929  18.690  0.00  0.00    +0.000 C 
ATOM     27  C   UNL     1       2.087   9.679  17.943  0.00  0.00    +0.000 C 
ENDBRANCH  24  25
ENDBRANCH   9  24
TORSDOF 7
ENDMDL
MODEL 8
REMARK VINA RESULT:      -5.7      2.402      6.424
REMARK  Name = 
REMARK  11 active torsions:
REMARK  status: ('A' for Active; 'I' for Inactive)
REMARK    1  A    between atoms: C_1  and  C_2
REMARK    2  A    between atoms: C_2  and  O_3
REMARK    3  A    between atoms: O_3  and  C_4
REMARK    4  A    between atoms: C_4  and  C_6
REMARK    5  A    between atoms: C_7  and  C_8
REMARK    6  A    between atoms: N_9  and  C_10
REMARK    7  A    between atoms: C_19  and  O_20
REMARK    8  A    between atoms: C_21  and  C_22
REMARK    9  A    between atoms: C_22  and  N_23
REMARK   10  A    between atoms: N_23  and  C_24
REMARK   11  A    between atoms: N_23  and  C_25
REMARK                            x       y       z     vdW  Elec       q    Type
REMARK                         _______ _______ _______ _____ _____    ______ ____
ROOT
ATOM      1  C   UNL     1       4.172   5.176  18.277  0.00  0.00    +0.000 A 
ATOM      2  C   UNL     1       3.755   6.491  18.025  0.00  0.00    +0.000 A 
ATOM      3  C   UNL     1       4.360   7.485  17.078  0.00  0.00    +0.000 C 
ATOM      4  N   UNL     1       2.711   6.798  18.898  0.00  0.00    +0.000 N 
ATOM      5  C   UNL     1       2.452   5.667  19.689  0.00  0.00    +0.000 A 
ATOM      6  C   UNL     1       1.441   5.446  20.651  0.00  0.00    +0.000 A 
ATOM      7  C   UNL     1       1.430   4.270  21.386  0.00  0.00    +0.000 A 
ATOM      8  C   UNL     1       2.351   3.278  21.109  0.00  0.00    +0.000 A 
ATOM      9  C   UNL     1       3.316   3.403  20.078  0.00  0.00    +0.000 A 
ATOM     10  C   UNL     1       3.366   4.650  19.354  0.00  0.00    +0.000 A 
ENDROOT
BRANCH   4  11
ATOM     11  C   UNL     1       2.030   8.068  19.007  0.00  0.00    +0.000 A 
ATOM     12  C   UNL     1       1.646   8.589  20.249  0.00  0.00    +0.000 A 
ATOM     13  C   UNL     1       0.953   9.802  20.340  0.00  0.00    +0.000 A 
ATOM     14  C   UNL     1       0.678  10.537  19.193  0.00  0.00    +0.000 A 
ATOM     15  C   UNL     1       1.075  10.048  17.953  0.00  0.00    +0.000 A 
ATOM     16  C   UNL     1       1.724   8.812  17.857  0.00  0.00    +0.000 A 
ENDBRANCH   4  11
BRANCH   1  17
ATOM     17  C   UNL     1       5.287   4.522  17.591  0.00  0.00    +0.000 C 
ATOM     18  O   UNL     1       5.265   4.145  16.430  0.00  0.00    +0.000 OA
BRANCH  17  19
ATOM     19  O   UNL     1       6.356   4.379  18.423  0.00  0.00    +0.000 OA
BRANCH  19  21
ATOM     20  C   UNL     1       7.650   6.336  18.429  0.00  0.00    +0.000 C 
ATOM     21  C   UNL     1       7.610   4.893  17.974  0.00  0.00    +0.000 C 
ENDBRANCH  19  21
ENDBRANCH  17  19
ENDBRANCH   1  17
BRANCH   8  22
ATOM     22  O   UNL     1       2.304   2.118  21.842  0.00  0.00    +0.000 OA
ATOM     23  H   UNL     1       2.289   1.360  21.234  0.00  0.00    +0.000 HD
ENDBRANCH   8  22
BRANCH   9  24
ATOM     24  C   UNL     1       4.173   2.174  19.782  0.00  0.00    +0.000 C 
BRANCH  24  25
ATOM     25  N   UNL     1       3.581   1.188  18.850  0.00  0.00    +0.000 NA
ATOM     26  C   UNL     1       2.293   1.661  18.328  0.00  0.00    +0.000 C 
ATOM     27  C   UNL     1       4.501   1.006  17.720  0.00  0.00    +0.000 C 
ENDBRANCH  24  25
ENDBRANCH   9  24
TORSDOF 7
ENDMDL
MODEL 9
REMARK VINA RESULT:      -5.7      3.828      6.959
REMARK  Name = 
REMARK  11 active torsions:
REMARK  status: ('A' for Active; 'I' for Inactive)
REMARK    1  A    between atoms: C_1  and  C_2
REMARK    2  A    between atoms: C_2  and  O_3
REMARK    3  A    between atoms: O_3  and  C_4
REMARK    4  A    between atoms: C_4  and  C_6
REMARK    5  A    between atoms: C_7  and  C_8
REMARK    6  A    between atoms: N_9  and  C_10
REMARK    7  A    between atoms: C_19  and  O_20
REMARK    8  A    between atoms: C_21  and  C_22
REMARK    9  A    between atoms: C_22  and  N_23
REMARK   10  A    between atoms: N_23  and  C_24
REMARK   11  A    between atoms: N_23  and  C_25
REMARK                            x       y       z     vdW  Elec       q    Type
REMARK                         _______ _______ _______ _____ _____    ______ ____
ROOT
ATOM      1  C   UNL     1      -0.484  10.932  21.232  0.00  0.00    +0.000 A 
ATOM      2  C   UNL     1       0.553   9.989  21.163  0.00  0.00    +0.000 A 
ATOM      3  C   UNL     1       1.569   9.656  22.215  0.00  0.00    +0.000 C 
ATOM      4  N   UNL     1       0.574   9.451  19.875  0.00  0.00    +0.000 N 
ATOM      5  C   UNL     1      -0.465  10.039  19.135  0.00  0.00    +0.000 A 
ATOM      6  C   UNL     1      -0.908   9.766  17.822  0.00  0.00    +0.000 A 
ATOM      7  C   UNL     1      -1.907  10.543  17.254  0.00  0.00    +0.000 A 
ATOM      8  C   UNL     1      -2.532  11.518  18.008  0.00  0.00    +0.000 A 
ATOM      9  C   UNL     1      -2.202  11.758  19.365  0.00  0.00    +0.000 A 
ATOM     10  C   UNL     1      -1.122  10.991  19.937  0.00  0.00    +0.000 A 
ENDROOT
BRANCH   4  11
ATOM     11  C   UNL     1       1.520   8.485  19.367  0.00  0.00    +0.000 A 
ATOM     12  C   UNL     1       2.226   8.707  18.177  0.00  0.00    +0.000 A 
ATOM     13  C   UNL     1       3.112   7.747  17.673  0.00  0.00    +0.000 A 
ATOM     14  C   UNL     1       3.342   6.572  18.378  0.00  0.00    +0.000 A 
ATOM     15  C   UNL     1       2.671   6.345  19.574  0.00  0.00    +0.000 A 
ATOM     16  C   UNL     1       1.748   7.283  20.053  0.00  0.00    +0.000 A 
ENDBRANCH   4  11
BRANCH   1  17
ATOM     17  C   UNL     1      -0.778  11.744  22.413  0.00  0.00    +0.000 C 
ATOM     18  O   UNL     1      -1.525  11.410  23.320  0.00  0.00    +0.000 OA
BRANCH  17  19
ATOM     19  O   UNL     1      -0.114  12.933  22.367  0.00  0.00    +0.000 OA
BRANCH  19  21
ATOM     20  C   UNL     1      -0.626  15.127  21.712  0.00  0.00    +0.000 C 
ATOM     21  C   UNL     1      -0.820  14.095  22.802  0.00  0.00    +0.000 C 
ENDBRANCH  19  21
ENDBRANCH  17  19
ENDBRANCH   1  17
BRANCH   8  22
ATOM     22  O   UNL     1      -3.529  12.259  17.423  0.00  0.00    +0.000 OA
ATOM     23  H   UNL     1      -4.169  11.657  17.009  0.00  0.00    +0.000 HD
ENDBRANCH   8  22
BRANCH   9  24
ATOM     24  C   UNL     1      -3.071  12.761  20.120  0.00  0.00    +0.000 C 
BRANCH  24  25
ATOM     25  N   UNL     1      -4.169  12.181  20.926  0.00  0.00    +0.000 NA
ATOM     26  C   UNL     1      -4.332  12.901  22.194  0.00  0.00    +0.000 C 
ATOM     27  C   UNL     1      -5.418  12.296  20.161  0.00  0.00    +0.000 C 
ENDBRANCH  24  25
ENDBRANCH   9  24
TORSDOF 7
ENDMDL
