MODEL 1
REMARK VINA RESULT:      -9.4      0.000      0.000
REMARK  Name = 
REMARK  4 active torsions:
REMARK  status: ('A' for Active; 'I' for Inactive)
REMARK    1  A    between atoms: C_1  and  C_2
REMARK    2  A    between atoms: C_2  and  C_3
REMARK    3  A    between atoms: C_3  and  O_4
REMARK    4  A    between atoms: C_20  and  N_21
REMARK                            x       y       z     vdW  Elec       q    Type
REMARK                         _______ _______ _______ _____ _____    ______ ____
ROOT
ATOM      1  C   UNL     1       3.298   3.428  20.080  0.00  0.00    +0.000 C 
ATOM      2  C   UNL     1       4.754   2.983  19.949  0.00  0.00    +0.000 C 
ATOM      3  O   UNL     1       5.218   2.060  20.604  0.00  0.00    +0.000 OA
ATOM      4  O   UNL     1       5.481   3.485  18.939  0.00  0.00    +0.000 OA
ATOM      5  C   UNL     1       5.273   4.754  18.467  0.00  0.00    +0.000 C 
ATOM      6  C   UNL     1       3.959   5.418  18.833  0.00  0.00    +0.000 A 
ATOM      7  C   UNL     1       3.200   4.999  19.950  0.00  0.00    +0.000 A 
ATOM      8  C   UNL     1       2.303   5.982  20.560  0.00  0.00    +0.000 A 
ATOM      9  C   UNL     1       2.044   7.209  19.808  0.00  0.00    +0.000 A 
ATOM     10  N   UNL     1       2.540   7.255  18.538  0.00  0.00    +0.000 N 
ATOM     11  C   UNL     1       3.532   6.476  18.076  0.00  0.00    +0.000 A 
ATOM     12  O   UNL     1       4.056   6.735  17.012  0.00  0.00    +0.000 OA
ATOM     13  C   UNL     1       1.887   8.240  17.720  0.00  0.00    +0.000 C 
ATOM     14  C   UNL     1       1.088   8.976  18.671  0.00  0.00    +0.000 A 
ATOM     15  C   UNL     1       0.340  10.062  18.326  0.00  0.00    +0.000 A 
ATOM     16  C   UNL     1      -0.180  10.870  19.325  0.00  0.00    +0.000 A 
ATOM     17  C   UNL     1      -0.945  12.032  19.006  0.00  0.00    +0.000 A 
ATOM     18  C   UNL     1      -1.289  12.910  20.041  0.00  0.00    +0.000 A 
ATOM     19  C   UNL     1      -0.890  12.651  21.351  0.00  0.00    +0.000 A 
ATOM     20  C   UNL     1      -0.213  11.464  21.677  0.00  0.00    +0.000 A 
ATOM     21  C   UNL     1       0.124  10.515  20.692  0.00  0.00    +0.000 A 
ATOM     22  N   UNL     1       0.794   9.312  21.006  0.00  0.00    +0.000 NA
ATOM     23  C   UNL     1       1.226   8.503  19.959  0.00  0.00    +0.000 A 
ENDROOT
BRANCH  17  24
ATOM     24  N   UNL     1      -1.376  12.294  17.654  0.00  0.00    +0.000 N 
ATOM     25  C   UNL     1      -2.327  11.486  16.954  0.00  0.00    +0.000 C 
ATOM     26  N   UNL     1      -2.581  11.710  15.712  0.00  0.00    +0.000 NA
ATOM     27  H   UNL     1      -0.901  12.988  17.071  0.00  0.00    +0.000 HD
ATOM     28  H   UNL     1      -2.140  12.485  15.194  0.00  0.00    +0.000 HD
ENDBRANCH  17  24
BRANCH   1  30
ATOM     29  C   UNL     1       1.118   2.807  21.380  0.00  0.00    +0.000 C 
ATOM     30  C   UNL     1       2.607   2.554  21.172  0.00  0.00    +0.000 C 
ENDBRANCH   1  30
BRANCH   1  31
ATOM     31  O   UNL     1       2.669   3.021  18.868  0.00  0.00    +0.000 OA
ATOM     32  H   UNL     1       3.310   3.015  18.108  0.00  0.00    +0.000 HD
ENDBRANCH   1  31
TORSDOF 3
ENDMDL
MODEL 2
REMARK VINA RESULT:      -9.0      1.586      2.043
REMARK  Name = 
REMARK  4 active torsions:
REMARK  status: ('A' for Active; 'I' for Inactive)
REMARK    1  A    between atoms: C_1  and  C_2
REMARK    2  A    between atoms: C_2  and  C_3
REMARK    3  A    between atoms: C_3  and  O_4
REMARK    4  A    between atoms: C_20  and  N_21
REMARK                            x       y       z     vdW  Elec       q    Type
REMARK                         _______ _______ _______ _____ _____    ______ ____
ROOT
ATOM      1  C   UNL     1       3.069   4.845  19.496  0.00  0.00    +0.000 C 
ATOM      2  C   UNL     1       4.503   4.677  18.992  0.00  0.00    +0.000 C 
ATOM      3  O   UNL     1       5.229   3.771  19.374  0.00  0.00    +0.000 OA
ATOM      4  O   UNL     1       4.900   5.424  17.951  0.00  0.00    +0.000 OA
ATOM      5  C   UNL     1       4.414   6.689  17.749  0.00  0.00    +0.000 C 
ATOM      6  C   UNL     1       3.142   7.065  18.485  0.00  0.00    +0.000 A 
ATOM      7  C   UNL     1       2.729   6.380  19.651  0.00  0.00    +0.000 A 
ATOM      8  C   UNL     1       1.871   7.108  20.589  0.00  0.00    +0.000 A 
ATOM      9  C   UNL     1       1.278   8.360  20.120  0.00  0.00    +0.000 A 
ATOM     10  N   UNL     1       1.455   8.655  18.801  0.00  0.00    +0.000 N 
ATOM     11  C   UNL     1       2.410   8.124  18.019  0.00  0.00    +0.000 A 
ATOM     12  O   UNL     1       2.632   8.605  16.927  0.00  0.00    +0.000 OA
ATOM     13  C   UNL     1       0.500   9.611  18.311  0.00  0.00    +0.000 C 
ATOM     14  C   UNL     1      -0.150  10.069  19.516  0.00  0.00    +0.000 A 
ATOM     15  C   UNL     1      -1.100  11.047  19.519  0.00  0.00    +0.000 A 
ATOM     16  C   UNL     1      -1.480  11.616  20.724  0.00  0.00    +0.000 A 
ATOM     17  C   UNL     1      -2.451  12.662  20.768  0.00  0.00    +0.000 A 
ATOM     18  C   UNL     1      -2.663  13.325  21.983  0.00  0.00    +0.000 A 
ATOM     19  C   UNL     1      -1.939  12.970  23.120  0.00  0.00    +0.000 A 
ATOM     20  C   UNL     1      -1.047  11.884  23.096  0.00  0.00    +0.000 A 
ATOM     21  C   UNL     1      -0.822  11.144  21.919  0.00  0.00    +0.000 A 
ATOM     22  N   UNL     1       0.062  10.042  21.884  0.00  0.00    +0.000 NA
ATOM     23  C   UNL     1       0.347   9.463  20.650  0.00  0.00    +0.000 A 
ENDROOT
BRANCH  17  24
ATOM     24  N   UNL     1      -3.216  13.020  19.598  0.00  0.00    +0.000 N 
ATOM     25  C   UNL     1      -4.466  12.417  19.252  0.00  0.00    +0.000 C 
ATOM     26  N   UNL     1      -5.039  12.702  18.136  0.00  0.00    +0.000 NA
ATOM     27  H   UNL     1      -2.820  13.620  18.870  0.00  0.00    +0.000 HD
ATOM     28  H   UNL     1      -4.641  13.387  17.476  0.00  0.00    +0.000 HD
ENDBRANCH  17  24
BRANCH   1  30
ATOM     29  C   UNL     1       1.309   3.382  20.755  0.00  0.00    +0.000 C 
ATOM     30  C   UNL     1       2.779   3.732  20.549  0.00  0.00    +0.000 C 
ENDBRANCH   1  30
BRANCH   1  31
ATOM     31  O   UNL     1       2.239   4.499  18.392  0.00  0.00    +0.000 OA
ATOM     32  H   UNL     1       2.298   5.175  17.664  0.00  0.00    +0.000 HD
ENDBRANCH   1  31
TORSDOF 3
ENDMDL
MODEL 3
REMARK VINA RESULT:      -8.9      1.335      1.476
REMARK  Name = 
REMARK  4 active torsions:
REMARK  status: ('A' for Active; 'I' for Inactive)
REMARK    1  A    between atoms: C_1  and  C_2
REMARK    2  A    between atoms: C_2  and  C_3
REMARK    3  A    between atoms: C_3  and  O_4
REMARK    4  A    between atoms: C_20  and  N_21
REMARK                            x       y       z     vdW  Elec       q    Type
REMARK                         _______ _______ _______ _____ _____    ______ ____
ROOT
ATOM      1  C   UNL     1       2.987   3.309  19.658  0.00  0.00    +0.000 C 
ATOM      2  C   UNL     1       4.448   2.864  19.637  0.00  0.00    +0.000 C 
ATOM      3  O   UNL     1       4.803   1.762  20.030  0.00  0.00    +0.000 OA
ATOM      4  O   UNL     1       5.334   3.627  18.978  0.00  0.00    +0.000 OA
ATOM      5  C   UNL     1       5.196   4.989  18.909  0.00  0.00    +0.000 C 
ATOM      6  C   UNL     1       3.831   5.560  19.243  0.00  0.00    +0.000 A 
ATOM      7  C   UNL     1       2.895   4.843  20.024  0.00  0.00    +0.000 A 
ATOM      8  C   UNL     1       1.896   5.622  20.758  0.00  0.00    +0.000 A 
ATOM      9  C   UNL     1       1.757   7.034  20.406  0.00  0.00    +0.000 A 
ATOM     10  N   UNL     1       2.464   7.458  19.319  0.00  0.00    +0.000 N 
ATOM     11  C   UNL     1       3.529   6.822  18.804  0.00  0.00    +0.000 A 
ATOM     12  O   UNL     1       4.226   7.381  17.983  0.00  0.00    +0.000 OA
ATOM     13  C   UNL     1       1.950   8.679  18.762  0.00  0.00    +0.000 C 
ATOM     14  C   UNL     1       0.991   9.111  19.752  0.00  0.00    +0.000 A 
ATOM     15  C   UNL     1       0.302  10.283  19.652  0.00  0.00    +0.000 A 
ATOM     16  C   UNL     1      -0.392  10.754  20.755  0.00  0.00    +0.000 A 
ATOM     17  C   UNL     1      -1.104  11.991  20.702  0.00  0.00    +0.000 A 
ATOM     18  C   UNL     1      -1.631  12.509  21.891  0.00  0.00    +0.000 A 
ATOM     19  C   UNL     1      -1.461  11.831  23.097  0.00  0.00    +0.000 A 
ATOM     20  C   UNL     1      -0.837  10.572  23.134  0.00  0.00    +0.000 A 
ATOM     21  C   UNL     1      -0.325   9.971  21.967  0.00  0.00    +0.000 A 
ATOM     22  N   UNL     1       0.294   8.702  21.987  0.00  0.00    +0.000 NA
ATOM     23  C   UNL     1       0.910   8.248  20.824  0.00  0.00    +0.000 A 
ENDROOT
BRANCH  17  24
ATOM     24  N   UNL     1      -1.298  12.687  19.453  0.00  0.00    +0.000 N 
ATOM     25  C   UNL     1      -0.402  13.683  18.953  0.00  0.00    +0.000 C 
ATOM     26  N   UNL     1      -0.693  14.345  17.889  0.00  0.00    +0.000 NA
ATOM     27  H   UNL     1      -2.177  12.611  18.934  0.00  0.00    +0.000 HD
ATOM     28  H   UNL     1      -1.554  14.164  17.350  0.00  0.00    +0.000 HD
ENDBRANCH  17  24
BRANCH   1  30
ATOM     29  C   UNL     1       1.436   2.500  21.599  0.00  0.00    +0.000 C 
ATOM     30  C   UNL     1       2.128   2.166  20.282  0.00  0.00    +0.000 C 
ENDBRANCH   1  30
BRANCH   1  31
ATOM     31  O   UNL     1       2.581   3.337  18.293  0.00  0.00    +0.000 OA
ATOM     32  H   UNL     1       2.037   2.538  18.058  0.00  0.00    +0.000 HD
ENDBRANCH   1  31
TORSDOF 3
ENDMDL
MODEL 4
REMARK VINA RESULT:      -8.8      3.545      8.549
REMARK  Name = 
REMARK  4 active torsions:
REMARK  status: ('A' for Active; 'I' for Inactive)
REMARK    1  A    between atoms: C_1  and  C_2
REMARK    2  A    between atoms: C_2  and  C_3
REMARK    3  A    between atoms: C_3  and  O_4
REMARK    4  A    between atoms: C_20  and  N_21
REMARK                            x       y       z     vdW  Elec       q    Type
REMARK                         _______ _______ _______ _____ _____    ______ ____
ROOT
ATOM      1  C   UNL     1      -0.967  11.499  19.026  0.00  0.00    +0.000 C 
ATOM      2  C   UNL     1      -0.963  12.602  20.083  0.00  0.00    +0.000 C 
ATOM      3  O   UNL     1      -1.405  13.721  19.863  0.00  0.00    +0.000 OA
ATOM      4  O   UNL     1      -0.656  12.269  21.346  0.00  0.00    +0.000 OA
ATOM      5  C   UNL     1       0.235  11.266  21.626  0.00  0.00    +0.000 C 
ATOM      6  C   UNL     1       0.552  10.293  20.507  0.00  0.00    +0.000 A 
ATOM      7  C   UNL     1       0.347  10.630  19.149  0.00  0.00    +0.000 A 
ATOM      8  C   UNL     1       1.160   9.929  18.153  0.00  0.00    +0.000 A 
ATOM      9  C   UNL     1       1.899   8.750  18.602  0.00  0.00    +0.000 A 
ATOM     10  N   UNL     1       1.640   8.322  19.870  0.00  0.00    +0.000 N 
ATOM     11  C   UNL     1       1.089   9.077  20.835  0.00  0.00    +0.000 A 
ATOM     12  O   UNL     1       1.100   8.689  21.985  0.00  0.00    +0.000 OA
ATOM     13  C   UNL     1       2.022   6.953  20.085  0.00  0.00    +0.000 C 
ATOM     14  C   UNL     1       2.767   6.631  18.891  0.00  0.00    +0.000 A 
ATOM     15  C   UNL     1       3.377   5.427  18.701  0.00  0.00    +0.000 A 
ATOM     16  C   UNL     1       4.287   5.286  17.666  0.00  0.00    +0.000 A 
ATOM     17  C   UNL     1       4.969   4.050  17.449  0.00  0.00    +0.000 A 
ATOM     18  C   UNL     1       6.007   4.016  16.511  0.00  0.00    +0.000 A 
ATOM     19  C   UNL     1       6.365   5.165  15.807  0.00  0.00    +0.000 A 
ATOM     20  C   UNL     1       5.637   6.358  15.957  0.00  0.00    +0.000 A 
ATOM     21  C   UNL     1       4.551   6.448  16.850  0.00  0.00    +0.000 A 
ATOM     22  N   UNL     1       3.802   7.637  17.002  0.00  0.00    +0.000 NA
ATOM     23  C   UNL     1       2.847   7.691  18.013  0.00  0.00    +0.000 A 
ENDROOT
BRANCH  17  24
ATOM     24  N   UNL     1       4.590   2.854  18.162  0.00  0.00    +0.000 N 
ATOM     25  C   UNL     1       3.410   2.100  17.874  0.00  0.00    +0.000 C 
ATOM     26  N   UNL     1       3.072   1.108  18.622  0.00  0.00    +0.000 NA
ATOM     27  H   UNL     1       5.072   2.573  19.020  0.00  0.00    +0.000 HD
ATOM     28  H   UNL     1       3.647   0.808  19.425  0.00  0.00    +0.000 HD
ENDBRANCH  17  24
BRANCH   1  30
ATOM     29  C   UNL     1      -2.400  11.111  16.877  0.00  0.00    +0.000 C 
ATOM     30  C   UNL     1      -1.561  12.077  17.705  0.00  0.00    +0.000 C 
ENDBRANCH   1  30
BRANCH   1  31
ATOM     31  O   UNL     1      -1.947  10.562  19.462  0.00  0.00    +0.000 OA
ATOM     32  H   UNL     1      -1.620  10.023  20.232  0.00  0.00    +0.000 HD
ENDBRANCH   1  31
TORSDOF 3
ENDMDL
MODEL 5
REMARK VINA RESULT:      -8.5      2.054      3.869
REMARK  Name = 
REMARK  4 active torsions:
REMARK  status: ('A' for Active; 'I' for Inactive)
REMARK    1  A    between atoms: C_1  and  C_2
REMARK    2  A    between atoms: C_2  and  C_3
REMARK    3  A    between atoms: C_3  and  O_4
REMARK    4  A    between atoms: C_20  and  N_21
REMARK                            x       y       z     vdW  Elec       q    Type
REMARK                         _______ _______ _______ _____ _____    ______ ____
ROOT
ATOM      1  C   UNL     1       5.567   5.813  17.822  0.00  0.00    +0.000 C 
ATOM      2  C   UNL     1       5.585   4.314  17.523  0.00  0.00    +0.000 C 
ATOM      3  O   UNL     1       6.332   3.822  16.689  0.00  0.00    +0.000 OA
ATOM      4  O   UNL     1       4.909   3.496  18.343  0.00  0.00    +0.000 OA
ATOM      5  C   UNL     1       3.754   3.896  18.963  0.00  0.00    +0.000 C 
ATOM      6  C   UNL     1       3.484   5.388  19.019  0.00  0.00    +0.000 A 
ATOM      7  C   UNL     1       4.088   6.287  18.111  0.00  0.00    +0.000 A 
ATOM      8  C   UNL     1       3.391   7.548  17.850  0.00  0.00    +0.000 A 
ATOM      9  C   UNL     1       2.294   7.905  18.749  0.00  0.00    +0.000 A 
ATOM     10  N   UNL     1       2.124   7.105  19.840  0.00  0.00    +0.000 N 
ATOM     11  C   UNL     1       2.597   5.853  19.953  0.00  0.00    +0.000 A 
ATOM     12  O   UNL     1       2.211   5.142  20.857  0.00  0.00    +0.000 OA
ATOM     13  C   UNL     1       1.371   7.743  20.886  0.00  0.00    +0.000 C 
ATOM     14  C   UNL     1       0.880   8.943  20.249  0.00  0.00    +0.000 A 
ATOM     15  C   UNL     1       0.052   9.826  20.875  0.00  0.00    +0.000 A 
ATOM     16  C   UNL     1      -0.586  10.801  20.125  0.00  0.00    +0.000 A 
ATOM     17  C   UNL     1      -1.482  11.729  20.736  0.00  0.00    +0.000 A 
ATOM     18  C   UNL     1      -2.238  12.571  19.911  0.00  0.00    +0.000 A 
ATOM     19  C   UNL     1      -2.116  12.499  18.524  0.00  0.00    +0.000 A 
ATOM     20  C   UNL     1      -1.170  11.647  17.927  0.00  0.00    +0.000 A 
ATOM     21  C   UNL     1      -0.345  10.808  18.701  0.00  0.00    +0.000 A 
ATOM     22  N   UNL     1       0.617   9.956  18.115  0.00  0.00    +0.000 NA
ATOM     23  C   UNL     1       1.282   9.048  18.935  0.00  0.00    +0.000 A 
ENDROOT
BRANCH  17  24
ATOM     24  N   UNL     1      -1.598  11.819  22.172  0.00  0.00    +0.000 N 
ATOM     25  C   UNL     1      -2.798  12.205  22.848  0.00  0.00    +0.000 C 
ATOM     26  N   UNL     1      -2.801  12.374  24.124  0.00  0.00    +0.000 NA
ATOM     27  H   UNL     1      -0.774  11.760  22.775  0.00  0.00    +0.000 HD
ATOM     28  H   UNL     1      -1.960  12.211  24.699  0.00  0.00    +0.000 HD
ENDBRANCH  17  24
BRANCH   1  30
ATOM     29  C   UNL     1       7.603   7.429  17.564  0.00  0.00    +0.000 C 
ATOM     30  C   UNL     1       6.588   6.520  16.879  0.00  0.00    +0.000 C 
ENDBRANCH   1  30
BRANCH   1  31
ATOM     31  O   UNL     1       6.146   5.945  19.117  0.00  0.00    +0.000 OA
ATOM     32  H   UNL     1       6.645   6.801  19.208  0.00  0.00    +0.000 HD
ENDBRANCH   1  31
TORSDOF 3
ENDMDL
MODEL 6
REMARK VINA RESULT:      -8.1      4.643      9.226
REMARK  Name = 
REMARK  4 active torsions:
REMARK  status: ('A' for Active; 'I' for Inactive)
REMARK    1  A    between atoms: C_1  and  C_2
REMARK    2  A    between atoms: C_2  and  C_3
REMARK    3  A    between atoms: C_3  and  O_4
REMARK    4  A    between atoms: C_20  and  N_21
REMARK                            x       y       z     vdW  Elec       q    Type
REMARK                         _______ _______ _______ _____ _____    ______ ____
ROOT
ATOM      1  C   UNL     1      -3.825  13.032  20.415  0.00  0.00    +0.000 C 
ATOM      2  C   UNL     1      -3.825  14.413  21.071  0.00  0.00    +0.000 C 
ATOM      3  O   UNL     1      -4.493  15.342  20.640  0.00  0.00    +0.000 OA
ATOM      4  O   UNL     1      -3.237  14.545  22.270  0.00  0.00    +0.000 OA
ATOM      5  C   UNL     1      -2.144  13.795  22.619  0.00  0.00    +0.000 C 
ATOM      6  C   UNL     1      -1.870  12.552  21.793  0.00  0.00    +0.000 A 
ATOM      7  C   UNL     1      -2.378  12.404  20.482  0.00  0.00    +0.000 A 
ATOM      8  C   UNL     1      -1.649  11.513  19.577  0.00  0.00    +0.000 A 
ATOM      9  C   UNL     1      -0.642  10.634  20.169  0.00  0.00    +0.000 A 
ATOM     10  N   UNL     1      -0.582  10.616  21.531  0.00  0.00    +0.000 N 
ATOM     11  C   UNL     1      -1.073  11.577  22.332  0.00  0.00    +0.000 A 
ATOM     12  O   UNL     1      -0.782  11.588  23.509  0.00  0.00    +0.000 OA
ATOM     13  C   UNL     1       0.071   9.443  22.045  0.00  0.00    +0.000 C 
ATOM     14  C   UNL     1       0.630   8.836  20.860  0.00  0.00    +0.000 A 
ATOM     15  C   UNL     1       1.400   7.712  20.897  0.00  0.00    +0.000 A 
ATOM     16  C   UNL     1       2.114   7.345  19.768  0.00  0.00    +0.000 A 
ATOM     17  C   UNL     1       2.954   6.190  19.774  0.00  0.00    +0.000 A 
ATOM     18  C   UNL     1       3.792   5.968  18.674  0.00  0.00    +0.000 A 
ATOM     19  C   UNL     1       3.803   6.859  17.601  0.00  0.00    +0.000 A 
ATOM     20  C   UNL     1       2.913   7.946  17.557  0.00  0.00    +0.000 A 
ATOM     21  C   UNL     1       2.012   8.200  18.609  0.00  0.00    +0.000 A 
ATOM     22  N   UNL     1       1.103   9.282  18.573  0.00  0.00    +0.000 NA
ATOM     23  C   UNL     1       0.356   9.555  19.716  0.00  0.00    +0.000 A 
ENDROOT
BRANCH  17  24
ATOM     24  N   UNL     1       2.933   5.257  20.874  0.00  0.00    +0.000 N 
ATOM     25  C   UNL     1       2.194   4.032  20.861  0.00  0.00    +0.000 C 
ATOM     26  N   UNL     1       2.128   3.301  21.918  0.00  0.00    +0.000 NA
ATOM     27  H   UNL     1       3.325   5.504  21.786  0.00  0.00    +0.000 HD
ATOM     28  H   UNL     1       2.621   3.551  22.788  0.00  0.00    +0.000 HD
ENDBRANCH  17  24
BRANCH   1  30
ATOM     29  C   UNL     1      -5.282  11.736  18.678  0.00  0.00    +0.000 C 
ATOM     30  C   UNL     1      -4.746  13.080  19.157  0.00  0.00    +0.000 C 
ENDBRANCH   1  30
BRANCH   1  31
ATOM     31  O   UNL     1      -4.525  12.185  21.321  0.00  0.00    +0.000 OA
ATOM     32  H   UNL     1      -3.904  11.583  21.812  0.00  0.00    +0.000 HD
ENDBRANCH   1  31
TORSDOF 3
ENDMDL
MODEL 7
REMARK VINA RESULT:      -8.1      3.404      8.330
REMARK  Name = 
REMARK  4 active torsions:
REMARK  status: ('A' for Active; 'I' for Inactive)
REMARK    1  A    between atoms: C_1  and  C_2
REMARK    2  A    between atoms: C_2  and  C_3
REMARK    3  A    between atoms: C_3  and  O_4
REMARK    4  A    between atoms: C_20  and  N_21
REMARK                            x       y       z     vdW  Elec       q    Type
REMARK                         _______ _______ _______ _____ _____    ______ ____
ROOT
ATOM      1  C   UNL     1      -0.513  11.886  21.159  0.00  0.00    +0.000 C 
ATOM      2  C   UNL     1      -1.601  12.599  20.355  0.00  0.00    +0.000 C 
ATOM      3  O   UNL     1      -2.485  13.255  20.887  0.00  0.00    +0.000 OA
ATOM      4  O   UNL     1      -1.457  12.675  19.023  0.00  0.00    +0.000 OA
ATOM      5  C   UNL     1      -0.841  11.679  18.310  0.00  0.00    +0.000 C 
ATOM      6  C   UNL     1       0.017  10.702  19.092  0.00  0.00    +0.000 A 
ATOM      7  C   UNL     1      -0.160  10.504  20.481  0.00  0.00    +0.000 A 
ATOM      8  C   UNL     1       0.264   9.217  21.035  0.00  0.00    +0.000 A 
ATOM      9  C   UNL     1       1.090   8.361  20.184  0.00  0.00    +0.000 A 
ATOM     10  N   UNL     1       1.518   8.910  19.011  0.00  0.00    +0.000 N 
ATOM     11  C   UNL     1       0.954   9.971  18.412  0.00  0.00    +0.000 A 
ATOM     12  O   UNL     1       1.257  10.251  17.271  0.00  0.00    +0.000 OA
ATOM     13  C   UNL     1       2.658   8.229  18.461  0.00  0.00    +0.000 C 
ATOM     14  C   UNL     1       2.761   7.047  19.284  0.00  0.00    +0.000 A 
ATOM     15  C   UNL     1       3.687   6.071  19.066  0.00  0.00    +0.000 A 
ATOM     16  C   UNL     1       3.555   4.856  19.720  0.00  0.00    +0.000 A 
ATOM     17  C   UNL     1       4.487   3.798  19.499  0.00  0.00    +0.000 A 
ATOM     18  C   UNL     1       4.207   2.536  20.038  0.00  0.00    +0.000 A 
ATOM     19  C   UNL     1       3.041   2.324  20.773  0.00  0.00    +0.000 A 
ATOM     20  C   UNL     1       2.168   3.386  21.064  0.00  0.00    +0.000 A 
ATOM     21  C   UNL     1       2.415   4.690  20.591  0.00  0.00    +0.000 A 
ATOM     22  N   UNL     1       1.553   5.770  20.886  0.00  0.00    +0.000 NA
ATOM     23  C   UNL     1       1.783   6.990  20.255  0.00  0.00    +0.000 A 
ENDROOT
BRANCH  17  24
ATOM     24  N   UNL     1       5.704   4.018  18.754  0.00  0.00    +0.000 N 
ATOM     25  C   UNL     1       5.756   4.101  17.327  0.00  0.00    +0.000 C 
ATOM     26  N   UNL     1       6.888   4.186  16.721  0.00  0.00    +0.000 NA
ATOM     27  H   UNL     1       6.619   3.971  19.209  0.00  0.00    +0.000 HD
ATOM     28  H   UNL     1       7.782   4.227  17.235  0.00  0.00    +0.000 HD
ENDBRANCH  17  24
BRANCH   1  30
ATOM     29  C   UNL     1      -1.713  11.112  23.347  0.00  0.00    +0.000 C 
ATOM     30  C   UNL     1      -0.784  12.119  22.677  0.00  0.00    +0.000 C 
ENDBRANCH   1  30
BRANCH   1  31
ATOM     31  O   UNL     1       0.682  12.619  20.907  0.00  0.00    +0.000 OA
ATOM     32  H   UNL     1       0.680  13.021  19.997  0.00  0.00    +0.000 HD
ENDBRANCH   1  31
TORSDOF 3
ENDMDL
MODEL 8
REMARK VINA RESULT:      -7.9      2.023      3.837
REMARK  Name = 
REMARK  4 active torsions:
REMARK  status: ('A' for Active; 'I' for Inactive)
REMARK    1  A    between atoms: C_1  and  C_2
REMARK    2  A    between atoms: C_2  and  C_3
REMARK    3  A    between atoms: C_3  and  O_4
REMARK    4  A    between atoms: C_20  and  N_21
REMARK                            x       y       z     vdW  Elec       q    Type
REMARK                         _______ _______ _______ _____ _____    ______ ____
ROOT
ATOM      1  C   UNL     1       4.982   5.411  17.688  0.00  0.00    +0.000 C 
ATOM      2  C   UNL     1       4.785   3.907  17.505  0.00  0.00    +0.000 C 
ATOM      3  O   UNL     1       5.364   3.271  16.636  0.00  0.00    +0.000 OA
ATOM      4  O   UNL     1       4.117   3.235  18.456  0.00  0.00    +0.000 OA
ATOM      5  C   UNL     1       3.101   3.818  19.167  0.00  0.00    +0.000 C 
ATOM      6  C   UNL     1       3.020   5.332  19.137  0.00  0.00    +0.000 A 
ATOM      7  C   UNL     1       3.615   6.088  18.100  0.00  0.00    +0.000 A 
ATOM      8  C   UNL     1       3.048   7.408  17.821  0.00  0.00    +0.000 A 
ATOM      9  C   UNL     1       2.116   7.959  18.805  0.00  0.00    +0.000 A 
ATOM     10  N   UNL     1       1.982   7.258  19.967  0.00  0.00    +0.000 N 
ATOM     11  C   UNL     1       2.312   5.965  20.123  0.00  0.00    +0.000 A 
ATOM     12  O   UNL     1       1.954   5.367  21.117  0.00  0.00    +0.000 OA
ATOM     13  C   UNL     1       1.441   8.051  21.036  0.00  0.00    +0.000 C 
ATOM     14  C   UNL     1       1.024   9.261  20.366  0.00  0.00    +0.000 A 
ATOM     15  C   UNL     1       0.389  10.281  21.009  0.00  0.00    +0.000 A 
ATOM     16  C   UNL     1      -0.213  11.280  20.260  0.00  0.00    +0.000 A 
ATOM     17  C   UNL     1      -0.913  12.352  20.893  0.00  0.00    +0.000 A 
ATOM     18  C   UNL     1      -1.656  13.229  20.093  0.00  0.00    +0.000 A 
ATOM     19  C   UNL     1      -1.708  13.055  18.711  0.00  0.00    +0.000 A 
ATOM     20  C   UNL     1      -0.949  12.053  18.081  0.00  0.00    +0.000 A 
ATOM     21  C   UNL     1      -0.144  11.166  18.822  0.00  0.00    +0.000 A 
ATOM     22  N   UNL     1       0.633  10.163  18.202  0.00  0.00    +0.000 NA
ATOM     23  C   UNL     1       1.277   9.231  19.012  0.00  0.00    +0.000 A 
ENDROOT
BRANCH  17  24
ATOM     24  N   UNL     1      -0.846  12.546  22.321  0.00  0.00    +0.000 N 
ATOM     25  C   UNL     1      -1.247  13.753  22.977  0.00  0.00    +0.000 C 
ATOM     26  N   UNL     1      -1.055  13.901  24.241  0.00  0.00    +0.000 NA
ATOM     27  H   UNL     1      -0.359  11.879  22.925  0.00  0.00    +0.000 HD
ATOM     28  H   UNL     1      -0.641  13.156  24.822  0.00  0.00    +0.000 HD
ENDBRANCH  17  24
BRANCH   1  30
ATOM     29  C   UNL     1       5.315   6.362  15.278  0.00  0.00    +0.000 C 
ATOM     30  C   UNL     1       5.961   5.921  16.587  0.00  0.00    +0.000 C 
ENDBRANCH   1  30
BRANCH   1  31
ATOM     31  O   UNL     1       5.722   5.550  18.897  0.00  0.00    +0.000 OA
ATOM     32  H   UNL     1       6.454   6.217  18.803  0.00  0.00    +0.000 HD
ENDBRANCH   1  31
TORSDOF 3
ENDMDL
MODEL 9
REMARK VINA RESULT:      -7.9      3.545      8.193
REMARK  Name = 
REMARK  4 active torsions:
REMARK  status: ('A' for Active; 'I' for Inactive)
REMARK    1  A    between atoms: C_1  and  C_2
REMARK    2  A    between atoms: C_2  and  C_3
REMARK    3  A    between atoms: C_3  and  O_4
REMARK    4  A    between atoms: C_20  and  N_21
REMARK                            x       y       z     vdW  Elec       q    Type
REMARK                         _______ _______ _______ _____ _____    ______ ____
ROOT
ATOM      1  C   UNL     1      -0.199  10.954  21.452  0.00  0.00    +0.000 C 
ATOM      2  C   UNL     1      -1.177  11.963  20.852  0.00  0.00    +0.000 C 
ATOM      3  O   UNL     1      -2.094  12.451  21.498  0.00  0.00    +0.000 OA
ATOM      4  O   UNL     1      -0.895  12.479  19.646  0.00  0.00    +0.000 OA
ATOM      5  C   UNL     1      -0.235  11.750  18.691  0.00  0.00    +0.000 C 
ATOM      6  C   UNL     1       0.510  10.515  19.159  0.00  0.00    +0.000 A 
ATOM      7  C   UNL     1       0.185   9.866  20.373  0.00  0.00    +0.000 A 
ATOM      8  C   UNL     1       0.514   8.444  20.483  0.00  0.00    +0.000 A 
ATOM      9  C   UNL     1       1.401   7.881  19.466  0.00  0.00    +0.000 A 
ATOM     10  N   UNL     1       1.962   8.769  18.596  0.00  0.00    +0.000 N 
ATOM     11  C   UNL     1       1.492  10.003  18.353  0.00  0.00    +0.000 A 
ATOM     12  O   UNL     1       1.919  10.636  17.410  0.00  0.00    +0.000 OA
ATOM     13  C   UNL     1       3.134   8.248  17.947  0.00  0.00    +0.000 C 
ATOM     14  C   UNL     1       3.119   6.852  18.318  0.00  0.00    +0.000 A 
ATOM     15  C   UNL     1       4.035   5.954  17.858  0.00  0.00    +0.000 A 
ATOM     16  C   UNL     1       3.803   4.600  18.038  0.00  0.00    +0.000 A 
ATOM     17  C   UNL     1       4.724   3.625  17.548  0.00  0.00    +0.000 A 
ATOM     18  C   UNL     1       4.355   2.275  17.593  0.00  0.00    +0.000 A 
ATOM     19  C   UNL     1       3.115   1.897  18.103  0.00  0.00    +0.000 A 
ATOM     20  C   UNL     1       2.246   2.848  18.666  0.00  0.00    +0.000 A 
ATOM     21  C   UNL     1       2.576   4.217  18.696  0.00  0.00    +0.000 A 
ATOM     22  N   UNL     1       1.718   5.182  19.268  0.00  0.00    +0.000 NA
ATOM     23  C   UNL     1       2.045   6.528  19.119  0.00  0.00    +0.000 A 
ENDROOT
BRANCH  17  24
ATOM     24  N   UNL     1       6.017   4.011  17.035  0.00  0.00    +0.000 N 
ATOM     25  C   UNL     1       6.246   4.408  15.681  0.00  0.00    +0.000 C 
ATOM     26  N   UNL     1       7.442   4.631  15.261  0.00  0.00    +0.000 NA
ATOM     27  H   UNL     1       6.869   3.869  17.584  0.00  0.00    +0.000 HD
ATOM     28  H   UNL     1       8.262   4.562  15.884  0.00  0.00    +0.000 HD
ENDBRANCH  17  24
BRANCH   1  30
ATOM     29  C   UNL     1       0.061   9.481  23.594  0.00  0.00    +0.000 C 
ATOM     30  C   UNL     1      -0.619  10.672  22.927  0.00  0.00    +0.000 C 
ENDBRANCH   1  30
BRANCH   1  31
ATOM     31  O   UNL     1       1.036  11.654  21.575  0.00  0.00    +0.000 OA
ATOM     32  H   UNL     1       1.334  11.706  22.522  0.00  0.00    +0.000 HD
ENDBRANCH   1  31
TORSDOF 3
ENDMDL
