MODEL 1
REMARK VINA RESULT:      -9.3      0.000      0.000
REMARK  Name = 
REMARK  7 active torsions:
REMARK  status: ('A' for Active; 'I' for Inactive)
REMARK    1  A    between atoms: C_2  and  C_3
REMARK    2  A    between atoms: C_2  and  C_13
REMARK    3  A    between atoms: C_4  and  N_5
REMARK    4  A    between atoms: N_5  and  C_6
REMARK    5  A    between atoms: C_9  and  O_10
REMARK    6  A    between atoms: N_15  and  C_16
REMARK    7  A    between atoms: C_23  and  C_24
REMARK                            x       y       z     vdW  Elec       q    Type
REMARK                         _______ _______ _______ _____ _____    ______ ____
ROOT
ATOM      1  C   UNL     1       6.158   5.518  18.233  0.00  0.00    +0.000 A 
ATOM      2  C   UNL     1       5.320   5.290  19.308  0.00  0.00    +0.000 A 
ATOM      3  N   UNL     1       4.343   4.420  18.902  0.00  0.00    +0.000 N 
ATOM      4  N   UNL     1       4.520   4.052  17.614  0.00  0.00    +0.000 NA
ATOM      5  C   UNL     1       5.600   4.728  17.177  0.00  0.00    +0.000 A 
ENDROOT
BRANCH   3   6
ATOM      6  C   UNL     1       3.262   3.931  19.687  0.00  0.00    +0.000 A 
ATOM      7  C   UNL     1       3.475   2.960  20.680  0.00  0.00    +0.000 A 
ATOM      8  C   UNL     1       2.406   2.484  21.442  0.00  0.00    +0.000 A 
ATOM      9  C   UNL     1       1.120   2.967  21.216  0.00  0.00    +0.000 A 
ATOM     10  C   UNL     1       0.900   3.932  20.233  0.00  0.00    +0.000 A 
ATOM     11  C   UNL     1       1.967   4.418  19.471  0.00  0.00    +0.000 A 
ENDBRANCH   3   6
BRANCH   5  12
ATOM     12  C   UNL     1       6.051   4.578  15.781  0.00  0.00    +0.000 A 
ATOM     13  C   UNL     1       5.229   3.935  14.841  0.00  0.00    +0.000 A 
ATOM     14  C   UNL     1       5.609   3.838  13.499  0.00  0.00    +0.000 A 
ATOM     15  C   UNL     1       6.817   4.386  13.072  0.00  0.00    +0.000 A 
ATOM     16  C   UNL     1       7.658   4.999  13.995  0.00  0.00    +0.000 A 
ATOM     17  C   UNL     1       7.288   5.071  15.340  0.00  0.00    +0.000 A 
ENDBRANCH   5  12
BRANCH   1  19
ATOM     18  O   UNL     1       8.327   6.203  18.898  0.00  0.00    +0.000 OA
ATOM     19  C   UNL     1       7.314   6.396  18.236  0.00  0.00    +0.000 C 
BRANCH  19  20
ATOM     20  C   UNL     1       7.144   7.609  17.394  0.00  0.00    +0.000 C 
ATOM     21  C   UNL     1       7.772   8.756  17.681  0.00  0.00    +0.000 C 
BRANCH  21  22
ATOM     22  N   UNL     1       8.628   9.021  18.712  0.00  0.00    +0.000 N 
ATOM     23  H   UNL     1       8.871   8.211  19.288  0.00  0.00    +0.000 HD
BRANCH  22  24
ATOM     24  C   UNL     1       9.328  10.204  18.992  0.00  0.00    +0.000 A 
ATOM     25  C   UNL     1       9.921  11.003  18.003  0.00  0.00    +0.000 A 
ATOM     26  C   UNL     1      10.627  12.162  18.333  0.00  0.00    +0.000 A 
ATOM     27  C   UNL     1      10.736  12.540  19.664  0.00  0.00    +0.000 A 
ATOM     28  C   UNL     1      10.138  11.785  20.663  0.00  0.00    +0.000 A 
ATOM     29  C   UNL     1       9.436  10.625  20.326  0.00  0.00    +0.000 A 
BRANCH  27  30
ATOM     30  O   UNL     1      11.427  13.655  20.030  0.00  0.00    +0.000 OA
ATOM     31  H   UNL     1      10.789  14.364  20.215  0.00  0.00    +0.000 HD
ENDBRANCH  27  30
ENDBRANCH  22  24
ENDBRANCH  21  22
ENDBRANCH  19  20
ENDBRANCH   1  19
TORSDOF 7
ENDMDL
MODEL 2
REMARK VINA RESULT:      -9.2      4.273      7.156
REMARK  Name = 
REMARK  7 active torsions:
REMARK  status: ('A' for Active; 'I' for Inactive)
REMARK    1  A    between atoms: C_2  and  C_3
REMARK    2  A    between atoms: C_2  and  C_13
REMARK    3  A    between atoms: C_4  and  N_5
REMARK    4  A    between atoms: N_5  and  C_6
REMARK    5  A    between atoms: C_9  and  O_10
REMARK    6  A    between atoms: N_15  and  C_16
REMARK    7  A    between atoms: C_23  and  C_24
REMARK                            x       y       z     vdW  Elec       q    Type
REMARK                         _______ _______ _______ _____ _____    ______ ____
ROOT
ATOM      1  C   UNL     1       3.899   6.937  17.567  0.00  0.00    +0.000 A 
ATOM      2  C   UNL     1       3.294   8.144  17.860  0.00  0.00    +0.000 A 
ATOM      3  N   UNL     1       2.243   7.895  18.701  0.00  0.00    +0.000 N 
ATOM      4  N   UNL     1       2.149   6.578  18.990  0.00  0.00    +0.000 NA
ATOM      5  C   UNL     1       3.128   5.971  18.290  0.00  0.00    +0.000 A 
ENDROOT
BRANCH   3   6
ATOM      6  C   UNL     1       1.337   8.852  19.236  0.00  0.00    +0.000 A 
ATOM      7  C   UNL     1       1.070   8.898  20.615  0.00  0.00    +0.000 A 
ATOM      8  C   UNL     1       0.177   9.840  21.129  0.00  0.00    +0.000 A 
ATOM      9  C   UNL     1      -0.459  10.737  20.274  0.00  0.00    +0.000 A 
ATOM     10  C   UNL     1      -0.198  10.698  18.904  0.00  0.00    +0.000 A 
ATOM     11  C   UNL     1       0.701   9.763  18.384  0.00  0.00    +0.000 A 
ENDBRANCH   3   6
BRANCH   5  12
ATOM     12  C   UNL     1       3.284   4.506  18.354  0.00  0.00    +0.000 A 
ATOM     13  C   UNL     1       4.033   3.924  19.389  0.00  0.00    +0.000 A 
ATOM     14  C   UNL     1       4.142   2.533  19.506  0.00  0.00    +0.000 A 
ATOM     15  C   UNL     1       3.498   1.703  18.591  0.00  0.00    +0.000 A 
ATOM     16  C   UNL     1       2.778   2.263  17.541  0.00  0.00    +0.000 A 
ATOM     17  C   UNL     1       2.693   3.652  17.412  0.00  0.00    +0.000 A 
ENDBRANCH   5  12
BRANCH   1  19
ATOM     18  O   UNL     1       5.076   7.099  15.516  0.00  0.00    +0.000 OA
ATOM     19  C   UNL     1       5.044   6.757  16.693  0.00  0.00    +0.000 C 
BRANCH  19  20
ATOM     20  C   UNL     1       6.183   6.053  17.338  0.00  0.00    +0.000 C 
ATOM     21  C   UNL     1       7.228   5.612  16.628  0.00  0.00    +0.000 C 
BRANCH  21  22
ATOM     22  N   UNL     1       7.447   5.714  15.284  0.00  0.00    +0.000 N 
ATOM     23  H   UNL     1       8.130   6.426  15.013  0.00  0.00    +0.000 HD
BRANCH  22  24
ATOM     24  C   UNL     1       6.984   4.885  14.251  0.00  0.00    +0.000 A 
ATOM     25  C   UNL     1       7.563   4.847  12.974  0.00  0.00    +0.000 A 
ATOM     26  C   UNL     1       7.053   4.020  11.970  0.00  0.00    +0.000 A 
ATOM     27  C   UNL     1       5.961   3.208  12.243  0.00  0.00    +0.000 A 
ATOM     28  C   UNL     1       5.384   3.203  13.505  0.00  0.00    +0.000 A 
ATOM     29  C   UNL     1       5.896   4.036  14.503  0.00  0.00    +0.000 A 
BRANCH  27  30
ATOM     30  O   UNL     1       5.425   2.397  11.290  0.00  0.00    +0.000 OA
ATOM     31  H   UNL     1       4.682   1.911  11.683  0.00  0.00    +0.000 HD
ENDBRANCH  27  30
ENDBRANCH  22  24
ENDBRANCH  21  22
ENDBRANCH  19  20
ENDBRANCH   1  19
TORSDOF 7
ENDMDL
MODEL 3
REMARK VINA RESULT:      -9.1      1.065      1.318
REMARK  Name = 
REMARK  7 active torsions:
REMARK  status: ('A' for Active; 'I' for Inactive)
REMARK    1  A    between atoms: C_2  and  C_3
REMARK    2  A    between atoms: C_2  and  C_13
REMARK    3  A    between atoms: C_4  and  N_5
REMARK    4  A    between atoms: N_5  and  C_6
REMARK    5  A    between atoms: C_9  and  O_10
REMARK    6  A    between atoms: N_15  and  C_16
REMARK    7  A    between atoms: C_23  and  C_24
REMARK                            x       y       z     vdW  Elec       q    Type
REMARK                         _______ _______ _______ _____ _____    ______ ____
ROOT
ATOM      1  C   UNL     1       5.558   5.859  17.353  0.00  0.00    +0.000 A 
ATOM      2  C   UNL     1       4.675   5.603  18.384  0.00  0.00    +0.000 A 
ATOM      3  N   UNL     1       3.929   4.509  18.038  0.00  0.00    +0.000 N 
ATOM      4  N   UNL     1       4.301   4.024  16.832  0.00  0.00    +0.000 NA
ATOM      5  C   UNL     1       5.271   4.845  16.383  0.00  0.00    +0.000 A 
ENDROOT
BRANCH   3   6
ATOM      6  C   UNL     1       2.888   3.912  18.803  0.00  0.00    +0.000 A 
ATOM      7  C   UNL     1       1.779   3.323  18.174  0.00  0.00    +0.000 A 
ATOM      8  C   UNL     1       0.762   2.744  18.934  0.00  0.00    +0.000 A 
ATOM      9  C   UNL     1       0.841   2.751  20.325  0.00  0.00    +0.000 A 
ATOM     10  C   UNL     1       1.940   3.332  20.957  0.00  0.00    +0.000 A 
ATOM     11  C   UNL     1       2.965   3.908  20.202  0.00  0.00    +0.000 A 
ENDBRANCH   3   6
BRANCH   5  12
ATOM     12  C   UNL     1       5.880   4.615  15.060  0.00  0.00    +0.000 A 
ATOM     13  C   UNL     1       5.194   3.866  14.091  0.00  0.00    +0.000 A 
ATOM     14  C   UNL     1       5.725   3.688  12.808  0.00  0.00    +0.000 A 
ATOM     15  C   UNL     1       6.949   4.262  12.473  0.00  0.00    +0.000 A 
ATOM     16  C   UNL     1       7.657   4.981  13.430  0.00  0.00    +0.000 A 
ATOM     17  C   UNL     1       7.137   5.134  14.718  0.00  0.00    +0.000 A 
ENDBRANCH   5  12
BRANCH   1  19
ATOM     18  O   UNL     1       6.425   7.925  16.580  0.00  0.00    +0.000 OA
ATOM     19  C   UNL     1       6.518   6.947  17.314  0.00  0.00    +0.000 C 
BRANCH  19  20
ATOM     20  C   UNL     1       7.682   6.748  18.216  0.00  0.00    +0.000 C 
ATOM     21  C   UNL     1       8.434   7.776  18.628  0.00  0.00    +0.000 C 
BRANCH  21  22
ATOM     22  N   UNL     1       8.295   9.102  18.335  0.00  0.00    +0.000 N 
ATOM     23  H   UNL     1       7.409   9.352  17.888  0.00  0.00    +0.000 HD
BRANCH  22  24
ATOM     24  C   UNL     1       9.122  10.176  18.696  0.00  0.00    +0.000 A 
ATOM     25  C   UNL     1       9.811  10.968  17.765  0.00  0.00    +0.000 A 
ATOM     26  C   UNL     1      10.641  12.014  18.175  0.00  0.00    +0.000 A 
ATOM     27  C   UNL     1      10.779  12.286  19.528  0.00  0.00    +0.000 A 
ATOM     28  C   UNL     1      10.090  11.539  20.473  0.00  0.00    +0.000 A 
ATOM     29  C   UNL     1       9.264  10.491  20.056  0.00  0.00    +0.000 A 
BRANCH  27  30
ATOM     30  O   UNL     1      11.589  13.288  19.970  0.00  0.00    +0.000 OA
ATOM     31  H   UNL     1      11.222  13.634  20.801  0.00  0.00    +0.000 HD
ENDBRANCH  27  30
ENDBRANCH  22  24
ENDBRANCH  21  22
ENDBRANCH  19  20
ENDBRANCH   1  19
TORSDOF 7
ENDMDL
MODEL 4
REMARK VINA RESULT:      -9.1      1.190      1.590
REMARK  Name = 
REMARK  7 active torsions:
REMARK  status: ('A' for Active; 'I' for Inactive)
REMARK    1  A    between atoms: C_2  and  C_3
REMARK    2  A    between atoms: C_2  and  C_13
REMARK    3  A    between atoms: C_4  and  N_5
REMARK    4  A    between atoms: N_5  and  C_6
REMARK    5  A    between atoms: C_9  and  O_10
REMARK    6  A    between atoms: N_15  and  C_16
REMARK    7  A    between atoms: C_23  and  C_24
REMARK                            x       y       z     vdW  Elec       q    Type
REMARK                         _______ _______ _______ _____ _____    ______ ____
ROOT
ATOM      1  C   UNL     1       5.506   5.919  17.223  0.00  0.00    +0.000 A 
ATOM      2  C   UNL     1       4.580   5.705  18.225  0.00  0.00    +0.000 A 
ATOM      3  N   UNL     1       3.823   4.619  17.874  0.00  0.00    +0.000 N 
ATOM      4  N   UNL     1       4.230   4.100  16.695  0.00  0.00    +0.000 NA
ATOM      5  C   UNL     1       5.234   4.890  16.266  0.00  0.00    +0.000 A 
ENDROOT
BRANCH   3   6
ATOM      6  C   UNL     1       2.741   4.063  18.611  0.00  0.00    +0.000 A 
ATOM      7  C   UNL     1       2.362   4.603  19.851  0.00  0.00    +0.000 A 
ATOM      8  C   UNL     1       1.300   4.047  20.568  0.00  0.00    +0.000 A 
ATOM      9  C   UNL     1       0.614   2.948  20.056  0.00  0.00    +0.000 A 
ATOM     10  C   UNL     1       0.983   2.408  18.824  0.00  0.00    +0.000 A 
ATOM     11  C   UNL     1       2.040   2.964  18.099  0.00  0.00    +0.000 A 
ENDBRANCH   3   6
BRANCH   5  12
ATOM     12  C   UNL     1       5.889   4.617  14.972  0.00  0.00    +0.000 A 
ATOM     13  C   UNL     1       5.237   3.833  14.006  0.00  0.00    +0.000 A 
ATOM     14  C   UNL     1       5.812   3.614  12.750  0.00  0.00    +0.000 A 
ATOM     15  C   UNL     1       7.046   4.180  12.437  0.00  0.00    +0.000 A 
ATOM     16  C   UNL     1       7.720   4.932  13.393  0.00  0.00    +0.000 A 
ATOM     17  C   UNL     1       7.156   5.128  14.656  0.00  0.00    +0.000 A 
ENDBRANCH   5  12
BRANCH   1  19
ATOM     18  O   UNL     1       6.454   7.942  16.433  0.00  0.00    +0.000 OA
ATOM     19  C   UNL     1       6.491   6.985  17.198  0.00  0.00    +0.000 C 
BRANCH  19  20
ATOM     20  C   UNL     1       7.607   6.790  18.160  0.00  0.00    +0.000 C 
ATOM     21  C   UNL     1       8.401   7.802  18.529  0.00  0.00    +0.000 C 
BRANCH  21  22
ATOM     22  N   UNL     1       8.349   9.110  18.137  0.00  0.00    +0.000 N 
ATOM     23  H   UNL     1       7.669   9.310  17.399  0.00  0.00    +0.000 HD
BRANCH  22  24
ATOM     24  C   UNL     1       8.982  10.226  18.705  0.00  0.00    +0.000 A 
ATOM     25  C   UNL     1       9.362  10.293  20.054  0.00  0.00    +0.000 A 
ATOM     26  C   UNL     1       9.972  11.435  20.579  0.00  0.00    +0.000 A 
ATOM     27  C   UNL     1      10.218  12.521  19.751  0.00  0.00    +0.000 A 
ATOM     28  C   UNL     1       9.877  12.474  18.406  0.00  0.00    +0.000 A 
ATOM     29  C   UNL     1       9.265  11.330  17.888  0.00  0.00    +0.000 A 
BRANCH  27  30
ATOM     30  O   UNL     1      10.797  13.658  20.226  0.00  0.00    +0.000 OA
ATOM     31  H   UNL     1      11.202  13.459  21.087  0.00  0.00    +0.000 HD
ENDBRANCH  27  30
ENDBRANCH  22  24
ENDBRANCH  21  22
ENDBRANCH  19  20
ENDBRANCH   1  19
TORSDOF 7
ENDMDL
MODEL 5
REMARK VINA RESULT:      -9.1      1.031      1.401
REMARK  Name = 
REMARK  7 active torsions:
REMARK  status: ('A' for Active; 'I' for Inactive)
REMARK    1  A    between atoms: C_2  and  C_3
REMARK    2  A    between atoms: C_2  and  C_13
REMARK    3  A    between atoms: C_4  and  N_5
REMARK    4  A    between atoms: N_5  and  C_6
REMARK    5  A    between atoms: C_9  and  O_10
REMARK    6  A    between atoms: N_15  and  C_16
REMARK    7  A    between atoms: C_23  and  C_24
REMARK                            x       y       z     vdW  Elec       q    Type
REMARK                         _______ _______ _______ _____ _____    ______ ____
ROOT
ATOM      1  C   UNL     1       5.571   5.875  17.402  0.00  0.00    +0.000 A 
ATOM      2  C   UNL     1       4.721   5.614  18.460  0.00  0.00    +0.000 A 
ATOM      3  N   UNL     1       3.958   4.526  18.127  0.00  0.00    +0.000 N 
ATOM      4  N   UNL     1       4.289   4.051  16.906  0.00  0.00    +0.000 NA
ATOM      5  C   UNL     1       5.248   4.871  16.433  0.00  0.00    +0.000 A 
ENDROOT
BRANCH   3   6
ATOM      6  C   UNL     1       2.940   3.928  18.920  0.00  0.00    +0.000 A 
ATOM      7  C   UNL     1       3.050   3.885  20.320  0.00  0.00    +0.000 A 
ATOM      8  C   UNL     1       2.046   3.293  21.089  0.00  0.00    +0.000 A 
ATOM      9  C   UNL     1       0.930   2.736  20.469  0.00  0.00    +0.000 A 
ATOM     10  C   UNL     1       0.813   2.777  19.079  0.00  0.00    +0.000 A 
ATOM     11  C   UNL     1       1.810   3.375  18.304  0.00  0.00    +0.000 A 
ENDBRANCH   3   6
BRANCH   5  12
ATOM     12  C   UNL     1       5.813   4.651  15.089  0.00  0.00    +0.000 A 
ATOM     13  C   UNL     1       7.091   5.140  14.775  0.00  0.00    +0.000 A 
ATOM     14  C   UNL     1       7.672   4.888  13.527  0.00  0.00    +0.000 A 
ATOM     15  C   UNL     1       6.986   4.138  12.574  0.00  0.00    +0.000 A 
ATOM     16  C   UNL     1       5.706   3.673  12.857  0.00  0.00    +0.000 A 
ATOM     17  C   UNL     1       5.117   3.948  14.094  0.00  0.00    +0.000 A 
ENDBRANCH   5  12
BRANCH   1  19
ATOM     18  O   UNL     1       6.434   7.934  16.607  0.00  0.00    +0.000 OA
ATOM     19  C   UNL     1       6.535   6.958  17.342  0.00  0.00    +0.000 C 
BRANCH  19  20
ATOM     20  C   UNL     1       7.714   6.758  18.224  0.00  0.00    +0.000 C 
ATOM     21  C   UNL     1       8.471   7.785  18.629  0.00  0.00    +0.000 C 
BRANCH  21  22
ATOM     22  N   UNL     1       8.324   9.113  18.345  0.00  0.00    +0.000 N 
ATOM     23  H   UNL     1       7.435   9.361  17.903  0.00  0.00    +0.000 HD
BRANCH  22  24
ATOM     24  C   UNL     1       9.148  10.188  18.710  0.00  0.00    +0.000 A 
ATOM     25  C   UNL     1       9.835  10.984  17.781  0.00  0.00    +0.000 A 
ATOM     26  C   UNL     1      10.661  12.032  18.194  0.00  0.00    +0.000 A 
ATOM     27  C   UNL     1      10.797  12.302  19.549  0.00  0.00    +0.000 A 
ATOM     28  C   UNL     1      10.108  11.550  20.490  0.00  0.00    +0.000 A 
ATOM     29  C   UNL     1       9.286  10.501  20.071  0.00  0.00    +0.000 A 
BRANCH  27  30
ATOM     30  O   UNL     1      11.602  13.305  19.994  0.00  0.00    +0.000 OA
ATOM     31  H   UNL     1      11.136  13.782  20.700  0.00  0.00    +0.000 HD
ENDBRANCH  27  30
ENDBRANCH  22  24
ENDBRANCH  21  22
ENDBRANCH  19  20
ENDBRANCH   1  19
TORSDOF 7
ENDMDL
MODEL 6
REMARK VINA RESULT:      -9.0      4.277      7.215
REMARK  Name = 
REMARK  7 active torsions:
REMARK  status: ('A' for Active; 'I' for Inactive)
REMARK    1  A    between atoms: C_2  and  C_3
REMARK    2  A    between atoms: C_2  and  C_13
REMARK    3  A    between atoms: C_4  and  N_5
REMARK    4  A    between atoms: N_5  and  C_6
REMARK    5  A    between atoms: C_9  and  O_10
REMARK    6  A    between atoms: N_15  and  C_16
REMARK    7  A    between atoms: C_23  and  C_24
REMARK                            x       y       z     vdW  Elec       q    Type
REMARK                         _______ _______ _______ _____ _____    ______ ____
ROOT
ATOM      1  C   UNL     1       3.839   6.949  17.603  0.00  0.00    +0.000 A 
ATOM      2  C   UNL     1       3.239   8.162  17.881  0.00  0.00    +0.000 A 
ATOM      3  N   UNL     1       2.188   7.927  18.728  0.00  0.00    +0.000 N 
ATOM      4  N   UNL     1       2.091   6.614  19.033  0.00  0.00    +0.000 NA
ATOM      5  C   UNL     1       3.066   5.996  18.340  0.00  0.00    +0.000 A 
ENDROOT
BRANCH   3   6
ATOM      6  C   UNL     1       1.286   8.894  19.252  0.00  0.00    +0.000 A 
ATOM      7  C   UNL     1       0.684   9.847  18.413  0.00  0.00    +0.000 A 
ATOM      8  C   UNL     1      -0.197  10.794  18.939  0.00  0.00    +0.000 A 
ATOM      9  C   UNL     1      -0.480  10.800  20.303  0.00  0.00    +0.000 A 
ATOM     10  C   UNL     1       0.113   9.857  21.142  0.00  0.00    +0.000 A 
ATOM     11  C   UNL     1       0.990   8.902  20.621  0.00  0.00    +0.000 A 
ENDBRANCH   3   6
BRANCH   5  12
ATOM     12  C   UNL     1       3.217   4.531  18.422  0.00  0.00    +0.000 A 
ATOM     13  C   UNL     1       2.654   3.709  17.433  0.00  0.00    +0.000 A 
ATOM     14  C   UNL     1       2.838   2.322  17.457  0.00  0.00    +0.000 A 
ATOM     15  C   UNL     1       3.594   1.735  18.470  0.00  0.00    +0.000 A 
ATOM     16  C   UNL     1       4.132   2.530  19.476  0.00  0.00    +0.000 A 
ATOM     17  C   UNL     1       3.924   3.912  19.463  0.00  0.00    +0.000 A 
ENDBRANCH   5  12
BRANCH   1  19
ATOM     18  O   UNL     1       5.005   7.064  15.543  0.00  0.00    +0.000 OA
ATOM     19  C   UNL     1       4.981   6.754  16.729  0.00  0.00    +0.000 C 
BRANCH  19  20
ATOM     20  C   UNL     1       6.129   6.079  17.388  0.00  0.00    +0.000 C 
ATOM     21  C   UNL     1       7.176   5.627  16.686  0.00  0.00    +0.000 C 
BRANCH  21  22
ATOM     22  N   UNL     1       7.388   5.694  15.339  0.00  0.00    +0.000 N 
ATOM     23  H   UNL     1       8.087   6.382  15.048  0.00  0.00    +0.000 HD
BRANCH  22  24
ATOM     24  C   UNL     1       6.896   4.855  14.327  0.00  0.00    +0.000 A 
ATOM     25  C   UNL     1       5.788   4.011  14.495  0.00  0.00    +0.000 A 
ATOM     26  C   UNL     1       5.348   3.177  13.464  0.00  0.00    +0.000 A 
ATOM     27  C   UNL     1       6.011   3.190  12.245  0.00  0.00    +0.000 A 
ATOM     28  C   UNL     1       7.094   4.034  12.039  0.00  0.00    +0.000 A 
ATOM     29  C   UNL     1       7.531   4.863  13.075  0.00  0.00    +0.000 A 
BRANCH  27  30
ATOM     30  O   UNL     1       5.624   2.384  11.219  0.00  0.00    +0.000 OA
ATOM     31  H   UNL     1       6.419   2.080  10.750  0.00  0.00    +0.000 HD
ENDBRANCH  27  30
ENDBRANCH  22  24
ENDBRANCH  21  22
ENDBRANCH  19  20
ENDBRANCH   1  19
TORSDOF 7
ENDMDL
MODEL 7
REMARK VINA RESULT:      -9.0      0.811      1.769
REMARK  Name = 
REMARK  7 active torsions:
REMARK  status: ('A' for Active; 'I' for Inactive)
REMARK    1  A    between atoms: C_2  and  C_3
REMARK    2  A    between atoms: C_2  and  C_13
REMARK    3  A    between atoms: C_4  and  N_5
REMARK    4  A    between atoms: N_5  and  C_6
REMARK    5  A    between atoms: C_9  and  O_10
REMARK    6  A    between atoms: N_15  and  C_16
REMARK    7  A    between atoms: C_23  and  C_24
REMARK                            x       y       z     vdW  Elec       q    Type
REMARK                         _______ _______ _______ _____ _____    ______ ____
ROOT
ATOM      1  C   UNL     1       5.735   5.902  17.606  0.00  0.00    +0.000 A 
ATOM      2  C   UNL     1       4.953   5.670  18.721  0.00  0.00    +0.000 A 
ATOM      3  N   UNL     1       4.148   4.595  18.454  0.00  0.00    +0.000 N 
ATOM      4  N   UNL     1       4.388   4.100  17.220  0.00  0.00    +0.000 NA
ATOM      5  C   UNL     1       5.329   4.895  16.674  0.00  0.00    +0.000 A 
ENDROOT
BRANCH   3   6
ATOM      6  C   UNL     1       3.174   4.027  19.320  0.00  0.00    +0.000 A 
ATOM      7  C   UNL     1       1.843   4.476  19.300  0.00  0.00    +0.000 A 
ATOM      8  C   UNL     1       0.895   3.913  20.156  0.00  0.00    +0.000 A 
ATOM      9  C   UNL     1       1.268   2.905  21.042  0.00  0.00    +0.000 A 
ATOM     10  C   UNL     1       2.587   2.452  21.067  0.00  0.00    +0.000 A 
ATOM     11  C   UNL     1       3.539   3.006  20.207  0.00  0.00    +0.000 A 
ENDBRANCH   3   6
BRANCH   5  12
ATOM     12  C   UNL     1       5.798   4.647  15.298  0.00  0.00    +0.000 A 
ATOM     13  C   UNL     1       7.091   5.040  14.915  0.00  0.00    +0.000 A 
ATOM     14  C   UNL     1       7.580   4.759  13.634  0.00  0.00    +0.000 A 
ATOM     15  C   UNL     1       6.785   4.076  12.717  0.00  0.00    +0.000 A 
ATOM     16  C   UNL     1       5.490   3.708  13.068  0.00  0.00    +0.000 A 
ATOM     17  C   UNL     1       4.995   4.013  14.339  0.00  0.00    +0.000 A 
ENDBRANCH   5  12
BRANCH   1  19
ATOM     18  O   UNL     1       6.619   7.895  16.674  0.00  0.00    +0.000 OA
ATOM     19  C   UNL     1       6.714   6.965  17.468  0.00  0.00    +0.000 C 
BRANCH  19  20
ATOM     20  C   UNL     1       7.900   6.803  18.349  0.00  0.00    +0.000 C 
ATOM     21  C   UNL     1       8.621   7.854  18.756  0.00  0.00    +0.000 C 
BRANCH  21  22
ATOM     22  N   UNL     1       8.429   9.177  18.476  0.00  0.00    +0.000 N 
ATOM     23  H   UNL     1       7.548   9.391  18.002  0.00  0.00    +0.000 HD
BRANCH  22  24
ATOM     24  C   UNL     1       9.192  10.283  18.880  0.00  0.00    +0.000 A 
ATOM     25  C   UNL     1       9.397  10.630  20.223  0.00  0.00    +0.000 A 
ATOM     26  C   UNL     1      10.148  11.754  20.576  0.00  0.00    +0.000 A 
ATOM     27  C   UNL     1      10.715  12.537  19.580  0.00  0.00    +0.000 A 
ATOM     28  C   UNL     1      10.553  12.204  18.243  0.00  0.00    +0.000 A 
ATOM     29  C   UNL     1       9.798  11.080  17.897  0.00  0.00    +0.000 A 
BRANCH  27  30
ATOM     30  O   UNL     1      11.442  13.648  19.880  0.00  0.00    +0.000 OA
ATOM     31  H   UNL     1      11.641  13.637  20.831  0.00  0.00    +0.000 HD
ENDBRANCH  27  30
ENDBRANCH  22  24
ENDBRANCH  21  22
ENDBRANCH  19  20
ENDBRANCH   1  19
TORSDOF 7
ENDMDL
MODEL 8
REMARK VINA RESULT:      -8.9      3.293      4.595
REMARK  Name = 
REMARK  7 active torsions:
REMARK  status: ('A' for Active; 'I' for Inactive)
REMARK    1  A    between atoms: C_2  and  C_3
REMARK    2  A    between atoms: C_2  and  C_13
REMARK    3  A    between atoms: C_4  and  N_5
REMARK    4  A    between atoms: N_5  and  C_6
REMARK    5  A    between atoms: C_9  and  O_10
REMARK    6  A    between atoms: N_15  and  C_16
REMARK    7  A    between atoms: C_23  and  C_24
REMARK                            x       y       z     vdW  Elec       q    Type
REMARK                         _______ _______ _______ _____ _____    ______ ____
ROOT
ATOM      1  C   UNL     1       4.085   6.840  17.493  0.00  0.00    +0.000 A 
ATOM      2  C   UNL     1       3.486   8.061  17.740  0.00  0.00    +0.000 A 
ATOM      3  N   UNL     1       2.381   7.838  18.517  0.00  0.00    +0.000 N 
ATOM      4  N   UNL     1       2.245   6.525  18.809  0.00  0.00    +0.000 NA
ATOM      5  C   UNL     1       3.253   5.895  18.175  0.00  0.00    +0.000 A 
ENDROOT
BRANCH   3   6
ATOM      6  C   UNL     1       1.463   8.816  18.990  0.00  0.00    +0.000 A 
ATOM      7  C   UNL     1       0.836   9.705  18.100  0.00  0.00    +0.000 A 
ATOM      8  C   UNL     1      -0.061  10.663  18.574  0.00  0.00    +0.000 A 
ATOM      9  C   UNL     1      -0.336  10.746  19.937  0.00  0.00    +0.000 A 
ATOM     10  C   UNL     1       0.281   9.866  20.827  0.00  0.00    +0.000 A 
ATOM     11  C   UNL     1       1.175   8.900  20.358  0.00  0.00    +0.000 A 
ENDBRANCH   3   6
BRANCH   5  12
ATOM     12  C   UNL     1       3.376   4.428  18.258  0.00  0.00    +0.000 A 
ATOM     13  C   UNL     1       4.206   3.847  19.231  0.00  0.00    +0.000 A 
ATOM     14  C   UNL     1       4.290   2.457  19.369  0.00  0.00    +0.000 A 
ATOM     15  C   UNL     1       3.541   1.625  18.540  0.00  0.00    +0.000 A 
ATOM     16  C   UNL     1       2.738   2.183  17.551  0.00  0.00    +0.000 A 
ATOM     17  C   UNL     1       2.676   3.570  17.398  0.00  0.00    +0.000 A 
ENDBRANCH   5  12
BRANCH   1  19
ATOM     18  O   UNL     1       5.308   6.704  15.468  0.00  0.00    +0.000 OA
ATOM     19  C   UNL     1       5.277   6.632  16.691  0.00  0.00    +0.000 C 
BRANCH  19  20
ATOM     20  C   UNL     1       6.474   6.257  17.488  0.00  0.00    +0.000 C 
ATOM     21  C   UNL     1       7.453   7.135  17.739  0.00  0.00    +0.000 C 
BRANCH  21  22
ATOM     22  N   UNL     1       7.541   8.442  17.354  0.00  0.00    +0.000 N 
ATOM     23  H   UNL     1       6.934   8.701  16.572  0.00  0.00    +0.000 HD
BRANCH  22  24
ATOM     24  C   UNL     1       8.226   9.499  17.973  0.00  0.00    +0.000 A 
ATOM     25  C   UNL     1       8.992   9.344  19.138  0.00  0.00    +0.000 A 
ATOM     26  C   UNL     1       9.640  10.431  19.730  0.00  0.00    +0.000 A 
ATOM     27  C   UNL     1       9.536  11.687  19.150  0.00  0.00    +0.000 A 
ATOM     28  C   UNL     1       8.808  11.867  17.982  0.00  0.00    +0.000 A 
ATOM     29  C   UNL     1       8.160  10.776  17.397  0.00  0.00    +0.000 A 
BRANCH  27  30
ATOM     30  O   UNL     1      10.140  12.775  19.702  0.00  0.00    +0.000 OA
ATOM     31  H   UNL     1      10.495  12.522  20.570  0.00  0.00    +0.000 HD
ENDBRANCH  27  30
ENDBRANCH  22  24
ENDBRANCH  21  22
ENDBRANCH  19  20
ENDBRANCH   1  19
TORSDOF 7
ENDMDL
MODEL 9
REMARK VINA RESULT:      -8.7      3.255      4.430
REMARK  Name = 
REMARK  7 active torsions:
REMARK  status: ('A' for Active; 'I' for Inactive)
REMARK    1  A    between atoms: C_2  and  C_3
REMARK    2  A    between atoms: C_2  and  C_13
REMARK    3  A    between atoms: C_4  and  N_5
REMARK    4  A    between atoms: N_5  and  C_6
REMARK    5  A    between atoms: C_9  and  O_10
REMARK    6  A    between atoms: N_15  and  C_16
REMARK    7  A    between atoms: C_23  and  C_24
REMARK                            x       y       z     vdW  Elec       q    Type
REMARK                         _______ _______ _______ _____ _____    ______ ____
ROOT
ATOM      1  C   UNL     1       4.162   6.826  17.479  0.00  0.00    +0.000 A 
ATOM      2  C   UNL     1       3.524   8.033  17.689  0.00  0.00    +0.000 A 
ATOM      3  N   UNL     1       2.435   7.801  18.485  0.00  0.00    +0.000 N 
ATOM      4  N   UNL     1       2.346   6.496  18.824  0.00  0.00    +0.000 NA
ATOM      5  C   UNL     1       3.369   5.878  18.201  0.00  0.00    +0.000 A 
ENDROOT
BRANCH   3   6
ATOM      6  C   UNL     1       1.488   8.764  18.933  0.00  0.00    +0.000 A 
ATOM      7  C   UNL     1       1.178   8.887  20.298  0.00  0.00    +0.000 A 
ATOM      8  C   UNL     1       0.245   9.833  20.727  0.00  0.00    +0.000 A 
ATOM      9  C   UNL     1      -0.387  10.658  19.799  0.00  0.00    +0.000 A 
ATOM     10  C   UNL     1      -0.083  10.543  18.443  0.00  0.00    +0.000 A 
ATOM     11  C   UNL     1       0.855   9.603  18.008  0.00  0.00    +0.000 A 
ENDBRANCH   3   6
BRANCH   5  12
ATOM     12  C   UNL     1       3.543   4.419  18.335  0.00  0.00    +0.000 A 
ATOM     13  C   UNL     1       4.142   3.885  19.487  0.00  0.00    +0.000 A 
ATOM     14  C   UNL     1       4.261   2.502  19.662  0.00  0.00    +0.000 A 
ATOM     15  C   UNL     1       3.777   1.630  18.690  0.00  0.00    +0.000 A 
ATOM     16  C   UNL     1       3.209   2.142  17.528  0.00  0.00    +0.000 A 
ATOM     17  C   UNL     1       3.116   3.524  17.343  0.00  0.00    +0.000 A 
ENDBRANCH   5  12
BRANCH   1  19
ATOM     18  O   UNL     1       5.375   6.684  15.447  0.00  0.00    +0.000 OA
ATOM     19  C   UNL     1       5.352   6.630  16.672  0.00  0.00    +0.000 C 
BRANCH  19  20
ATOM     20  C   UNL     1       6.563   6.291  17.466  0.00  0.00    +0.000 C 
ATOM     21  C   UNL     1       7.534   7.186  17.680  0.00  0.00    +0.000 C 
BRANCH  21  22
ATOM     22  N   UNL     1       7.605   8.483  17.255  0.00  0.00    +0.000 N 
ATOM     23  H   UNL     1       7.035   8.696  16.433  0.00  0.00    +0.000 HD
BRANCH  22  24
ATOM     24  C   UNL     1       8.223   9.580  17.873  0.00  0.00    +0.000 A 
ATOM     25  C   UNL     1       8.146  10.890  17.377  0.00  0.00    +0.000 A 
ATOM     26  C   UNL     1       8.797  11.948  18.017  0.00  0.00    +0.000 A 
ATOM     27  C   UNL     1       9.524  11.703  19.173  0.00  0.00    +0.000 A 
ATOM     28  C   UNL     1       9.596  10.423  19.704  0.00  0.00    +0.000 A 
ATOM     29  C   UNL     1       8.946   9.369  19.058  0.00  0.00    +0.000 A 
BRANCH  27  30
ATOM     30  O   UNL     1      10.183  12.704  19.820  0.00  0.00    +0.000 OA
ATOM     31  H   UNL     1      10.959  12.952  19.291  0.00  0.00    +0.000 HD
ENDBRANCH  27  30
ENDBRANCH  22  24
ENDBRANCH  21  22
ENDBRANCH  19  20
ENDBRANCH   1  19
TORSDOF 7
ENDMDL
