MODEL 1
REMARK VINA RESULT:      -9.1      0.000      0.000
REMARK  Name = 
REMARK  4 active torsions:
REMARK  status: ('A' for Active; 'I' for Inactive)
REMARK    1  A    between atoms: C_4  and  C_5
REMARK    2  A    between atoms: C_10  and  C_11
REMARK    3  A    between atoms: C_15  and  C_16
REMARK    4  A    between atoms: N_20  and  C_21
REMARK                            x       y       z     vdW  Elec       q    Type
REMARK                         _______ _______ _______ _____ _____    ______ ____
ROOT
ATOM      1  C   UNL     1       0.158  10.210  19.078  0.00  0.00    +0.000 C 
ATOM      2  O   UNL     1       0.284   9.893  17.901  0.00  0.00    +0.000 OA
ATOM      3  N   UNL     1       0.691   9.503  20.145  0.00  0.00    +0.000 N 
ATOM      4  C   UNL     1       1.411   8.344  19.926  0.00  0.00    +0.000 A 
ATOM      5  C   UNL     1       2.301   8.090  18.872  0.00  0.00    +0.000 A 
ATOM      6  C   UNL     1       2.707   6.774  19.003  0.00  0.00    +0.000 A 
ATOM      7  N   UNL     1       1.939   6.283  20.067  0.00  0.00    +0.000 N 
ATOM      8  N   UNL     1       1.349   7.310  20.764  0.00  0.00    +0.000 NA
ATOM      9  H   UNL     1       0.258   9.556  21.057  0.00  0.00    +0.000 HD
ENDROOT
BRANCH   1  13
ATOM     10  O   UNL     1      -0.160  14.858  20.318  0.00  0.00    +0.000 OA
ATOM     11  C   UNL     1      -0.404  13.772  19.834  0.00  0.00    +0.000 C 
ATOM     12  C   UNL     1       0.153  12.441  20.281  0.00  0.00    +0.000 C 
ATOM     13  C   UNL     1      -0.664  11.425  19.480  0.00  0.00    +0.000 C 
ATOM     14  C   UNL     1      -1.121  12.217  18.264  0.00  0.00    +0.000 C 
ATOM     15  N   UNL     1      -1.224  13.556  18.749  0.00  0.00    +0.000 N 
ATOM     16  H   UNL     1      -1.565  14.350  18.217  0.00  0.00    +0.000 HD
ENDBRANCH   1  13
BRANCH   6  17
ATOM     17  C   UNL     1       3.687   6.053  18.171  0.00  0.00    +0.000 A 
ATOM     18  C   UNL     1       3.391   4.859  17.506  0.00  0.00    +0.000 A 
ATOM     19  C   UNL     1       4.307   4.292  16.619  0.00  0.00    +0.000 A 
ATOM     20  C   UNL     1       5.574   4.857  16.466  0.00  0.00    +0.000 A 
ATOM     21  C   UNL     1       5.951   5.991  17.198  0.00  0.00    +0.000 A 
ATOM     22  C   UNL     1       4.980   6.577  18.029  0.00  0.00    +0.000 A 
BRANCH  21  23
ATOM     23  C   UNL     1       7.351   6.544  17.151  0.00  0.00    +0.000 C 
ATOM     24  C   UNL     1       7.643   7.972  17.535  0.00  0.00    +0.000 C 
ATOM     25  C   UNL     1       8.071   6.860  18.443  0.00  0.00    +0.000 C 
ENDBRANCH  21  23
ENDBRANCH   6  17
BRANCH   7  26
ATOM     26  C   UNL     1       1.736   4.928  20.479  0.00  0.00    +0.000 A 
ATOM     27  C   UNL     1       2.533   4.383  21.491  0.00  0.00    +0.000 A 
ATOM     28  C   UNL     1       2.480   3.011  21.754  0.00  0.00    +0.000 A 
ATOM     29  C   UNL     1       1.622   2.183  21.024  0.00  0.00    +0.000 A 
ATOM     30  C   UNL     1       0.759   2.738  20.088  0.00  0.00    +0.000 A 
ATOM     31  C   UNL     1       0.786   4.112  19.847  0.00  0.00    +0.000 A 
ENDBRANCH   7  26
TORSDOF 4
ENDMDL
MODEL 2
REMARK VINA RESULT:      -9.1      1.134      1.341
REMARK  Name = 
REMARK  4 active torsions:
REMARK  status: ('A' for Active; 'I' for Inactive)
REMARK    1  A    between atoms: C_4  and  C_5
REMARK    2  A    between atoms: C_10  and  C_11
REMARK    3  A    between atoms: C_15  and  C_16
REMARK    4  A    between atoms: N_20  and  C_21
REMARK                            x       y       z     vdW  Elec       q    Type
REMARK                         _______ _______ _______ _____ _____    ______ ____
ROOT
ATOM      1  C   UNL     1       0.197  10.298  19.011  0.00  0.00    +0.000 C 
ATOM      2  O   UNL     1       0.317   9.966  17.837  0.00  0.00    +0.000 OA
ATOM      3  N   UNL     1       0.724   9.598  20.084  0.00  0.00    +0.000 N 
ATOM      4  C   UNL     1       1.429   8.427  19.878  0.00  0.00    +0.000 A 
ATOM      5  C   UNL     1       2.313   8.149  18.825  0.00  0.00    +0.000 A 
ATOM      6  C   UNL     1       2.702   6.830  18.970  0.00  0.00    +0.000 A 
ATOM      7  N   UNL     1       1.931   6.361  20.042  0.00  0.00    +0.000 N 
ATOM      8  N   UNL     1       1.356   7.404  20.728  0.00  0.00    +0.000 NA
ATOM      9  H   UNL     1       0.294   9.667  20.997  0.00  0.00    +0.000 HD
ENDROOT
BRANCH   1  13
ATOM     10  O   UNL     1      -4.021  12.540  19.664  0.00  0.00    +0.000 OA
ATOM     11  C   UNL     1      -2.869  12.183  19.801  0.00  0.00    +0.000 C 
ATOM     12  C   UNL     1      -1.992  11.550  18.747  0.00  0.00    +0.000 C 
ATOM     13  C   UNL     1      -0.608  11.529  19.401  0.00  0.00    +0.000 C 
ATOM     14  C   UNL     1      -0.919  11.543  20.890  0.00  0.00    +0.000 C 
ATOM     15  N   UNL     1      -2.151  12.261  20.973  0.00  0.00    +0.000 N 
ATOM     16  H   UNL     1      -2.627  12.516  21.833  0.00  0.00    +0.000 HD
ENDBRANCH   1  13
BRANCH   6  17
ATOM     17  C   UNL     1       3.670   6.086  18.145  0.00  0.00    +0.000 A 
ATOM     18  C   UNL     1       3.349   4.906  17.467  0.00  0.00    +0.000 A 
ATOM     19  C   UNL     1       4.258   4.319  16.586  0.00  0.00    +0.000 A 
ATOM     20  C   UNL     1       5.542   4.849  16.453  0.00  0.00    +0.000 A 
ATOM     21  C   UNL     1       5.943   5.966  17.197  0.00  0.00    +0.000 A 
ATOM     22  C   UNL     1       4.980   6.574  18.021  0.00  0.00    +0.000 A 
BRANCH  21  23
ATOM     23  C   UNL     1       7.359   6.478  17.171  0.00  0.00    +0.000 C 
ATOM     24  C   UNL     1       7.683   7.905  17.531  0.00  0.00    +0.000 C 
ATOM     25  C   UNL     1       8.059   6.801  18.472  0.00  0.00    +0.000 C 
ENDBRANCH  21  23
ENDBRANCH   6  17
BRANCH   7  26
ATOM     26  C   UNL     1       1.711   5.014  20.470  0.00  0.00    +0.000 A 
ATOM     27  C   UNL     1       2.464   4.490  21.526  0.00  0.00    +0.000 A 
ATOM     28  C   UNL     1       2.402   3.123  21.813  0.00  0.00    +0.000 A 
ATOM     29  C   UNL     1       1.577   2.279  21.063  0.00  0.00    +0.000 A 
ATOM     30  C   UNL     1       0.755   2.815  20.079  0.00  0.00    +0.000 A 
ATOM     31  C   UNL     1       0.791   4.184  19.813  0.00  0.00    +0.000 A 
ENDBRANCH   7  26
TORSDOF 4
ENDMDL
MODEL 3
REMARK VINA RESULT:      -9.1      1.447      2.231
REMARK  Name = 
REMARK  4 active torsions:
REMARK  status: ('A' for Active; 'I' for Inactive)
REMARK    1  A    between atoms: C_4  and  C_5
REMARK    2  A    between atoms: C_10  and  C_11
REMARK    3  A    between atoms: C_15  and  C_16
REMARK    4  A    between atoms: N_20  and  C_21
REMARK                            x       y       z     vdW  Elec       q    Type
REMARK                         _______ _______ _______ _____ _____    ______ ____
ROOT
ATOM      1  C   UNL     1       0.905   9.863  18.552  0.00  0.00    +0.000 C 
ATOM      2  O   UNL     1       1.336   9.706  17.415  0.00  0.00    +0.000 OA
ATOM      3  N   UNL     1       1.176   9.022  19.619  0.00  0.00    +0.000 N 
ATOM      4  C   UNL     1       1.970   7.903  19.445  0.00  0.00    +0.000 A 
ATOM      5  C   UNL     1       3.106   7.794  18.629  0.00  0.00    +0.000 A 
ATOM      6  C   UNL     1       3.512   6.473  18.689  0.00  0.00    +0.000 A 
ATOM      7  N   UNL     1       2.519   5.843  19.450  0.00  0.00    +0.000 N 
ATOM      8  N   UNL     1       1.735   6.767  20.099  0.00  0.00    +0.000 NA
ATOM      9  H   UNL     1       0.525   8.951  20.390  0.00  0.00    +0.000 HD
ENDROOT
BRANCH   1  13
ATOM     10  O   UNL     1      -0.249  14.541  18.393  0.00  0.00    +0.000 OA
ATOM     11  C   UNL     1      -0.331  13.330  18.395  0.00  0.00    +0.000 C 
ATOM     12  C   UNL     1       0.689  12.359  18.938  0.00  0.00    +0.000 C 
ATOM     13  C   UNL     1      -0.035  11.012  18.883  0.00  0.00    +0.000 C 
ATOM     14  C   UNL     1      -1.076  11.214  17.792  0.00  0.00    +0.000 C 
ATOM     15  N   UNL     1      -1.376  12.608  17.861  0.00  0.00    +0.000 N 
ATOM     16  H   UNL     1      -2.083  13.086  17.312  0.00  0.00    +0.000 HD
ENDBRANCH   1  13
BRANCH   6  17
ATOM     17  C   UNL     1       4.696   5.871  18.050  0.00  0.00    +0.000 A 
ATOM     18  C   UNL     1       5.797   5.400  18.772  0.00  0.00    +0.000 A 
ATOM     19  C   UNL     1       6.827   4.711  18.131  0.00  0.00    +0.000 A 
ATOM     20  C   UNL     1       6.820   4.576  16.742  0.00  0.00    +0.000 A 
ATOM     21  C   UNL     1       5.791   5.131  15.969  0.00  0.00    +0.000 A 
ATOM     22  C   UNL     1       4.733   5.757  16.653  0.00  0.00    +0.000 A 
BRANCH  21  23
ATOM     23  C   UNL     1       5.824   5.115  14.464  0.00  0.00    +0.000 C 
ATOM     24  C   UNL     1       7.074   4.740  13.711  0.00  0.00    +0.000 C 
ATOM     25  C   UNL     1       5.914   3.794  13.734  0.00  0.00    +0.000 C 
ENDBRANCH  21  23
ENDBRANCH   6  17
BRANCH   7  26
ATOM     26  C   UNL     1       2.267   4.445  19.620  0.00  0.00    +0.000 A 
ATOM     27  C   UNL     1       2.127   3.624  18.496  0.00  0.00    +0.000 A 
ATOM     28  C   UNL     1       1.679   2.309  18.648  0.00  0.00    +0.000 A 
ATOM     29  C   UNL     1       1.388   1.802  19.919  0.00  0.00    +0.000 A 
ATOM     30  C   UNL     1       1.621   2.584  21.043  0.00  0.00    +0.000 A 
ATOM     31  C   UNL     1       2.099   3.887  20.896  0.00  0.00    +0.000 A 
ENDBRANCH   7  26
TORSDOF 4
ENDMDL
MODEL 4
REMARK VINA RESULT:      -9.0      1.698      2.547
REMARK  Name = 
REMARK  4 active torsions:
REMARK  status: ('A' for Active; 'I' for Inactive)
REMARK    1  A    between atoms: C_4  and  C_5
REMARK    2  A    between atoms: C_10  and  C_11
REMARK    3  A    between atoms: C_15  and  C_16
REMARK    4  A    between atoms: N_20  and  C_21
REMARK                            x       y       z     vdW  Elec       q    Type
REMARK                         _______ _______ _______ _____ _____    ______ ____
ROOT
ATOM      1  C   UNL     1       1.030   9.972  18.461  0.00  0.00    +0.000 C 
ATOM      2  O   UNL     1       1.480   9.821  17.330  0.00  0.00    +0.000 OA
ATOM      3  N   UNL     1       1.257   9.108  19.520  0.00  0.00    +0.000 N 
ATOM      4  C   UNL     1       2.022   7.971  19.344  0.00  0.00    +0.000 A 
ATOM      5  C   UNL     1       3.171   7.841  18.549  0.00  0.00    +0.000 A 
ATOM      6  C   UNL     1       3.539   6.509  18.597  0.00  0.00    +0.000 A 
ATOM      7  N   UNL     1       2.514   5.896  19.329  0.00  0.00    +0.000 N 
ATOM      8  N   UNL     1       1.743   6.831  19.976  0.00  0.00    +0.000 NA
ATOM      9  H   UNL     1       0.589   9.045  20.277  0.00  0.00    +0.000 HD
ENDROOT
BRANCH   1  13
ATOM     10  O   UNL     1      -3.374  11.872  18.945  0.00  0.00    +0.000 OA
ATOM     11  C   UNL     1      -2.201  11.617  19.119  0.00  0.00    +0.000 C 
ATOM     12  C   UNL     1      -1.247  11.027  18.107  0.00  0.00    +0.000 C 
ATOM     13  C   UNL     1       0.116  11.143  18.792  0.00  0.00    +0.000 C 
ATOM     14  C   UNL     1      -0.233  11.177  20.273  0.00  0.00    +0.000 C 
ATOM     15  N   UNL     1      -1.521  11.792  20.304  0.00  0.00    +0.000 N 
ATOM     16  H   UNL     1      -2.038  12.032  21.144  0.00  0.00    +0.000 HD
ENDBRANCH   1  13
BRANCH   6  17
ATOM     17  C   UNL     1       4.718   5.884  17.971  0.00  0.00    +0.000 A 
ATOM     18  C   UNL     1       5.802   5.393  18.706  0.00  0.00    +0.000 A 
ATOM     19  C   UNL     1       6.826   4.683  18.078  0.00  0.00    +0.000 A 
ATOM     20  C   UNL     1       6.831   4.547  16.689  0.00  0.00    +0.000 A 
ATOM     21  C   UNL     1       5.822   5.119  15.904  0.00  0.00    +0.000 A 
ATOM     22  C   UNL     1       4.769   5.766  16.575  0.00  0.00    +0.000 A 
BRANCH  21  23
ATOM     23  C   UNL     1       5.871   5.100  14.399  0.00  0.00    +0.000 C 
ATOM     24  C   UNL     1       7.115   4.677  13.661  0.00  0.00    +0.000 C 
ATOM     25  C   UNL     1       5.918   3.776  13.671  0.00  0.00    +0.000 C 
ENDBRANCH  21  23
ENDBRANCH   6  17
BRANCH   7  26
ATOM     26  C   UNL     1       2.219   4.503  19.471  0.00  0.00    +0.000 A 
ATOM     27  C   UNL     1       2.078   3.703  18.332  0.00  0.00    +0.000 A 
ATOM     28  C   UNL     1       1.591   2.399  18.456  0.00  0.00    +0.000 A 
ATOM     29  C   UNL     1       1.262   1.882  19.712  0.00  0.00    +0.000 A 
ATOM     30  C   UNL     1       1.495   2.640  20.853  0.00  0.00    +0.000 A 
ATOM     31  C   UNL     1       2.012   3.931  20.735  0.00  0.00    +0.000 A 
ENDBRANCH   7  26
TORSDOF 4
ENDMDL
MODEL 5
REMARK VINA RESULT:      -9.0      1.977      2.991
REMARK  Name = 
REMARK  4 active torsions:
REMARK  status: ('A' for Active; 'I' for Inactive)
REMARK    1  A    between atoms: C_4  and  C_5
REMARK    2  A    between atoms: C_10  and  C_11
REMARK    3  A    between atoms: C_15  and  C_16
REMARK    4  A    between atoms: N_20  and  C_21
REMARK                            x       y       z     vdW  Elec       q    Type
REMARK                         _______ _______ _______ _____ _____    ______ ____
ROOT
ATOM      1  C   UNL     1       1.504   9.638  18.515  0.00  0.00    +0.000 C 
ATOM      2  O   UNL     1       1.900   9.665  17.355  0.00  0.00    +0.000 OA
ATOM      3  N   UNL     1       1.761   8.612  19.410  0.00  0.00    +0.000 N 
ATOM      4  C   UNL     1       2.497   7.509  19.018  0.00  0.00    +0.000 A 
ATOM      5  C   UNL     1       3.606   7.496  18.159  0.00  0.00    +0.000 A 
ATOM      6  C   UNL     1       3.951   6.170  17.975  0.00  0.00    +0.000 A 
ATOM      7  N   UNL     1       2.948   5.458  18.646  0.00  0.00    +0.000 N 
ATOM      8  N   UNL     1       2.224   6.285  19.471  0.00  0.00    +0.000 NA
ATOM      9  H   UNL     1       1.127   8.434  20.177  0.00  0.00    +0.000 HD
ENDROOT
BRANCH   1  13
ATOM     10  O   UNL     1      -0.089  12.296  22.208  0.00  0.00    +0.000 OA
ATOM     11  C   UNL     1       0.277  11.957  21.101  0.00  0.00    +0.000 C 
ATOM     12  C   UNL     1       0.307  10.550  20.555  0.00  0.00    +0.000 C 
ATOM     13  C   UNL     1       0.628  10.750  19.072  0.00  0.00    +0.000 C 
ATOM     14  C   UNL     1       1.344  12.092  19.042  0.00  0.00    +0.000 C 
ATOM     15  N   UNL     1       0.771  12.807  20.137  0.00  0.00    +0.000 N 
ATOM     16  H   UNL     1       0.972  13.773  20.380  0.00  0.00    +0.000 HD
ENDBRANCH   1  13
BRANCH   6  17
ATOM     17  C   UNL     1       5.089   5.640  17.203  0.00  0.00    +0.000 A 
ATOM     18  C   UNL     1       6.333   5.354  17.774  0.00  0.00    +0.000 A 
ATOM     19  C   UNL     1       7.330   4.722  17.031  0.00  0.00    +0.000 A 
ATOM     20  C   UNL     1       7.132   4.462  15.674  0.00  0.00    +0.000 A 
ATOM     21  C   UNL     1       5.942   4.833  15.035  0.00  0.00    +0.000 A 
ATOM     22  C   UNL     1       4.931   5.403  15.829  0.00  0.00    +0.000 A 
BRANCH  21  23
ATOM     23  C   UNL     1       5.752   4.684  13.549  0.00  0.00    +0.000 C 
ATOM     24  C   UNL     1       6.659   3.804  12.727  0.00  0.00    +0.000 C 
ATOM     25  C   UNL     1       5.248   3.373  12.989  0.00  0.00    +0.000 C 
ENDBRANCH  21  23
ENDBRANCH   6  17
BRANCH   7  26
ATOM     26  C   UNL     1       2.634   4.064  18.576  0.00  0.00    +0.000 A 
ATOM     27  C   UNL     1       1.299   3.657  18.484  0.00  0.00    +0.000 A 
ATOM     28  C   UNL     1       0.974   2.305  18.624  0.00  0.00    +0.000 A 
ATOM     29  C   UNL     1       1.976   1.353  18.835  0.00  0.00    +0.000 A 
ATOM     30  C   UNL     1       3.310   1.744  18.828  0.00  0.00    +0.000 A 
ATOM     31  C   UNL     1       3.639   3.089  18.657  0.00  0.00    +0.000 A 
ENDBRANCH   7  26
TORSDOF 4
ENDMDL
MODEL 6
REMARK VINA RESULT:      -8.9      1.995      3.076
REMARK  Name = 
REMARK  4 active torsions:
REMARK  status: ('A' for Active; 'I' for Inactive)
REMARK    1  A    between atoms: C_4  and  C_5
REMARK    2  A    between atoms: C_10  and  C_11
REMARK    3  A    between atoms: C_15  and  C_16
REMARK    4  A    between atoms: N_20  and  C_21
REMARK                            x       y       z     vdW  Elec       q    Type
REMARK                         _______ _______ _______ _____ _____    ______ ____
ROOT
ATOM      1  C   UNL     1       1.528   9.724  18.402  0.00  0.00    +0.000 C 
ATOM      2  O   UNL     1       1.958   9.736  17.254  0.00  0.00    +0.000 OA
ATOM      3  N   UNL     1       1.741   8.700  19.311  0.00  0.00    +0.000 N 
ATOM      4  C   UNL     1       2.469   7.582  18.948  0.00  0.00    +0.000 A 
ATOM      5  C   UNL     1       3.603   7.545  18.122  0.00  0.00    +0.000 A 
ATOM      6  C   UNL     1       3.930   6.211  17.957  0.00  0.00    +0.000 A 
ATOM      7  N   UNL     1       2.896   5.521  18.603  0.00  0.00    +0.000 N 
ATOM      8  N   UNL     1       2.163   6.367  19.401  0.00  0.00    +0.000 NA
ATOM      9  H   UNL     1       1.082   8.539  20.061  0.00  0.00    +0.000 HD
ENDROOT
BRANCH   1  13
ATOM     10  O   UNL     1      -2.806  11.693  19.163  0.00  0.00    +0.000 OA
ATOM     11  C   UNL     1      -1.647  11.361  19.303  0.00  0.00    +0.000 C 
ATOM     12  C   UNL     1      -0.698  10.921  18.214  0.00  0.00    +0.000 C 
ATOM     13  C   UNL     1       0.655  10.854  18.925  0.00  0.00    +0.000 C 
ATOM     14  C   UNL     1       0.278  10.638  20.384  0.00  0.00    +0.000 C 
ATOM     15  N   UNL     1      -0.985  11.292  20.509  0.00  0.00    +0.000 N 
ATOM     16  H   UNL     1      -1.508  11.401  21.372  0.00  0.00    +0.000 HD
ENDBRANCH   1  13
BRANCH   6  17
ATOM     17  C   UNL     1       5.081   5.657  17.222  0.00  0.00    +0.000 A 
ATOM     18  C   UNL     1       6.290   5.320  17.838  0.00  0.00    +0.000 A 
ATOM     19  C   UNL     1       7.296   4.667  17.124  0.00  0.00    +0.000 A 
ATOM     20  C   UNL     1       7.146   4.438  15.756  0.00  0.00    +0.000 A 
ATOM     21  C   UNL     1       5.996   4.859  15.076  0.00  0.00    +0.000 A 
ATOM     22  C   UNL     1       4.972   5.450  15.839  0.00  0.00    +0.000 A 
BRANCH  21  23
ATOM     23  C   UNL     1       5.863   4.742  13.581  0.00  0.00    +0.000 C 
ATOM     24  C   UNL     1       6.647   3.719  12.801  0.00  0.00    +0.000 C 
ATOM     25  C   UNL     1       5.172   3.537  12.985  0.00  0.00    +0.000 C 
ENDBRANCH  21  23
ENDBRANCH   6  17
BRANCH   7  26
ATOM     26  C   UNL     1       2.561   4.132  18.534  0.00  0.00    +0.000 A 
ATOM     27  C   UNL     1       1.219   3.739  18.576  0.00  0.00    +0.000 A 
ATOM     28  C   UNL     1       0.896   2.387  18.717  0.00  0.00    +0.000 A 
ATOM     29  C   UNL     1       1.905   1.422  18.797  0.00  0.00    +0.000 A 
ATOM     30  C   UNL     1       3.234   1.801  18.656  0.00  0.00    +0.000 A 
ATOM     31  C   UNL     1       3.558   3.147  18.483  0.00  0.00    +0.000 A 
ENDBRANCH   7  26
TORSDOF 4
ENDMDL
MODEL 7
REMARK VINA RESULT:      -8.7      1.969      2.883
REMARK  Name = 
REMARK  4 active torsions:
REMARK  status: ('A' for Active; 'I' for Inactive)
REMARK    1  A    between atoms: C_4  and  C_5
REMARK    2  A    between atoms: C_10  and  C_11
REMARK    3  A    between atoms: C_15  and  C_16
REMARK    4  A    between atoms: N_20  and  C_21
REMARK                            x       y       z     vdW  Elec       q    Type
REMARK                         _______ _______ _______ _____ _____    ______ ____
ROOT
ATOM      1  C   UNL     1       0.940   9.498  18.577  0.00  0.00    +0.000 C 
ATOM      2  O   UNL     1       1.247   9.538  17.391  0.00  0.00    +0.000 OA
ATOM      3  N   UNL     1       1.441   8.583  19.489  0.00  0.00    +0.000 N 
ATOM      4  C   UNL     1       2.340   7.613  19.086  0.00  0.00    +0.000 A 
ATOM      5  C   UNL     1       3.374   7.759  18.149  0.00  0.00    +0.000 A 
ATOM      6  C   UNL     1       3.946   6.510  17.991  0.00  0.00    +0.000 A 
ATOM      7  N   UNL     1       3.138   5.663  18.761  0.00  0.00    +0.000 N 
ATOM      8  N   UNL     1       2.329   6.386  19.605  0.00  0.00    +0.000 NA
ATOM      9  H   UNL     1       0.902   8.332  20.308  0.00  0.00    +0.000 HD
ENDROOT
BRANCH   1  13
ATOM     10  O   UNL     1      -0.940  11.920  22.297  0.00  0.00    +0.000 OA
ATOM     11  C   UNL     1      -0.562  11.627  21.182  0.00  0.00    +0.000 C 
ATOM     12  C   UNL     1      -0.318  10.235  20.651  0.00  0.00    +0.000 C 
ATOM     13  C   UNL     1      -0.088  10.459  19.155  0.00  0.00    +0.000 C 
ATOM     14  C   UNL     1       0.393  11.901  19.082  0.00  0.00    +0.000 C 
ATOM     15  N   UNL     1      -0.252  12.530  20.190  0.00  0.00    +0.000 N 
ATOM     16  H   UNL     1      -0.205  13.519  20.413  0.00  0.00    +0.000 HD
ENDBRANCH   1  13
BRANCH   6  17
ATOM     17  C   UNL     1       5.109   6.157  17.157  0.00  0.00    +0.000 A 
ATOM     18  C   UNL     1       6.351   6.789  17.273  0.00  0.00    +0.000 A 
ATOM     19  C   UNL     1       7.457   6.322  16.562  0.00  0.00    +0.000 A 
ATOM     20  C   UNL     1       7.309   5.282  15.643  0.00  0.00    +0.000 A 
ATOM     21  C   UNL     1       6.058   4.694  15.414  0.00  0.00    +0.000 A 
ATOM     22  C   UNL     1       4.980   5.140  16.200  0.00  0.00    +0.000 A 
BRANCH  21  23
ATOM     23  C   UNL     1       5.844   3.663  14.339  0.00  0.00    +0.000 C 
ATOM     24  C   UNL     1       5.044   3.975  13.101  0.00  0.00    +0.000 C 
ATOM     25  C   UNL     1       6.531   3.825  13.002  0.00  0.00    +0.000 C 
ENDBRANCH  21  23
ENDBRANCH   6  17
BRANCH   7  26
ATOM     26  C   UNL     1       3.084   4.233  18.768  0.00  0.00    +0.000 A 
ATOM     27  C   UNL     1       3.967   3.509  19.575  0.00  0.00    +0.000 A 
ATOM     28  C   UNL     1       4.059   2.122  19.433  0.00  0.00    +0.000 A 
ATOM     29  C   UNL     1       3.260   1.450  18.503  0.00  0.00    +0.000 A 
ATOM     30  C   UNL     1       2.313   2.155  17.771  0.00  0.00    +0.000 A 
ATOM     31  C   UNL     1       2.196   3.537  17.934  0.00  0.00    +0.000 A 
ENDBRANCH   7  26
TORSDOF 4
ENDMDL
MODEL 8
REMARK VINA RESULT:      -8.7      1.555      2.696
REMARK  Name = 
REMARK  4 active torsions:
REMARK  status: ('A' for Active; 'I' for Inactive)
REMARK    1  A    between atoms: C_4  and  C_5
REMARK    2  A    between atoms: C_10  and  C_11
REMARK    3  A    between atoms: C_15  and  C_16
REMARK    4  A    between atoms: N_20  and  C_21
REMARK                            x       y       z     vdW  Elec       q    Type
REMARK                         _______ _______ _______ _____ _____    ______ ____
ROOT
ATOM      1  C   UNL     1       0.096  10.548  19.303  0.00  0.00    +0.000 C 
ATOM      2  O   UNL     1       0.068  10.219  18.122  0.00  0.00    +0.000 OA
ATOM      3  N   UNL     1       0.738   9.836  20.303  0.00  0.00    +0.000 N 
ATOM      4  C   UNL     1       1.394   8.655  20.011  0.00  0.00    +0.000 A 
ATOM      5  C   UNL     1       2.140   8.367  18.857  0.00  0.00    +0.000 A 
ATOM      6  C   UNL     1       2.522   7.042  18.952  0.00  0.00    +0.000 A 
ATOM      7  N   UNL     1       1.879   6.580  20.109  0.00  0.00    +0.000 N 
ATOM      8  N   UNL     1       1.407   7.629  20.861  0.00  0.00    +0.000 NA
ATOM      9  H   UNL     1       0.423   9.907  21.261  0.00  0.00    +0.000 HD
ENDROOT
BRANCH   1  13
ATOM     10  O   UNL     1      -3.986  12.959  20.180  0.00  0.00    +0.000 OA
ATOM     11  C   UNL     1      -2.853  12.532  20.272  0.00  0.00    +0.000 C 
ATOM     12  C   UNL     1      -2.025  11.929  19.163  0.00  0.00    +0.000 C 
ATOM     13  C   UNL     1      -0.636  11.790  19.789  0.00  0.00    +0.000 C 
ATOM     14  C   UNL     1      -0.926  11.718  21.281  0.00  0.00    +0.000 C 
ATOM     15  N   UNL     1      -2.115  12.492  21.434  0.00  0.00    +0.000 N 
ATOM     16  H   UNL     1      -2.565  12.712  22.318  0.00  0.00    +0.000 HD
ENDBRANCH   1  13
BRANCH   6  17
ATOM     17  C   UNL     1       3.372   6.286  18.014  0.00  0.00    +0.000 A 
ATOM     18  C   UNL     1       4.271   6.899  17.136  0.00  0.00    +0.000 A 
ATOM     19  C   UNL     1       5.153   6.134  16.371  0.00  0.00    +0.000 A 
ATOM     20  C   UNL     1       5.074   4.741  16.397  0.00  0.00    +0.000 A 
ATOM     21  C   UNL     1       4.113   4.088  17.180  0.00  0.00    +0.000 A 
ATOM     22  C   UNL     1       3.288   4.886  17.992  0.00  0.00    +0.000 A 
BRANCH  21  23
ATOM     23  C   UNL     1       3.919   2.596  17.128  0.00  0.00    +0.000 C 
ATOM     24  C   UNL     1       3.822   1.773  18.387  0.00  0.00    +0.000 C 
ATOM     25  C   UNL     1       2.597   2.000  17.555  0.00  0.00    +0.000 C 
ENDBRANCH  21  23
ENDBRANCH   6  17
BRANCH   7  26
ATOM     26  C   UNL     1       1.691   5.235  20.558  0.00  0.00    +0.000 A 
ATOM     27  C   UNL     1       2.607   4.667  21.450  0.00  0.00    +0.000 A 
ATOM     28  C   UNL     1       2.546   3.299  21.730  0.00  0.00    +0.000 A 
ATOM     29  C   UNL     1       1.565   2.498  21.139  0.00  0.00    +0.000 A 
ATOM     30  C   UNL     1       0.595   3.079  20.331  0.00  0.00    +0.000 A 
ATOM     31  C   UNL     1       0.634   4.450  20.075  0.00  0.00    +0.000 A 
ENDBRANCH   7  26
TORSDOF 4
ENDMDL
MODEL 9
REMARK VINA RESULT:      -8.7      3.349      8.657
REMARK  Name = 
REMARK  4 active torsions:
REMARK  status: ('A' for Active; 'I' for Inactive)
REMARK    1  A    between atoms: C_4  and  C_5
REMARK    2  A    between atoms: C_10  and  C_11
REMARK    3  A    between atoms: C_15  and  C_16
REMARK    4  A    between atoms: N_20  and  C_21
REMARK                            x       y       z     vdW  Elec       q    Type
REMARK                         _______ _______ _______ _____ _____    ______ ____
ROOT
ATOM      1  C   UNL     1       3.534   6.428  17.811  0.00  0.00    +0.000 C 
ATOM      2  O   UNL     1       2.959   5.842  18.721  0.00  0.00    +0.000 OA
ATOM      3  N   UNL     1       3.278   7.735  17.431  0.00  0.00    +0.000 N 
ATOM      4  C   UNL     1       2.304   8.474  18.077  0.00  0.00    +0.000 A 
ATOM      5  C   UNL     1       1.998   8.453  19.446  0.00  0.00    +0.000 A 
ATOM      6  C   UNL     1       0.896   9.270  19.620  0.00  0.00    +0.000 A 
ATOM      7  N   UNL     1       0.535   9.641  18.318  0.00  0.00    +0.000 N 
ATOM      8  N   UNL     1       1.541   9.352  17.427  0.00  0.00    +0.000 NA
ATOM      9  H   UNL     1       3.465   8.036  16.484  0.00  0.00    +0.000 HD
ENDROOT
BRANCH   1  13
ATOM     10  O   UNL     1       7.909   4.469  17.298  0.00  0.00    +0.000 OA
ATOM     11  C   UNL     1       6.718   4.678  17.198  0.00  0.00    +0.000 C 
ATOM     12  C   UNL     1       6.006   5.981  17.471  0.00  0.00    +0.000 C 
ATOM     13  C   UNL     1       4.585   5.724  16.965  0.00  0.00    +0.000 C 
ATOM     14  C   UNL     1       4.447   4.211  17.050  0.00  0.00    +0.000 C 
ATOM     15  N   UNL     1       5.777   3.737  16.842  0.00  0.00    +0.000 N 
ATOM     16  H   UNL     1       6.051   2.761  16.772  0.00  0.00    +0.000 HD
ENDBRANCH   1  13
BRANCH   6  17
ATOM     17  C   UNL     1       0.232   9.619  20.889  0.00  0.00    +0.000 A 
ATOM     18  C   UNL     1      -0.153   8.666  21.836  0.00  0.00    +0.000 A 
ATOM     19  C   UNL     1      -0.648   9.058  23.081  0.00  0.00    +0.000 A 
ATOM     20  C   UNL     1      -0.862  10.410  23.354  0.00  0.00    +0.000 A 
ATOM     21  C   UNL     1      -0.593  11.391  22.391  0.00  0.00    +0.000 A 
ATOM     22  C   UNL     1      -0.029  10.967  21.174  0.00  0.00    +0.000 A 
BRANCH  21  23
ATOM     23  C   UNL     1      -0.936  12.841  22.609  0.00  0.00    +0.000 C 
ATOM     24  C   UNL     1      -0.980  13.818  21.462  0.00  0.00    +0.000 C 
ATOM     25  C   UNL     1      -2.257  13.378  22.109  0.00  0.00    +0.000 C 
ENDBRANCH  21  23
ENDBRANCH   6  17
BRANCH   7  26
ATOM     26  C   UNL     1      -0.672  10.255  17.860  0.00  0.00    +0.000 A 
ATOM     27  C   UNL     1      -0.997  11.549  18.283  0.00  0.00    +0.000 A 
ATOM     28  C   UNL     1      -2.263  12.072  18.008  0.00  0.00    +0.000 A 
ATOM     29  C   UNL     1      -3.202  11.319  17.296  0.00  0.00    +0.000 A 
ATOM     30  C   UNL     1      -2.847  10.074  16.790  0.00  0.00    +0.000 A 
ATOM     31  C   UNL     1      -1.572   9.563  17.036  0.00  0.00    +0.000 A 
ENDBRANCH   7  26
TORSDOF 4
ENDMDL
