MODEL 1
REMARK VINA RESULT:      -7.8      0.000      0.000
REMARK  Name = 
REMARK  12 active torsions:
REMARK  status: ('A' for Active; 'I' for Inactive)
REMARK    1  A    between atoms: C_1  and  C_2
REMARK    2  A    between atoms: C_2  and  N_3
REMARK    3  A    between atoms: N_3  and  C_4
REMARK    4  A    between atoms: C_4  and  C_5
REMARK    5  A    between atoms: C_6  and  C_8
REMARK    6  A    between atoms: C_8  and  C_9
REMARK    7  A    between atoms: C_8  and  N_15
REMARK    8  A    between atoms: N_18  and  C_19
REMARK    9  A    between atoms: C_22  and  C_23
REMARK   10  A    between atoms: C_26  and  C_27
REMARK   11  A    between atoms: C_27  and  C_28
REMARK   12  A    between atoms: C_27  and  C_29
REMARK                            x       y       z     vdW  Elec       q    Type
REMARK                         _______ _______ _______ _____ _____    ______ ____
ROOT
ATOM      1  N   UNL     1      -1.312  12.096  21.605  0.00  0.00    +0.000 NA
ATOM      2  C   UNL     1      -1.434  11.751  20.176  0.00  0.00    +0.000 C 
ATOM      3  C   UNL     1      -0.166  11.262  19.453  0.00  0.00    +0.000 C 
ATOM      4  N   UNL     1       0.521  10.247  20.260  0.00  0.00    +0.000 N 
ATOM      5  C   UNL     1       0.721  10.555  21.680  0.00  0.00    +0.000 C 
ATOM      6  C   UNL     1      -0.608  11.016  22.314  0.00  0.00    +0.000 C 
ENDROOT
BRANCH   4   7
ATOM      7  C   UNL     1       1.154   9.197  19.622  0.00  0.00    +0.000 A 
ATOM      8  C   UNL     1       1.524   9.324  18.278  0.00  0.00    +0.000 A 
ATOM      9  C   UNL     1       2.301   8.356  17.643  0.00  0.00    +0.000 A 
ATOM     10  C   UNL     1       2.727   7.219  18.338  0.00  0.00    +0.000 A 
ATOM     11  C   UNL     1       2.334   7.049  19.667  0.00  0.00    +0.000 A 
ATOM     12  C   UNL     1       1.554   8.015  20.284  0.00  0.00    +0.000 A 
ATOM     13  F   UNL     1       1.191   7.777  21.556  0.00  0.00    +0.000 F 
BRANCH  10  14
ATOM     14  C   UNL     1       3.570   6.232  17.692  0.00  0.00    +0.000 A 
ATOM     15  N   UNL     1       3.265   4.926  17.605  0.00  0.00    +0.000 NA
ATOM     16  O   UNL     1       4.347   4.379  16.926  0.00  0.00    +0.000 OA
ATOM     17  C   UNL     1       5.198   5.409  16.669  0.00  0.00    +0.000 A 
ATOM     18  N   UNL     1       4.768   6.567  17.109  0.00  0.00    +0.000 NA
BRANCH  17  19
ATOM     19  C   UNL     1       6.469   5.077  15.984  0.00  0.00    +0.000 C 
ATOM     20  C   UNL     1       7.481   4.524  16.983  0.00  0.00    +0.000 C 
ATOM     21  C   UNL     1       6.199   4.080  14.859  0.00  0.00    +0.000 C 
ENDBRANCH  17  19
ENDBRANCH  10  14
ENDBRANCH   4   7
BRANCH   1  22
ATOM     22  C   UNL     1      -0.850  13.481  21.910  0.00  0.00    +0.000 C 
BRANCH  22  23
ATOM     23  C   UNL     1      -1.523  14.076  23.163  0.00  0.00    +0.000 A 
ATOM     24  C   UNL     1      -0.898  15.063  23.946  0.00  0.00    +0.000 A 
ATOM     25  C   UNL     1      -1.494  15.534  25.116  0.00  0.00    +0.000 A 
ATOM     26  C   UNL     1      -2.746  15.063  25.500  0.00  0.00    +0.000 A 
ATOM     27  C   UNL     1      -3.407  14.129  24.711  0.00  0.00    +0.000 A 
ATOM     28  C   UNL     1      -2.807  13.650  23.548  0.00  0.00    +0.000 A 
ENDBRANCH  22  23
BRANCH  22  30
ATOM     29  N   UNL     1       0.187  14.928  20.046  0.00  0.00    +0.000 N 
ATOM     30  C   UNL     1      -0.973  14.478  20.701  0.00  0.00    +0.000 C 
ATOM     31  O   UNL     1      -2.076  14.923  20.362  0.00  0.00    +0.000 OA
BRANCH  29  33
ATOM     32  C   UNL     1       1.012  16.982  18.877  0.00  0.00    +0.000 C 
ATOM     33  C   UNL     1      -0.017  15.858  18.925  0.00  0.00    +0.000 C 
ENDBRANCH  29  33
BRANCH  29  34
ATOM     34  C   UNL     1       1.534  14.624  20.536  0.00  0.00    +0.000 C 
ATOM     35  C   UNL     1       2.379  13.639  19.743  0.00  0.00    +0.000 C 
ENDBRANCH  29  34
ENDBRANCH  22  30
ENDBRANCH   1  22
TORSDOF 8
ENDMDL
MODEL 2
REMARK VINA RESULT:      -7.6      0.570      1.051
REMARK  Name = 
REMARK  12 active torsions:
REMARK  status: ('A' for Active; 'I' for Inactive)
REMARK    1  A    between atoms: C_1  and  C_2
REMARK    2  A    between atoms: C_2  and  N_3
REMARK    3  A    between atoms: N_3  and  C_4
REMARK    4  A    between atoms: C_4  and  C_5
REMARK    5  A    between atoms: C_6  and  C_8
REMARK    6  A    between atoms: C_8  and  C_9
REMARK    7  A    between atoms: C_8  and  N_15
REMARK    8  A    between atoms: N_18  and  C_19
REMARK    9  A    between atoms: C_22  and  C_23
REMARK   10  A    between atoms: C_26  and  C_27
REMARK   11  A    between atoms: C_27  and  C_28
REMARK   12  A    between atoms: C_27  and  C_29
REMARK                            x       y       z     vdW  Elec       q    Type
REMARK                         _______ _______ _______ _____ _____    ______ ____
ROOT
ATOM      1  N   UNL     1      -1.265  12.239  21.533  0.00  0.00    +0.000 NA
ATOM      2  C   UNL     1      -1.163  12.061  20.072  0.00  0.00    +0.000 C 
ATOM      3  C   UNL     1       0.152  11.483  19.518  0.00  0.00    +0.000 C 
ATOM      4  N   UNL     1       0.559  10.308  20.297  0.00  0.00    +0.000 N 
ATOM      5  C   UNL     1       0.530  10.439  21.758  0.00  0.00    +0.000 C 
ATOM      6  C   UNL     1      -0.831  11.008  22.211  0.00  0.00    +0.000 C 
ENDROOT
BRANCH   4   7
ATOM      7  C   UNL     1       1.174   9.253  19.649  0.00  0.00    +0.000 A 
ATOM      8  C   UNL     1       1.550   9.388  18.307  0.00  0.00    +0.000 A 
ATOM      9  C   UNL     1       2.311   8.411  17.664  0.00  0.00    +0.000 A 
ATOM     10  C   UNL     1       2.712   7.259  18.348  0.00  0.00    +0.000 A 
ATOM     11  C   UNL     1       2.313   7.082  19.673  0.00  0.00    +0.000 A 
ATOM     12  C   UNL     1       1.550   8.057  20.299  0.00  0.00    +0.000 A 
ATOM     13  F   UNL     1       1.178   7.811  21.568  0.00  0.00    +0.000 F 
BRANCH  10  14
ATOM     14  C   UNL     1       3.538   6.263  17.693  0.00  0.00    +0.000 A 
ATOM     15  N   UNL     1       3.295   4.943  17.733  0.00  0.00    +0.000 NA
ATOM     16  O   UNL     1       4.333   4.393  16.990  0.00  0.00    +0.000 OA
ATOM     17  C   UNL     1       5.099   5.436  16.573  0.00  0.00    +0.000 A 
ATOM     18  N   UNL     1       4.655   6.605  16.968  0.00  0.00    +0.000 NA
BRANCH  17  19
ATOM     19  C   UNL     1       6.312   5.110  15.788  0.00  0.00    +0.000 C 
ATOM     20  C   UNL     1       7.395   4.540  16.700  0.00  0.00    +0.000 C 
ATOM     21  C   UNL     1       5.953   4.127  14.675  0.00  0.00    +0.000 C 
ENDBRANCH  17  19
ENDBRANCH  10  14
ENDBRANCH   4   7
BRANCH   1  22
ATOM     22  C   UNL     1      -0.712  13.511  22.082  0.00  0.00    +0.000 C 
BRANCH  22  23
ATOM     23  C   UNL     1      -1.509  14.041  23.289  0.00  0.00    +0.000 A 
ATOM     24  C   UNL     1      -2.830  13.634  23.547  0.00  0.00    +0.000 A 
ATOM     25  C   UNL     1      -3.557  14.182  24.604  0.00  0.00    +0.000 A 
ATOM     26  C   UNL     1      -2.962  15.112  25.452  0.00  0.00    +0.000 A 
ATOM     27  C   UNL     1      -1.638  15.486  25.250  0.00  0.00    +0.000 A 
ATOM     28  C   UNL     1      -0.916  14.946  24.188  0.00  0.00    +0.000 A 
ENDBRANCH  22  23
BRANCH  22  30
ATOM     29  N   UNL     1       0.762  15.009  20.589  0.00  0.00    +0.000 N 
ATOM     30  C   UNL     1      -0.530  14.646  21.009  0.00  0.00    +0.000 C 
ATOM     31  O   UNL     1      -1.508  15.268  20.579  0.00  0.00    +0.000 OA
BRANCH  29  33
ATOM     32  C   UNL     1       1.922  15.837  18.532  0.00  0.00    +0.000 C 
ATOM     33  C   UNL     1       0.843  16.078  19.582  0.00  0.00    +0.000 C 
ENDBRANCH  29  33
BRANCH  29  34
ATOM     34  C   UNL     1       1.973  14.476  21.220  0.00  0.00    +0.000 C 
ATOM     35  C   UNL     1       2.783  15.403  22.113  0.00  0.00    +0.000 C 
ENDBRANCH  29  34
ENDBRANCH  22  30
ENDBRANCH   1  22
TORSDOF 8
ENDMDL
MODEL 3
REMARK VINA RESULT:      -7.4      1.482      3.693
REMARK  Name = 
REMARK  12 active torsions:
REMARK  status: ('A' for Active; 'I' for Inactive)
REMARK    1  A    between atoms: C_1  and  C_2
REMARK    2  A    between atoms: C_2  and  N_3
REMARK    3  A    between atoms: N_3  and  C_4
REMARK    4  A    between atoms: C_4  and  C_5
REMARK    5  A    between atoms: C_6  and  C_8
REMARK    6  A    between atoms: C_8  and  C_9
REMARK    7  A    between atoms: C_8  and  N_15
REMARK    8  A    between atoms: N_18  and  C_19
REMARK    9  A    between atoms: C_22  and  C_23
REMARK   10  A    between atoms: C_26  and  C_27
REMARK   11  A    between atoms: C_27  and  C_28
REMARK   12  A    between atoms: C_27  and  C_29
REMARK                            x       y       z     vdW  Elec       q    Type
REMARK                         _______ _______ _______ _____ _____    ______ ____
ROOT
ATOM      1  N   UNL     1       0.192  12.393  21.795  0.00  0.00    +0.000 NA
ATOM      2  C   UNL     1      -0.122  11.012  22.206  0.00  0.00    +0.000 C 
ATOM      3  C   UNL     1      -0.244   9.952  21.096  0.00  0.00    +0.000 C 
ATOM      4  N   UNL     1       0.883  10.060  20.163  0.00  0.00    +0.000 N 
ATOM      5  C   UNL     1       1.212  11.404  19.675  0.00  0.00    +0.000 C 
ATOM      6  C   UNL     1       1.330  12.383  20.862  0.00  0.00    +0.000 C 
ENDROOT
BRANCH   4   7
ATOM      7  C   UNL     1       1.405   8.909  19.603  0.00  0.00    +0.000 A 
ATOM      8  C   UNL     1       1.800   8.908  18.260  0.00  0.00    +0.000 A 
ATOM      9  C   UNL     1       2.474   7.823  17.701  0.00  0.00    +0.000 A 
ATOM     10  C   UNL     1       2.767   6.694  18.474  0.00  0.00    +0.000 A 
ATOM     11  C   UNL     1       2.345   6.653  19.804  0.00  0.00    +0.000 A 
ATOM     12  C   UNL     1       1.668   7.736  20.345  0.00  0.00    +0.000 A 
ATOM     13  F   UNL     1       1.269   7.621  21.624  0.00  0.00    +0.000 F 
BRANCH  10  14
ATOM     14  C   UNL     1       3.504   5.583  17.906  0.00  0.00    +0.000 A 
ATOM     15  N   UNL     1       3.357   4.306  18.297  0.00  0.00    +0.000 NA
ATOM     16  O   UNL     1       4.256   3.609  17.498  0.00  0.00    +0.000 OA
ATOM     17  C   UNL     1       4.856   4.534  16.702  0.00  0.00    +0.000 A 
ATOM     18  N   UNL     1       4.429   5.758  16.904  0.00  0.00    +0.000 NA
BRANCH  17  19
ATOM     19  C   UNL     1       5.905   4.047  15.776  0.00  0.00    +0.000 C 
ATOM     20  C   UNL     1       5.534   4.383  14.334  0.00  0.00    +0.000 C 
ATOM     21  C   UNL     1       7.251   4.659  16.158  0.00  0.00    +0.000 C 
ENDBRANCH  17  19
ENDBRANCH  10  14
ENDBRANCH   4   7
BRANCH   1  22
ATOM     22  C   UNL     1      -0.967  13.241  21.395  0.00  0.00    +0.000 C 
BRANCH  22  23
ATOM     23  C   UNL     1      -0.544  14.545  20.690  0.00  0.00    +0.000 A 
ATOM     24  C   UNL     1      -0.675  14.717  19.300  0.00  0.00    +0.000 A 
ATOM     25  C   UNL     1      -0.218  15.877  18.675  0.00  0.00    +0.000 A 
ATOM     26  C   UNL     1       0.335  16.907  19.432  0.00  0.00    +0.000 A 
ATOM     27  C   UNL     1       0.422  16.781  20.814  0.00  0.00    +0.000 A 
ATOM     28  C   UNL     1      -0.025  15.618  21.437  0.00  0.00    +0.000 A 
ENDBRANCH  22  23
BRANCH  22  30
ATOM     29  N   UNL     1      -3.342  13.320  22.396  0.00  0.00    +0.000 N 
ATOM     30  C   UNL     1      -1.966  13.556  22.568  0.00  0.00    +0.000 C 
ATOM     31  O   UNL     1      -1.562  14.070  23.617  0.00  0.00    +0.000 OA
BRANCH  29  33
ATOM     32  C   UNL     1      -4.355  12.484  24.527  0.00  0.00    +0.000 C 
ATOM     33  C   UNL     1      -4.205  13.640  23.543  0.00  0.00    +0.000 C 
ENDBRANCH  29  33
BRANCH  29  34
ATOM     34  C   UNL     1      -3.917  12.928  21.106  0.00  0.00    +0.000 C 
ATOM     35  C   UNL     1      -5.302  13.448  20.753  0.00  0.00    +0.000 C 
ENDBRANCH  29  34
ENDBRANCH  22  30
ENDBRANCH   1  22
TORSDOF 8
ENDMDL
MODEL 4
REMARK VINA RESULT:      -7.3      1.465      3.488
REMARK  Name = 
REMARK  12 active torsions:
REMARK  status: ('A' for Active; 'I' for Inactive)
REMARK    1  A    between atoms: C_1  and  C_2
REMARK    2  A    between atoms: C_2  and  N_3
REMARK    3  A    between atoms: N_3  and  C_4
REMARK    4  A    between atoms: C_4  and  C_5
REMARK    5  A    between atoms: C_6  and  C_8
REMARK    6  A    between atoms: C_8  and  C_9
REMARK    7  A    between atoms: C_8  and  N_15
REMARK    8  A    between atoms: N_18  and  C_19
REMARK    9  A    between atoms: C_22  and  C_23
REMARK   10  A    between atoms: C_26  and  C_27
REMARK   11  A    between atoms: C_27  and  C_28
REMARK   12  A    between atoms: C_27  and  C_29
REMARK                            x       y       z     vdW  Elec       q    Type
REMARK                         _______ _______ _______ _____ _____    ______ ____
ROOT
ATOM      1  N   UNL     1       0.230  12.513  21.713  0.00  0.00    +0.000 NA
ATOM      2  C   UNL     1      -0.141  11.139  22.102  0.00  0.00    +0.000 C 
ATOM      3  C   UNL     1      -0.259  10.092  20.980  0.00  0.00    +0.000 C 
ATOM      4  N   UNL     1       0.902  10.171  20.086  0.00  0.00    +0.000 N 
ATOM      5  C   UNL     1       1.289  11.507  19.621  0.00  0.00    +0.000 C 
ATOM      6  C   UNL     1       1.398  12.474  20.819  0.00  0.00    +0.000 C 
ENDROOT
BRANCH   4   7
ATOM      7  C   UNL     1       1.406   9.008  19.534  0.00  0.00    +0.000 A 
ATOM      8  C   UNL     1       1.831   9.001  18.200  0.00  0.00    +0.000 A 
ATOM      9  C   UNL     1       2.488   7.900  17.653  0.00  0.00    +0.000 A 
ATOM     10  C   UNL     1       2.734   6.762  18.428  0.00  0.00    +0.000 A 
ATOM     11  C   UNL     1       2.282   6.728  19.748  0.00  0.00    +0.000 A 
ATOM     12  C   UNL     1       1.622   7.827  20.278  0.00  0.00    +0.000 A 
ATOM     13  F   UNL     1       1.191   7.719  21.547  0.00  0.00    +0.000 F 
BRANCH  10  14
ATOM     14  C   UNL     1       3.455   5.633  17.873  0.00  0.00    +0.000 A 
ATOM     15  N   UNL     1       3.244   4.356  18.235  0.00  0.00    +0.000 NA
ATOM     16  O   UNL     1       4.151   3.639  17.463  0.00  0.00    +0.000 OA
ATOM     17  C   UNL     1       4.819   4.554  16.710  0.00  0.00    +0.000 A 
ATOM     18  N   UNL     1       4.428   5.789  16.915  0.00  0.00    +0.000 NA
BRANCH  17  19
ATOM     19  C   UNL     1       5.888   4.043  15.821  0.00  0.00    +0.000 C 
ATOM     20  C   UNL     1       5.573   4.380  14.367  0.00  0.00    +0.000 C 
ATOM     21  C   UNL     1       7.233   4.631  16.247  0.00  0.00    +0.000 C 
ENDBRANCH  17  19
ENDBRANCH  10  14
ENDBRANCH   4   7
BRANCH   1  22
ATOM     22  C   UNL     1      -0.888  13.400  21.282  0.00  0.00    +0.000 C 
BRANCH  22  23
ATOM     23  C   UNL     1      -0.400  14.685  20.584  0.00  0.00    +0.000 A 
ATOM     24  C   UNL     1       0.211  15.733  21.295  0.00  0.00    +0.000 A 
ATOM     25  C   UNL     1       0.578  16.916  20.653  0.00  0.00    +0.000 A 
ATOM     26  C   UNL     1       0.385  17.055  19.281  0.00  0.00    +0.000 A 
ATOM     27  C   UNL     1      -0.166  16.010  18.549  0.00  0.00    +0.000 A 
ATOM     28  C   UNL     1      -0.542  14.832  19.192  0.00  0.00    +0.000 A 
ENDBRANCH  22  23
BRANCH  22  30
ATOM     29  N   UNL     1      -3.263  13.940  22.125  0.00  0.00    +0.000 N 
ATOM     30  C   UNL     1      -1.903  13.755  22.429  0.00  0.00    +0.000 C 
ATOM     31  O   UNL     1      -1.506  13.939  23.586  0.00  0.00    +0.000 OA
BRANCH  29  33
ATOM     32  C   UNL     1      -5.327  15.147  22.865  0.00  0.00    +0.000 C 
ATOM     33  C   UNL     1      -4.145  14.268  23.256  0.00  0.00    +0.000 C 
ENDBRANCH  29  33
BRANCH  29  34
ATOM     34  C   UNL     1      -3.765  13.963  20.749  0.00  0.00    +0.000 C 
ATOM     35  C   UNL     1      -4.392  12.694  20.193  0.00  0.00    +0.000 C 
ENDBRANCH  29  34
ENDBRANCH  22  30
ENDBRANCH   1  22
TORSDOF 8
ENDMDL
MODEL 5
REMARK VINA RESULT:      -7.2      3.349     11.139
REMARK  Name = 
REMARK  12 active torsions:
REMARK  status: ('A' for Active; 'I' for Inactive)
REMARK    1  A    between atoms: C_1  and  C_2
REMARK    2  A    between atoms: C_2  and  N_3
REMARK    3  A    between atoms: N_3  and  C_4
REMARK    4  A    between atoms: C_4  and  C_5
REMARK    5  A    between atoms: C_6  and  C_8
REMARK    6  A    between atoms: C_8  and  C_9
REMARK    7  A    between atoms: C_8  and  N_15
REMARK    8  A    between atoms: N_18  and  C_19
REMARK    9  A    between atoms: C_22  and  C_23
REMARK   10  A    between atoms: C_26  and  C_27
REMARK   11  A    between atoms: C_27  and  C_28
REMARK   12  A    between atoms: C_27  and  C_29
REMARK                            x       y       z     vdW  Elec       q    Type
REMARK                         _______ _______ _______ _____ _____    ______ ____
ROOT
ATOM      1  N   UNL     1       5.153   5.457  18.503  0.00  0.00    +0.000 NA
ATOM      2  C   UNL     1       5.062   6.718  17.742  0.00  0.00    +0.000 C 
ATOM      3  C   UNL     1       3.655   7.269  17.448  0.00  0.00    +0.000 C 
ATOM      4  N   UNL     1       2.833   7.241  18.663  0.00  0.00    +0.000 N 
ATOM      5  C   UNL     1       2.840   5.994  19.437  0.00  0.00    +0.000 C 
ATOM      6  C   UNL     1       4.291   5.537  19.693  0.00  0.00    +0.000 C 
ENDROOT
BRANCH   4   7
ATOM      7  C   UNL     1       1.923   8.257  18.882  0.00  0.00    +0.000 A 
ATOM      8  C   UNL     1       1.421   8.984  17.796  0.00  0.00    +0.000 A 
ATOM      9  C   UNL     1       0.387   9.907  17.955  0.00  0.00    +0.000 A 
ATOM     10  C   UNL     1      -0.172  10.137  19.216  0.00  0.00    +0.000 A 
ATOM     11  C   UNL     1       0.341   9.456  20.321  0.00  0.00    +0.000 A 
ATOM     12  C   UNL     1       1.375   8.547  20.151  0.00  0.00    +0.000 A 
ATOM     13  F   UNL     1       1.838   7.944  21.260  0.00  0.00    +0.000 F 
BRANCH  10  14
ATOM     14  C   UNL     1      -1.275  11.065  19.376  0.00  0.00    +0.000 A 
ATOM     15  N   UNL     1      -1.239  12.142  20.179  0.00  0.00    +0.000 NA
ATOM     16  O   UNL     1      -2.495  12.714  20.020  0.00  0.00    +0.000 OA
ATOM     17  C   UNL     1      -3.165  11.927  19.136  0.00  0.00    +0.000 A 
ATOM     18  N   UNL     1      -2.463  10.908  18.704  0.00  0.00    +0.000 NA
BRANCH  17  19
ATOM     19  C   UNL     1      -4.565  12.302  18.827  0.00  0.00    +0.000 C 
ATOM     20  C   UNL     1      -5.175  11.305  17.846  0.00  0.00    +0.000 C 
ATOM     21  C   UNL     1      -5.374  12.370  20.121  0.00  0.00    +0.000 C 
ENDBRANCH  17  19
ENDBRANCH  10  14
ENDBRANCH   4   7
BRANCH   1  22
ATOM     22  C   UNL     1       5.048   4.200  17.709  0.00  0.00    +0.000 C 
BRANCH  22  23
ATOM     23  C   UNL     1       5.647   4.329  16.295  0.00  0.00    +0.000 A 
ATOM     24  C   UNL     1       4.914   3.995  15.142  0.00  0.00    +0.000 A 
ATOM     25  C   UNL     1       5.502   4.051  13.878  0.00  0.00    +0.000 A 
ATOM     26  C   UNL     1       6.816   4.488  13.737  0.00  0.00    +0.000 A 
ATOM     27  C   UNL     1       7.541   4.877  14.858  0.00  0.00    +0.000 A 
ATOM     28  C   UNL     1       6.958   4.811  16.122  0.00  0.00    +0.000 A 
ENDBRANCH  22  23
BRANCH  22  30
ATOM     29  N   UNL     1       3.242   2.507  18.429  0.00  0.00    +0.000 N 
ATOM     30  C   UNL     1       3.592   3.611  17.632  0.00  0.00    +0.000 C 
ATOM     31  O   UNL     1       2.771   4.067  16.828  0.00  0.00    +0.000 OA
BRANCH  29  33
ATOM     32  C   UNL     1       0.897   2.659  19.290  0.00  0.00    +0.000 C 
ATOM     33  C   UNL     1       1.860   2.020  18.296  0.00  0.00    +0.000 C 
ENDBRANCH  29  33
BRANCH  29  34
ATOM     34  C   UNL     1       4.225   1.774  19.232  0.00  0.00    +0.000 C 
ATOM     35  C   UNL     1       4.286   2.059  20.724  0.00  0.00    +0.000 C 
ENDBRANCH  29  34
ENDBRANCH  22  30
ENDBRANCH   1  22
TORSDOF 8
ENDMDL
MODEL 6
REMARK VINA RESULT:      -7.2      0.605      1.173
REMARK  Name = 
REMARK  12 active torsions:
REMARK  status: ('A' for Active; 'I' for Inactive)
REMARK    1  A    between atoms: C_1  and  C_2
REMARK    2  A    between atoms: C_2  and  N_3
REMARK    3  A    between atoms: N_3  and  C_4
REMARK    4  A    between atoms: C_4  and  C_5
REMARK    5  A    between atoms: C_6  and  C_8
REMARK    6  A    between atoms: C_8  and  C_9
REMARK    7  A    between atoms: C_8  and  N_15
REMARK    8  A    between atoms: N_18  and  C_19
REMARK    9  A    between atoms: C_22  and  C_23
REMARK   10  A    between atoms: C_26  and  C_27
REMARK   11  A    between atoms: C_27  and  C_28
REMARK   12  A    between atoms: C_27  and  C_29
REMARK                            x       y       z     vdW  Elec       q    Type
REMARK                         _______ _______ _______ _____ _____    ______ ____
ROOT
ATOM      1  N   UNL     1      -1.145  12.433  21.139  0.00  0.00    +0.000 NA
ATOM      2  C   UNL     1      -1.005  12.095  19.710  0.00  0.00    +0.000 C 
ATOM      3  C   UNL     1       0.292  11.392  19.271  0.00  0.00    +0.000 C 
ATOM      4  N   UNL     1       0.605  10.286  20.183  0.00  0.00    +0.000 N 
ATOM      5  C   UNL     1       0.535  10.573  21.620  0.00  0.00    +0.000 C 
ATOM      6  C   UNL     1      -0.806  11.259  21.958  0.00  0.00    +0.000 C 
ENDROOT
BRANCH   4   7
ATOM      7  C   UNL     1       1.179   9.137  19.673  0.00  0.00    +0.000 A 
ATOM      8  C   UNL     1       1.595   9.104  18.337  0.00  0.00    +0.000 A 
ATOM      9  C   UNL     1       2.319   8.026  17.827  0.00  0.00    +0.000 A 
ATOM     10  C   UNL     1       2.643   6.938  18.645  0.00  0.00    +0.000 A 
ATOM     11  C   UNL     1       2.201   6.928  19.969  0.00  0.00    +0.000 A 
ATOM     12  C   UNL     1       1.475   8.003  20.461  0.00  0.00    +0.000 A 
ATOM     13  F   UNL     1       1.060   7.918  21.737  0.00  0.00    +0.000 F 
BRANCH  10  14
ATOM     14  C   UNL     1       3.431   5.836  18.128  0.00  0.00    +0.000 A 
ATOM     15  N   UNL     1       3.331   4.571  18.567  0.00  0.00    +0.000 NA
ATOM     16  O   UNL     1       4.266   3.881  17.805  0.00  0.00    +0.000 OA
ATOM     17  C   UNL     1       4.839   4.799  16.980  0.00  0.00    +0.000 A 
ATOM     18  N   UNL     1       4.360   6.010  17.130  0.00  0.00    +0.000 NA
BRANCH  17  19
ATOM     19  C   UNL     1       5.917   4.319  16.084  0.00  0.00    +0.000 C 
ATOM     20  C   UNL     1       5.749   4.916  14.689  0.00  0.00    +0.000 C 
ATOM     21  C   UNL     1       7.276   4.679  16.681  0.00  0.00    +0.000 C 
ENDBRANCH  17  19
ENDBRANCH  10  14
ENDBRANCH   4   7
BRANCH   1  22
ATOM     22  C   UNL     1      -0.539  13.724  21.573  0.00  0.00    +0.000 C 
BRANCH  22  23
ATOM     23  C   UNL     1      -1.169  14.279  22.866  0.00  0.00    +0.000 A 
ATOM     24  C   UNL     1      -2.422  13.842  23.331  0.00  0.00    +0.000 A 
ATOM     25  C   UNL     1      -3.005  14.411  24.464  0.00  0.00    +0.000 A 
ATOM     26  C   UNL     1      -2.325  15.392  25.181  0.00  0.00    +0.000 A 
ATOM     27  C   UNL     1      -1.060  15.798  24.772  0.00  0.00    +0.000 A 
ATOM     28  C   UNL     1      -0.483  15.237  23.634  0.00  0.00    +0.000 A 
ENDBRANCH  22  23
BRANCH  22  30
ATOM     29  N   UNL     1       0.703  15.260  19.917  0.00  0.00    +0.000 N 
ATOM     30  C   UNL     1      -0.522  14.831  20.457  0.00  0.00    +0.000 C 
ATOM     31  O   UNL     1      -1.572  15.377  20.096  0.00  0.00    +0.000 OA
BRANCH  29  33
ATOM     32  C   UNL     1       1.304  17.604  19.279  0.00  0.00    +0.000 C 
ATOM     33  C   UNL     1       0.629  16.297  18.877  0.00  0.00    +0.000 C 
ENDBRANCH  29  33
BRANCH  29  34
ATOM     34  C   UNL     1       1.995  14.824  20.455  0.00  0.00    +0.000 C 
ATOM     35  C   UNL     1       2.870  13.936  19.585  0.00  0.00    +0.000 C 
ENDBRANCH  29  34
ENDBRANCH  22  30
ENDBRANCH   1  22
TORSDOF 8
ENDMDL
MODEL 7
REMARK VINA RESULT:      -7.2      1.776      2.981
REMARK  Name = 
REMARK  12 active torsions:
REMARK  status: ('A' for Active; 'I' for Inactive)
REMARK    1  A    between atoms: C_1  and  C_2
REMARK    2  A    between atoms: C_2  and  N_3
REMARK    3  A    between atoms: N_3  and  C_4
REMARK    4  A    between atoms: C_4  and  C_5
REMARK    5  A    between atoms: C_6  and  C_8
REMARK    6  A    between atoms: C_8  and  C_9
REMARK    7  A    between atoms: C_8  and  N_15
REMARK    8  A    between atoms: N_18  and  C_19
REMARK    9  A    between atoms: C_22  and  C_23
REMARK   10  A    between atoms: C_26  and  C_27
REMARK   11  A    between atoms: C_27  and  C_28
REMARK   12  A    between atoms: C_27  and  C_29
REMARK                            x       y       z     vdW  Elec       q    Type
REMARK                         _______ _______ _______ _____ _____    ______ ____
ROOT
ATOM      1  N   UNL     1      -0.391  12.359  21.175  0.00  0.00    +0.000 NA
ATOM      2  C   UNL     1      -0.847  10.973  21.392  0.00  0.00    +0.000 C 
ATOM      3  C   UNL     1      -0.637   9.969  20.244  0.00  0.00    +0.000 C 
ATOM      4  N   UNL     1       0.729  10.077  19.717  0.00  0.00    +0.000 N 
ATOM      5  C   UNL     1       1.222  11.428  19.430  0.00  0.00    +0.000 C 
ATOM      6  C   UNL     1       0.982  12.349  20.645  0.00  0.00    +0.000 C 
ENDROOT
BRANCH   4   7
ATOM      7  C   UNL     1       1.375   8.934  19.288  0.00  0.00    +0.000 A 
ATOM      8  C   UNL     1       1.824   8.847  17.964  0.00  0.00    +0.000 A 
ATOM      9  C   UNL     1       2.616   7.783  17.534  0.00  0.00    +0.000 A 
ATOM     10  C   UNL     1       2.979   6.763  18.421  0.00  0.00    +0.000 A 
ATOM     11  C   UNL     1       2.508   6.806  19.734  0.00  0.00    +0.000 A 
ATOM     12  C   UNL     1       1.714   7.865  20.147  0.00  0.00    +0.000 A 
ATOM     13  F   UNL     1       1.275   7.832  21.417  0.00  0.00    +0.000 F 
BRANCH  10  14
ATOM     14  C   UNL     1       3.837   5.678  17.986  0.00  0.00    +0.000 A 
ATOM     15  N   UNL     1       4.047   4.557  18.695  0.00  0.00    +0.000 NA
ATOM     16  O   UNL     1       4.928   3.827  17.906  0.00  0.00    +0.000 OA
ATOM     17  C   UNL     1       5.163   4.580  16.798  0.00  0.00    +0.000 A 
ATOM     18  N   UNL     1       4.515   5.720  16.790  0.00  0.00    +0.000 NA
BRANCH  17  19
ATOM     19  C   UNL     1       6.119   4.037  15.805  0.00  0.00    +0.000 C 
ATOM     20  C   UNL     1       5.553   4.177  14.394  0.00  0.00    +0.000 C 
ATOM     21  C   UNL     1       7.459   4.758  15.938  0.00  0.00    +0.000 C 
ENDBRANCH  17  19
ENDBRANCH  10  14
ENDBRANCH   4   7
BRANCH   1  22
ATOM     22  C   UNL     1      -1.348  13.266  20.478  0.00  0.00    +0.000 C 
BRANCH  22  23
ATOM     23  C   UNL     1      -1.469  14.646  21.154  0.00  0.00    +0.000 A 
ATOM     24  C   UNL     1      -1.290  14.816  22.539  0.00  0.00    +0.000 A 
ATOM     25  C   UNL     1      -1.476  16.061  23.139  0.00  0.00    +0.000 A 
ATOM     26  C   UNL     1      -1.796  17.170  22.360  0.00  0.00    +0.000 A 
ATOM     27  C   UNL     1      -1.922  17.037  20.982  0.00  0.00    +0.000 A 
ATOM     28  C   UNL     1      -1.746  15.790  20.384  0.00  0.00    +0.000 A 
ENDBRANCH  22  23
BRANCH  22  30
ATOM     29  N   UNL     1      -3.073  11.999  19.041  0.00  0.00    +0.000 N 
ATOM     30  C   UNL     1      -2.774  12.643  20.255  0.00  0.00    +0.000 C 
ATOM     31  O   UNL     1      -3.658  12.770  21.111  0.00  0.00    +0.000 OA
BRANCH  29  33
ATOM     32  C   UNL     1      -5.372  12.328  18.108  0.00  0.00    +0.000 C 
ATOM     33  C   UNL     1      -4.429  11.443  18.915  0.00  0.00    +0.000 C 
ENDBRANCH  29  33
BRANCH  29  34
ATOM     34  C   UNL     1      -2.155  12.010  17.899  0.00  0.00    +0.000 C 
ATOM     35  C   UNL     1      -2.182  10.824  16.947  0.00  0.00    +0.000 C 
ENDBRANCH  29  34
ENDBRANCH  22  30
ENDBRANCH   1  22
TORSDOF 8
ENDMDL
MODEL 8
REMARK VINA RESULT:      -7.2      2.319     11.144
REMARK  Name = 
REMARK  12 active torsions:
REMARK  status: ('A' for Active; 'I' for Inactive)
REMARK    1  A    between atoms: C_1  and  C_2
REMARK    2  A    between atoms: C_2  and  N_3
REMARK    3  A    between atoms: N_3  and  C_4
REMARK    4  A    between atoms: C_4  and  C_5
REMARK    5  A    between atoms: C_6  and  C_8
REMARK    6  A    between atoms: C_8  and  C_9
REMARK    7  A    between atoms: C_8  and  N_15
REMARK    8  A    between atoms: N_18  and  C_19
REMARK    9  A    between atoms: C_22  and  C_23
REMARK   10  A    between atoms: C_26  and  C_27
REMARK   11  A    between atoms: C_27  and  C_28
REMARK   12  A    between atoms: C_27  and  C_29
REMARK                            x       y       z     vdW  Elec       q    Type
REMARK                         _______ _______ _______ _____ _____    ______ ____
ROOT
ATOM      1  N   UNL     1       5.180   5.416  18.512  0.00  0.00    +0.000 NA
ATOM      2  C   UNL     1       5.072   6.675  17.750  0.00  0.00    +0.000 C 
ATOM      3  C   UNL     1       3.658   7.225  17.487  0.00  0.00    +0.000 C 
ATOM      4  N   UNL     1       2.864   7.199  18.720  0.00  0.00    +0.000 N 
ATOM      5  C   UNL     1       2.888   5.954  19.496  0.00  0.00    +0.000 C 
ATOM      6  C   UNL     1       4.346   5.498  19.721  0.00  0.00    +0.000 C 
ENDROOT
BRANCH   4   7
ATOM      7  C   UNL     1       1.958   8.215  18.958  0.00  0.00    +0.000 A 
ATOM      8  C   UNL     1       1.484   8.985  17.888  0.00  0.00    +0.000 A 
ATOM      9  C   UNL     1       0.456   9.912  18.060  0.00  0.00    +0.000 A 
ATOM     10  C   UNL     1      -0.126  10.102  19.317  0.00  0.00    +0.000 A 
ATOM     11  C   UNL     1       0.358   9.377  20.407  0.00  0.00    +0.000 A 
ATOM     12  C   UNL     1       1.387   8.465  20.225  0.00  0.00    +0.000 A 
ATOM     13  F   UNL     1       1.823   7.819  21.320  0.00  0.00    +0.000 F 
BRANCH  10  14
ATOM     14  C   UNL     1      -1.224  11.034  19.488  0.00  0.00    +0.000 A 
ATOM     15  N   UNL     1      -2.182  11.242  18.570  0.00  0.00    +0.000 NA
ATOM     16  O   UNL     1      -2.995  12.207  19.152  0.00  0.00    +0.000 OA
ATOM     17  C   UNL     1      -2.448  12.486  20.366  0.00  0.00    +0.000 A 
ATOM     18  N   UNL     1      -1.366  11.791  20.626  0.00  0.00    +0.000 NA
BRANCH  17  19
ATOM     19  C   UNL     1      -3.111  13.532  21.179  0.00  0.00    +0.000 C 
ATOM     20  C   UNL     1      -3.939  12.892  22.290  0.00  0.00    +0.000 C 
ATOM     21  C   UNL     1      -2.058  14.480  21.749  0.00  0.00    +0.000 C 
ENDBRANCH  17  19
ENDBRANCH  10  14
ENDBRANCH   4   7
BRANCH   1  22
ATOM     22  C   UNL     1       5.058   4.157  17.723  0.00  0.00    +0.000 C 
BRANCH  22  23
ATOM     23  C   UNL     1       5.687   4.262  16.320  0.00  0.00    +0.000 A 
ATOM     24  C   UNL     1       6.998   4.735  16.125  0.00  0.00    +0.000 A 
ATOM     25  C   UNL     1       7.520   4.891  14.841  0.00  0.00    +0.000 A 
ATOM     26  C   UNL     1       6.761   4.532  13.730  0.00  0.00    +0.000 A 
ATOM     27  C   UNL     1       5.485   4.009  13.903  0.00  0.00    +0.000 A 
ATOM     28  C   UNL     1       4.959   3.863  15.185  0.00  0.00    +0.000 A 
ENDBRANCH  22  23
BRANCH  22  30
ATOM     29  N   UNL     1       3.211   2.482  18.379  0.00  0.00    +0.000 N 
ATOM     30  C   UNL     1       3.590   3.605  17.621  0.00  0.00    +0.000 C 
ATOM     31  O   UNL     1       2.782   4.108  16.831  0.00  0.00    +0.000 OA
BRANCH  29  33
ATOM     32  C   UNL     1       0.877   2.617  19.273  0.00  0.00    +0.000 C 
ATOM     33  C   UNL     1       1.819   2.032  18.226  0.00  0.00    +0.000 C 
ENDBRANCH  29  33
BRANCH  29  34
ATOM     34  C   UNL     1       4.174   1.700  19.159  0.00  0.00    +0.000 C 
ATOM     35  C   UNL     1       4.349   2.041  20.631  0.00  0.00    +0.000 C 
ENDBRANCH  29  34
ENDBRANCH  22  30
ENDBRANCH   1  22
TORSDOF 8
ENDMDL
MODEL 9
REMARK VINA RESULT:      -7.1      1.674      3.400
REMARK  Name = 
REMARK  12 active torsions:
REMARK  status: ('A' for Active; 'I' for Inactive)
REMARK    1  A    between atoms: C_1  and  C_2
REMARK    2  A    between atoms: C_2  and  N_3
REMARK    3  A    between atoms: N_3  and  C_4
REMARK    4  A    between atoms: C_4  and  C_5
REMARK    5  A    between atoms: C_6  and  C_8
REMARK    6  A    between atoms: C_8  and  C_9
REMARK    7  A    between atoms: C_8  and  N_15
REMARK    8  A    between atoms: N_18  and  C_19
REMARK    9  A    between atoms: C_22  and  C_23
REMARK   10  A    between atoms: C_26  and  C_27
REMARK   11  A    between atoms: C_27  and  C_28
REMARK   12  A    between atoms: C_27  and  C_29
REMARK                            x       y       z     vdW  Elec       q    Type
REMARK                         _______ _______ _______ _____ _____    ______ ____
ROOT
ATOM      1  N   UNL     1      -0.253  12.820  21.967  0.00  0.00    +0.000 NA
ATOM      2  C   UNL     1      -0.532  11.408  22.292  0.00  0.00    +0.000 C 
ATOM      3  C   UNL     1      -0.582  10.408  21.123  0.00  0.00    +0.000 C 
ATOM      4  N   UNL     1       0.572  10.603  20.237  0.00  0.00    +0.000 N 
ATOM      5  C   UNL     1       0.870  11.982  19.834  0.00  0.00    +0.000 C 
ATOM      6  C   UNL     1       0.915  12.898  21.075  0.00  0.00    +0.000 C 
ENDROOT
BRANCH   4   7
ATOM      7  C   UNL     1       1.151   9.502  19.635  0.00  0.00    +0.000 A 
ATOM      8  C   UNL     1       1.462   9.542  18.270  0.00  0.00    +0.000 A 
ATOM      9  C   UNL     1       2.187   8.519  17.660  0.00  0.00    +0.000 A 
ATOM     10  C   UNL     1       2.618   7.414  18.402  0.00  0.00    +0.000 A 
ATOM     11  C   UNL     1       2.283   7.331  19.754  0.00  0.00    +0.000 A 
ATOM     12  C   UNL     1       1.554   8.352  20.347  0.00  0.00    +0.000 A 
ATOM     13  F   UNL     1       1.245   8.197  21.646  0.00  0.00    +0.000 F 
BRANCH  10  14
ATOM     14  C   UNL     1       3.408   6.370  17.778  0.00  0.00    +0.000 A 
ATOM     15  N   UNL     1       3.032   5.082  17.713  0.00  0.00    +0.000 NA
ATOM     16  O   UNL     1       4.085   4.463  17.051  0.00  0.00    +0.000 OA
ATOM     17  C   UNL     1       4.993   5.439  16.780  0.00  0.00    +0.000 A 
ATOM     18  N   UNL     1       4.626   6.627  17.196  0.00  0.00    +0.000 NA
BRANCH  17  19
ATOM     19  C   UNL     1       6.246   5.025  16.107  0.00  0.00    +0.000 C 
ATOM     20  C   UNL     1       7.272   4.563  17.139  0.00  0.00    +0.000 C 
ATOM     21  C   UNL     1       5.944   3.923  15.094  0.00  0.00    +0.000 C 
ENDBRANCH  17  19
ENDBRANCH  10  14
ENDBRANCH   4   7
BRANCH   1  22
ATOM     22  C   UNL     1      -1.426  13.650  21.573  0.00  0.00    +0.000 C 
BRANCH  22  23
ATOM     23  C   UNL     1      -1.084  15.146  21.430  0.00  0.00    +0.000 A 
ATOM     24  C   UNL     1      -1.379  15.870  20.261  0.00  0.00    +0.000 A 
ATOM     25  C   UNL     1      -0.994  17.204  20.127  0.00  0.00    +0.000 A 
ATOM     26  C   UNL     1      -0.350  17.854  21.176  0.00  0.00    +0.000 A 
ATOM     27  C   UNL     1      -0.099  17.174  22.362  0.00  0.00    +0.000 A 
ATOM     28  C   UNL     1      -0.474  15.838  22.493  0.00  0.00    +0.000 A 
ENDBRANCH  22  23
BRANCH  22  30
ATOM     29  N   UNL     1      -3.908  13.058  21.944  0.00  0.00    +0.000 N 
ATOM     30  C   UNL     1      -2.682  13.466  22.500  0.00  0.00    +0.000 C 
ATOM     31  O   UNL     1      -2.621  13.739  23.705  0.00  0.00    +0.000 OA
BRANCH  29  33
ATOM     32  C   UNL     1      -5.848  14.183  23.055  0.00  0.00    +0.000 C 
ATOM     33  C   UNL     1      -5.031  12.907  22.882  0.00  0.00    +0.000 C 
ENDBRANCH  29  33
BRANCH  29  34
ATOM     34  C   UNL     1      -4.113  12.937  20.498  0.00  0.00    +0.000 C 
ATOM     35  C   UNL     1      -5.400  12.290  20.009  0.00  0.00    +0.000 C 
ENDBRANCH  29  34
ENDBRANCH  22  30
ENDBRANCH   1  22
TORSDOF 8
ENDMDL
