MODEL 1
REMARK VINA RESULT:      -7.8      0.000      0.000
REMARK  Name = 
REMARK  9 active torsions:
REMARK  status: ('A' for Active; 'I' for Inactive)
REMARK    1  A    between atoms: C_1  and  C_2
REMARK    2  A    between atoms: C_2  and  C_3
REMARK    3  A    between atoms: C_2  and  C_4
REMARK    4  A    between atoms: C_9  and  N_10
REMARK    5  A    between atoms: C_11  and  C_13
REMARK    6  A    between atoms: C_13  and  O_14
REMARK    7  A    between atoms: O_14  and  C_15
REMARK    8  A    between atoms: C_15  and  C_17
REMARK    9  A    between atoms: C_17  and  C_18
REMARK                            x       y       z     vdW  Elec       q    Type
REMARK                         _______ _______ _______ _____ _____    ______ ____
ROOT
ATOM      1  C   UNL     1       2.514   3.829  21.465  0.00  0.00    +0.000 C 
ENDROOT
BRANCH   1   3
ATOM      2  N   UNL     1       2.574   6.056  20.413  0.00  0.00    +0.000 N 
ATOM      3  C   UNL     1       1.948   4.826  20.431  0.00  0.00    +0.000 C 
ATOM      4  O   UNL     1       1.016   4.469  19.711  0.00  0.00    +0.000 OA
ATOM      5  H   UNL     1       3.423   6.108  20.955  0.00  0.00    +0.000 HD
BRANCH   2  11
ATOM      6  C   UNL     1       1.485   8.238  20.143  0.00  0.00    +0.000 A 
ATOM      7  C   UNL     1       1.238   9.362  19.329  0.00  0.00    +0.000 A 
ATOM      8  C   UNL     1       1.759   9.460  18.040  0.00  0.00    +0.000 A 
ATOM      9  C   UNL     1       2.553   8.440  17.537  0.00  0.00    +0.000 A 
ATOM     10  C   UNL     1       2.806   7.311  18.319  0.00  0.00    +0.000 A 
ATOM     11  C   UNL     1       2.290   7.193  19.618  0.00  0.00    +0.000 A 
BRANCH   6  13
ATOM     12  C   UNL     1       1.634   9.326  22.393  0.00  0.00    +0.000 C 
ATOM     13  C   UNL     1       0.946   8.225  21.577  0.00  0.00    +0.000 C 
ATOM     14  C   UNL     1      -0.579   8.364  21.715  0.00  0.00    +0.000 C 
ENDBRANCH   6  13
ENDBRANCH   2  11
ENDBRANCH   1   3
BRANCH   1  15
ATOM     15  O   UNL     1       2.721   2.453  21.142  0.00  0.00    +0.000 OA
BRANCH  15  16
ATOM     16  C   UNL     1       3.887   2.182  20.506  0.00  0.00    +0.000 C 
ATOM     17  O   UNL     1       4.958   2.058  21.090  0.00  0.00    +0.000 OA
BRANCH  16  18
ATOM     18  C   UNL     1       3.766   2.176  19.022  0.00  0.00    +0.000 C 
BRANCH  18  19
ATOM     19  C   UNL     1       4.209   3.343  18.204  0.00  0.00    +0.000 A 
ATOM     20  C   UNL     1       3.481   3.717  17.084  0.00  0.00    +0.000 A 
ATOM     21  N   UNL     1       4.409   4.233  16.231  0.00  0.00    +0.000 N 
ATOM     22  C   UNL     1       5.337   4.891  16.989  0.00  0.00    +0.000 A 
ATOM     23  C   UNL     1       6.206   5.918  16.625  0.00  0.00    +0.000 A 
ATOM     24  C   UNL     1       7.019   6.423  17.627  0.00  0.00    +0.000 A 
ATOM     25  C   UNL     1       7.025   5.879  18.899  0.00  0.00    +0.000 A 
ATOM     26  C   UNL     1       6.196   4.786  19.222  0.00  0.00    +0.000 A 
ATOM     27  C   UNL     1       5.272   4.313  18.266  0.00  0.00    +0.000 A 
ATOM     28  H   UNL     1       4.349   4.249  15.219  0.00  0.00    +0.000 HD
ENDBRANCH  18  19
ENDBRANCH  16  18
ENDBRANCH  15  16
ENDBRANCH   1  15
TORSDOF 7
ENDMDL
MODEL 2
REMARK VINA RESULT:      -7.4      3.827      8.027
REMARK  Name = 
REMARK  9 active torsions:
REMARK  status: ('A' for Active; 'I' for Inactive)
REMARK    1  A    between atoms: C_1  and  C_2
REMARK    2  A    between atoms: C_2  and  C_3
REMARK    3  A    between atoms: C_2  and  C_4
REMARK    4  A    between atoms: C_9  and  N_10
REMARK    5  A    between atoms: C_11  and  C_13
REMARK    6  A    between atoms: C_13  and  O_14
REMARK    7  A    between atoms: O_14  and  C_15
REMARK    8  A    between atoms: C_15  and  C_17
REMARK    9  A    between atoms: C_17  and  C_18
REMARK                            x       y       z     vdW  Elec       q    Type
REMARK                         _______ _______ _______ _____ _____    ______ ____
ROOT
ATOM      1  C   UNL     1       1.126   9.603  22.026  0.00  0.00    +0.000 C 
ENDROOT
BRANCH   1   3
ATOM      2  N   UNL     1       1.883   7.549  20.894  0.00  0.00    +0.000 N 
ATOM      3  C   UNL     1       0.787   8.270  21.324  0.00  0.00    +0.000 C 
ATOM      4  O   UNL     1      -0.394   7.946  21.204  0.00  0.00    +0.000 OA
ATOM      5  H   UNL     1       2.772   7.889  21.228  0.00  0.00    +0.000 HD
BRANCH   2  11
ATOM      6  C   UNL     1       2.514   6.255  18.907  0.00  0.00    +0.000 A 
ATOM      7  C   UNL     1       2.554   5.007  18.253  0.00  0.00    +0.000 A 
ATOM      8  C   UNL     1       2.034   3.855  18.840  0.00  0.00    +0.000 A 
ATOM      9  C   UNL     1       1.471   3.921  20.106  0.00  0.00    +0.000 A 
ATOM     10  C   UNL     1       1.409   5.146  20.773  0.00  0.00    +0.000 A 
ATOM     11  C   UNL     1       1.926   6.316  20.199  0.00  0.00    +0.000 A 
BRANCH   6  13
ATOM     12  C   UNL     1       4.127   6.992  17.141  0.00  0.00    +0.000 C 
ATOM     13  C   UNL     1       3.170   7.467  18.240  0.00  0.00    +0.000 C 
ATOM     14  C   UNL     1       2.202   8.511  17.659  0.00  0.00    +0.000 C 
ENDBRANCH   6  13
ENDBRANCH   2  11
ENDBRANCH   1   3
BRANCH   1  15
ATOM     15  O   UNL     1       0.361  10.080  23.133  0.00  0.00    +0.000 OA
BRANCH  15  16
ATOM     16  C   UNL     1      -0.633  10.946  22.813  0.00  0.00    +0.000 C 
ATOM     17  O   UNL     1      -1.750  10.904  23.318  0.00  0.00    +0.000 OA
BRANCH  16  18
ATOM     18  C   UNL     1      -0.280  11.870  21.700  0.00  0.00    +0.000 C 
BRANCH  18  19
ATOM     19  C   UNL     1      -1.189  12.057  20.531  0.00  0.00    +0.000 A 
ATOM     20  C   UNL     1      -1.941  13.218  20.420  0.00  0.00    +0.000 A 
ATOM     21  N   UNL     1      -3.076  12.827  19.776  0.00  0.00    +0.000 N 
ATOM     22  C   UNL     1      -2.720  11.870  18.868  0.00  0.00    +0.000 A 
ATOM     23  C   UNL     1      -3.373  11.473  17.702  0.00  0.00    +0.000 A 
ATOM     24  C   UNL     1      -2.749  10.491  16.949  0.00  0.00    +0.000 A 
ATOM     25  C   UNL     1      -1.583   9.880  17.376  0.00  0.00    +0.000 A 
ATOM     26  C   UNL     1      -0.984  10.242  18.600  0.00  0.00    +0.000 A 
ATOM     27  C   UNL     1      -1.523  11.313  19.343  0.00  0.00    +0.000 A 
ATOM     28  H   UNL     1      -3.989  13.262  19.854  0.00  0.00    +0.000 HD
ENDBRANCH  18  19
ENDBRANCH  16  18
ENDBRANCH  15  16
ENDBRANCH   1  15
TORSDOF 7
ENDMDL
MODEL 3
REMARK VINA RESULT:      -7.3      2.533      4.676
REMARK  Name = 
REMARK  9 active torsions:
REMARK  status: ('A' for Active; 'I' for Inactive)
REMARK    1  A    between atoms: C_1  and  C_2
REMARK    2  A    between atoms: C_2  and  C_3
REMARK    3  A    between atoms: C_2  and  C_4
REMARK    4  A    between atoms: C_9  and  N_10
REMARK    5  A    between atoms: C_11  and  C_13
REMARK    6  A    between atoms: C_13  and  O_14
REMARK    7  A    between atoms: O_14  and  C_15
REMARK    8  A    between atoms: C_15  and  C_17
REMARK    9  A    between atoms: C_17  and  C_18
REMARK                            x       y       z     vdW  Elec       q    Type
REMARK                         _______ _______ _______ _____ _____    ______ ____
ROOT
ATOM      1  C   UNL     1       3.151   7.601  17.510  0.00  0.00    +0.000 C 
ENDROOT
BRANCH   1   3
ATOM      2  N   UNL     1       1.737   8.924  19.034  0.00  0.00    +0.000 N 
ATOM      3  C   UNL     1       2.386   7.720  18.847  0.00  0.00    +0.000 C 
ATOM      4  O   UNL     1       2.400   6.768  19.626  0.00  0.00    +0.000 OA
ATOM      5  H   UNL     1       1.698   9.517  18.219  0.00  0.00    +0.000 HD
BRANCH   2  11
ATOM      6  C   UNL     1      -0.037  10.345  19.960  0.00  0.00    +0.000 A 
ATOM      7  C   UNL     1      -0.783  10.750  21.085  0.00  0.00    +0.000 A 
ATOM      8  C   UNL     1      -0.544  10.220  22.351  0.00  0.00    +0.000 A 
ATOM      9  C   UNL     1       0.442   9.259  22.522  0.00  0.00    +0.000 A 
ATOM     10  C   UNL     1       1.202   8.846  21.427  0.00  0.00    +0.000 A 
ATOM     11  C   UNL     1       0.978   9.368  20.145  0.00  0.00    +0.000 A 
BRANCH   6  13
ATOM     12  C   UNL     1      -1.676  10.233  18.072  0.00  0.00    +0.000 C 
ATOM     13  C   UNL     1      -0.399  10.910  18.583  0.00  0.00    +0.000 C 
ATOM     14  C   UNL     1      -0.567  12.437  18.515  0.00  0.00    +0.000 C 
ENDBRANCH   6  13
ENDBRANCH   2  11
ENDBRANCH   1   3
BRANCH   1  15
ATOM     15  O   UNL     1       4.510   7.167  17.463  0.00  0.00    +0.000 OA
BRANCH  15  16
ATOM     16  C   UNL     1       4.871   6.534  16.320  0.00  0.00    +0.000 C 
ATOM     17  O   UNL     1       4.974   7.104  15.239  0.00  0.00    +0.000 OA
BRANCH  16  18
ATOM     18  C   UNL     1       5.007   5.059  16.475  0.00  0.00    +0.000 C 
BRANCH  18  19
ATOM     19  C   UNL     1       4.537   4.363  17.708  0.00  0.00    +0.000 A 
ATOM     20  C   UNL     1       5.402   4.194  18.779  0.00  0.00    +0.000 A 
ATOM     21  N   UNL     1       5.006   3.025  19.355  0.00  0.00    +0.000 N 
ATOM     22  C   UNL     1       3.645   2.960  19.252  0.00  0.00    +0.000 A 
ATOM     23  C   UNL     1       2.734   2.240  20.023  0.00  0.00    +0.000 A 
ATOM     24  C   UNL     1       1.394   2.401  19.707  0.00  0.00    +0.000 A 
ATOM     25  C   UNL     1       0.990   3.170  18.630  0.00  0.00    +0.000 A 
ATOM     26  C   UNL     1       1.935   3.824  17.814  0.00  0.00    +0.000 A 
ATOM     27  C   UNL     1       3.301   3.780  18.166  0.00  0.00    +0.000 A 
ATOM     28  H   UNL     1       5.592   2.390  19.886  0.00  0.00    +0.000 HD
ENDBRANCH  18  19
ENDBRANCH  16  18
ENDBRANCH  15  16
ENDBRANCH   1  15
TORSDOF 7
ENDMDL
MODEL 4
REMARK VINA RESULT:      -7.0      3.739      8.000
REMARK  Name = 
REMARK  9 active torsions:
REMARK  status: ('A' for Active; 'I' for Inactive)
REMARK    1  A    between atoms: C_1  and  C_2
REMARK    2  A    between atoms: C_2  and  C_3
REMARK    3  A    between atoms: C_2  and  C_4
REMARK    4  A    between atoms: C_9  and  N_10
REMARK    5  A    between atoms: C_11  and  C_13
REMARK    6  A    between atoms: C_13  and  O_14
REMARK    7  A    between atoms: O_14  and  C_15
REMARK    8  A    between atoms: C_15  and  C_17
REMARK    9  A    between atoms: C_17  and  C_18
REMARK                            x       y       z     vdW  Elec       q    Type
REMARK                         _______ _______ _______ _____ _____    ______ ____
ROOT
ATOM      1  C   UNL     1       1.401   8.451  20.816  0.00  0.00    +0.000 C 
ENDROOT
BRANCH   1   3
ATOM      2  N   UNL     1       2.517   6.454  19.902  0.00  0.00    +0.000 N 
ATOM      3  C   UNL     1       1.989   7.694  19.605  0.00  0.00    +0.000 C 
ATOM      4  O   UNL     1       1.943   8.223  18.495  0.00  0.00    +0.000 OA
ATOM      5  H   UNL     1       2.314   6.117  20.831  0.00  0.00    +0.000 HD
BRANCH   2  11
ATOM      6  C   UNL     1       2.645   4.199  18.943  0.00  0.00    +0.000 A 
ATOM      7  C   UNL     1       3.291   3.304  18.066  0.00  0.00    +0.000 A 
ATOM      8  C   UNL     1       4.398   3.690  17.311  0.00  0.00    +0.000 A 
ATOM      9  C   UNL     1       4.879   4.987  17.407  0.00  0.00    +0.000 A 
ATOM     10  C   UNL     1       4.265   5.891  18.275  0.00  0.00    +0.000 A 
ATOM     11  C   UNL     1       3.150   5.522  19.043  0.00  0.00    +0.000 A 
BRANCH   6  13
ATOM     12  C   UNL     1       0.700   2.624  18.886  0.00  0.00    +0.000 C 
ATOM     13  C   UNL     1       1.388   3.736  19.686  0.00  0.00    +0.000 C 
ATOM     14  C   UNL     1       1.608   3.263  21.133  0.00  0.00    +0.000 C 
ENDBRANCH   6  13
ENDBRANCH   2  11
ENDBRANCH   1   3
BRANCH   1  15
ATOM     15  O   UNL     1       0.951   9.802  20.706  0.00  0.00    +0.000 OA
BRANCH  15  16
ATOM     16  C   UNL     1      -0.078  10.133  21.525  0.00  0.00    +0.000 C 
ATOM     17  O   UNL     1      -0.589   9.345  22.314  0.00  0.00    +0.000 OA
BRANCH  16  18
ATOM     18  C   UNL     1      -0.612  11.502  21.284  0.00  0.00    +0.000 C 
BRANCH  18  19
ATOM     19  C   UNL     1      -1.553  11.780  20.160  0.00  0.00    +0.000 A 
ATOM     20  C   UNL     1      -2.326  12.932  20.174  0.00  0.00    +0.000 A 
ATOM     21  N   UNL     1      -3.471  12.582  19.525  0.00  0.00    +0.000 N 
ATOM     22  C   UNL     1      -3.124  11.719  18.525  0.00  0.00    +0.000 A 
ATOM     23  C   UNL     1      -3.801  11.418  17.343  0.00  0.00    +0.000 A 
ATOM     24  C   UNL     1      -3.182  10.520  16.488  0.00  0.00    +0.000 A 
ATOM     25  C   UNL     1      -1.996   9.894  16.828  0.00  0.00    +0.000 A 
ATOM     26  C   UNL     1      -1.372  10.152  18.065  0.00  0.00    +0.000 A 
ATOM     27  C   UNL     1      -1.906  11.142  18.917  0.00  0.00    +0.000 A 
ATOM     28  H   UNL     1      -4.388  12.993  19.665  0.00  0.00    +0.000 HD
ENDBRANCH  18  19
ENDBRANCH  16  18
ENDBRANCH  15  16
ENDBRANCH   1  15
TORSDOF 7
ENDMDL
MODEL 5
REMARK VINA RESULT:      -7.0      2.468      3.930
REMARK  Name = 
REMARK  9 active torsions:
REMARK  status: ('A' for Active; 'I' for Inactive)
REMARK    1  A    between atoms: C_1  and  C_2
REMARK    2  A    between atoms: C_2  and  C_3
REMARK    3  A    between atoms: C_2  and  C_4
REMARK    4  A    between atoms: C_9  and  N_10
REMARK    5  A    between atoms: C_11  and  C_13
REMARK    6  A    between atoms: C_13  and  O_14
REMARK    7  A    between atoms: O_14  and  C_15
REMARK    8  A    between atoms: C_15  and  C_17
REMARK    9  A    between atoms: C_17  and  C_18
REMARK                            x       y       z     vdW  Elec       q    Type
REMARK                         _______ _______ _______ _____ _____    ______ ____
ROOT
ATOM      1  C   UNL     1       3.419   5.859  19.198  0.00  0.00    +0.000 C 
ENDROOT
BRANCH   1   3
ATOM      2  N   UNL     1       2.211   7.821  20.072  0.00  0.00    +0.000 N 
ATOM      3  C   UNL     1       2.261   6.441  20.036  0.00  0.00    +0.000 C 
ATOM      4  O   UNL     1       1.482   5.667  20.592  0.00  0.00    +0.000 OA
ATOM      5  H   UNL     1       2.828   8.284  19.423  0.00  0.00    +0.000 HD
BRANCH   2  11
ATOM      6  C   UNL     1       0.524   9.602  20.033  0.00  0.00    +0.000 A 
ATOM      7  C   UNL     1      -0.377  10.415  20.750  0.00  0.00    +0.000 A 
ATOM      8  C   UNL     1      -0.508  10.318  22.134  0.00  0.00    +0.000 A 
ATOM      9  C   UNL     1       0.252   9.395  22.836  0.00  0.00    +0.000 A 
ATOM     10  C   UNL     1       1.160   8.584  22.153  0.00  0.00    +0.000 A 
ATOM     11  C   UNL     1       1.306   8.666  20.760  0.00  0.00    +0.000 A 
BRANCH   6  13
ATOM     12  C   UNL     1      -0.774  10.241  17.991  0.00  0.00    +0.000 C 
ATOM     13  C   UNL     1       0.566   9.704  18.505  0.00  0.00    +0.000 C 
ATOM     14  C   UNL     1       1.712  10.551  17.928  0.00  0.00    +0.000 C 
ENDBRANCH   6  13
ENDBRANCH   2  11
ENDBRANCH   1   3
BRANCH   1  15
ATOM     15  O   UNL     1       3.549   4.454  18.976  0.00  0.00    +0.000 OA
BRANCH  15  16
ATOM     16  C   UNL     1       4.677   4.078  18.324  0.00  0.00    +0.000 C 
ATOM     17  O   UNL     1       5.743   3.865  18.893  0.00  0.00    +0.000 OA
BRANCH  16  18
ATOM     18  C   UNL     1       4.532   4.071  16.842  0.00  0.00    +0.000 C 
BRANCH  18  19
ATOM     19  C   UNL     1       5.696   4.341  15.949  0.00  0.00    +0.000 A 
ATOM     20  C   UNL     1       6.878   4.835  16.483  0.00  0.00    +0.000 A 
ATOM     21  N   UNL     1       7.406   5.602  15.489  0.00  0.00    +0.000 N 
ATOM     22  C   UNL     1       7.118   4.988  14.303  0.00  0.00    +0.000 A 
ATOM     23  C   UNL     1       7.764   5.096  13.073  0.00  0.00    +0.000 A 
ATOM     24  C   UNL     1       7.266   4.314  12.042  0.00  0.00    +0.000 A 
ATOM     25  C   UNL     1       6.136   3.533  12.206  0.00  0.00    +0.000 A 
ATOM     26  C   UNL     1       5.450   3.503  13.438  0.00  0.00    +0.000 A 
ATOM     27  C   UNL     1       5.986   4.193  14.545  0.00  0.00    +0.000 A 
ATOM     28  H   UNL     1       8.019   6.401  15.611  0.00  0.00    +0.000 HD
ENDBRANCH  18  19
ENDBRANCH  16  18
ENDBRANCH  15  16
ENDBRANCH   1  15
TORSDOF 7
ENDMDL
MODEL 6
REMARK VINA RESULT:      -7.0      3.791      8.145
REMARK  Name = 
REMARK  9 active torsions:
REMARK  status: ('A' for Active; 'I' for Inactive)
REMARK    1  A    between atoms: C_1  and  C_2
REMARK    2  A    between atoms: C_2  and  C_3
REMARK    3  A    between atoms: C_2  and  C_4
REMARK    4  A    between atoms: C_9  and  N_10
REMARK    5  A    between atoms: C_11  and  C_13
REMARK    6  A    between atoms: C_13  and  O_14
REMARK    7  A    between atoms: O_14  and  C_15
REMARK    8  A    between atoms: C_15  and  C_17
REMARK    9  A    between atoms: C_17  and  C_18
REMARK                            x       y       z     vdW  Elec       q    Type
REMARK                         _______ _______ _______ _____ _____    ______ ____
ROOT
ATOM      1  C   UNL     1       1.585   8.414  19.757  0.00  0.00    +0.000 C 
ENDROOT
BRANCH   1   3
ATOM      2  N   UNL     1       3.048   6.791  18.618  0.00  0.00    +0.000 N 
ATOM      3  C   UNL     1       2.308   7.948  18.475  0.00  0.00    +0.000 C 
ATOM      4  O   UNL     1       2.177   8.609  17.445  0.00  0.00    +0.000 OA
ATOM      5  H   UNL     1       2.902   6.299  19.486  0.00  0.00    +0.000 HD
BRANCH   2  11
ATOM      6  C   UNL     1       3.756   4.702  17.543  0.00  0.00    +0.000 A 
ATOM      7  C   UNL     1       4.551   4.064  16.570  0.00  0.00    +0.000 A 
ATOM      8  C   UNL     1       5.410   4.784  15.741  0.00  0.00    +0.000 A 
ATOM      9  C   UNL     1       5.484   6.164  15.856  0.00  0.00    +0.000 A 
ATOM     10  C   UNL     1       4.715   6.820  16.818  0.00  0.00    +0.000 A 
ATOM     11  C   UNL     1       3.845   6.114  17.662  0.00  0.00    +0.000 A 
BRANCH   6  13
ATOM     12  C   UNL     1       1.393   3.893  17.714  0.00  0.00    +0.000 C 
ATOM     13  C   UNL     1       2.777   3.863  18.371  0.00  0.00    +0.000 C 
ATOM     14  C   UNL     1       3.196   2.404  18.616  0.00  0.00    +0.000 C 
ENDBRANCH   6  13
ENDBRANCH   2  11
ENDBRANCH   1   3
BRANCH   1  15
ATOM     15  O   UNL     1       1.149   9.764  19.920  0.00  0.00    +0.000 OA
BRANCH  15  16
ATOM     16  C   UNL     1       0.135   9.937  20.804  0.00  0.00    +0.000 C 
ATOM     17  O   UNL     1      -0.309   9.032  21.503  0.00  0.00    +0.000 OA
BRANCH  16  18
ATOM     18  C   UNL     1      -0.471  11.296  20.753  0.00  0.00    +0.000 C 
BRANCH  18  19
ATOM     19  C   UNL     1      -1.535  11.633  19.763  0.00  0.00    +0.000 A 
ATOM     20  C   UNL     1      -2.290  12.786  19.926  0.00  0.00    +0.000 A 
ATOM     21  N   UNL     1      -3.507  12.473  19.400  0.00  0.00    +0.000 N 
ATOM     22  C   UNL     1      -3.288  11.660  18.324  0.00  0.00    +0.000 A 
ATOM     23  C   UNL     1      -4.102  11.421  17.217  0.00  0.00    +0.000 A 
ATOM     24  C   UNL     1      -3.596  10.565  16.251  0.00  0.00    +0.000 A 
ATOM     25  C   UNL     1      -2.384   9.918  16.418  0.00  0.00    +0.000 A 
ATOM     26  C   UNL     1      -1.616  10.112  17.584  0.00  0.00    +0.000 A 
ATOM     27  C   UNL     1      -2.038  11.060  18.541  0.00  0.00    +0.000 A 
ATOM     28  H   UNL     1      -4.397  12.879  19.666  0.00  0.00    +0.000 HD
ENDBRANCH  18  19
ENDBRANCH  16  18
ENDBRANCH  15  16
ENDBRANCH   1  15
TORSDOF 7
ENDMDL
MODEL 7
REMARK VINA RESULT:      -6.8      6.343      8.796
REMARK  Name = 
REMARK  9 active torsions:
REMARK  status: ('A' for Active; 'I' for Inactive)
REMARK    1  A    between atoms: C_1  and  C_2
REMARK    2  A    between atoms: C_2  and  C_3
REMARK    3  A    between atoms: C_2  and  C_4
REMARK    4  A    between atoms: C_9  and  N_10
REMARK    5  A    between atoms: C_11  and  C_13
REMARK    6  A    between atoms: C_13  and  O_14
REMARK    7  A    between atoms: O_14  and  C_15
REMARK    8  A    between atoms: C_15  and  C_17
REMARK    9  A    between atoms: C_17  and  C_18
REMARK                            x       y       z     vdW  Elec       q    Type
REMARK                         _______ _______ _______ _____ _____    ______ ____
ROOT
ATOM      1  C   UNL     1       8.231   8.814  18.091  0.00  0.00    +0.000 C 
ENDROOT
BRANCH   1   3
ATOM      2  N   UNL     1       7.002   7.126  16.782  0.00  0.00    +0.000 N 
ATOM      3  C   UNL     1       7.775   7.350  17.904  0.00  0.00    +0.000 C 
ATOM      4  O   UNL     1       8.123   6.509  18.732  0.00  0.00    +0.000 OA
ATOM      5  H   UNL     1       6.961   7.898  16.134  0.00  0.00    +0.000 HD
BRANCH   2  11
ATOM      6  C   UNL     1       5.250   5.422  16.991  0.00  0.00    +0.000 A 
ATOM      7  C   UNL     1       4.672   4.231  16.505  0.00  0.00    +0.000 A 
ATOM      8  C   UNL     1       5.207   3.551  15.413  0.00  0.00    +0.000 A 
ATOM      9  C   UNL     1       6.328   4.052  14.770  0.00  0.00    +0.000 A 
ATOM     10  C   UNL     1       6.927   5.224  15.235  0.00  0.00    +0.000 A 
ATOM     11  C   UNL     1       6.404   5.924  16.333  0.00  0.00    +0.000 A 
BRANCH   6  13
ATOM     12  C   UNL     1       3.159   6.586  17.724  0.00  0.00    +0.000 C 
ATOM     13  C   UNL     1       4.570   6.162  18.147  0.00  0.00    +0.000 C 
ATOM     14  C   UNL     1       4.497   5.394  19.476  0.00  0.00    +0.000 C 
ENDBRANCH   6  13
ENDBRANCH   2  11
ENDBRANCH   1   3
BRANCH   1  15
ATOM     15  O   UNL     1       9.051   9.205  19.193  0.00  0.00    +0.000 OA
BRANCH  15  16
ATOM     16  C   UNL     1       9.343  10.528  19.249  0.00  0.00    +0.000 C 
ATOM     17  O   UNL     1       9.468  11.146  20.301  0.00  0.00    +0.000 OA
BRANCH  16  18
ATOM     18  C   UNL     1       9.374  11.187  17.914  0.00  0.00    +0.000 C 
BRANCH  18  19
ATOM     19  C   UNL     1       9.773  12.616  17.763  0.00  0.00    +0.000 A 
ATOM     20  C   UNL     1      11.043  12.934  17.304  0.00  0.00    +0.000 A 
ATOM     21  N   UNL     1      11.343  14.111  17.920  0.00  0.00    +0.000 N 
ATOM     22  C   UNL     1      10.186  14.834  18.002  0.00  0.00    +0.000 A 
ATOM     23  C   UNL     1      10.013  16.211  18.128  0.00  0.00    +0.000 A 
ATOM     24  C   UNL     1       8.705  16.669  18.149  0.00  0.00    +0.000 A 
ATOM     25  C   UNL     1       7.630  15.798  18.130  0.00  0.00    +0.000 A 
ATOM     26  C   UNL     1       7.832  14.403  18.085  0.00  0.00    +0.000 A 
ATOM     27  C   UNL     1       9.142  13.898  17.949  0.00  0.00    +0.000 A 
ATOM     28  H   UNL     1      12.272  14.449  18.147  0.00  0.00    +0.000 HD
ENDBRANCH  18  19
ENDBRANCH  16  18
ENDBRANCH  15  16
ENDBRANCH   1  15
TORSDOF 7
ENDMDL
MODEL 8
REMARK VINA RESULT:      -6.8      3.696      8.376
REMARK  Name = 
REMARK  9 active torsions:
REMARK  status: ('A' for Active; 'I' for Inactive)
REMARK    1  A    between atoms: C_1  and  C_2
REMARK    2  A    between atoms: C_2  and  C_3
REMARK    3  A    between atoms: C_2  and  C_4
REMARK    4  A    between atoms: C_9  and  N_10
REMARK    5  A    between atoms: C_11  and  C_13
REMARK    6  A    between atoms: C_13  and  O_14
REMARK    7  A    between atoms: O_14  and  C_15
REMARK    8  A    between atoms: C_15  and  C_17
REMARK    9  A    between atoms: C_17  and  C_18
REMARK                            x       y       z     vdW  Elec       q    Type
REMARK                         _______ _______ _______ _____ _____    ______ ____
ROOT
ATOM      1  C   UNL     1       2.244   8.517  18.332  0.00  0.00    +0.000 C 
ENDROOT
BRANCH   1   3
ATOM      2  N   UNL     1       2.421   6.128  17.757  0.00  0.00    +0.000 N 
ATOM      3  C   UNL     1       2.460   7.055  18.779  0.00  0.00    +0.000 C 
ATOM      4  O   UNL     1       2.652   6.821  19.972  0.00  0.00    +0.000 OA
ATOM      5  H   UNL     1       2.421   6.520  16.828  0.00  0.00    +0.000 HD
BRANCH   2  11
ATOM      6  C   UNL     1       3.779   4.107  17.450  0.00  0.00    +0.000 A 
ATOM      7  C   UNL     1       3.878   2.704  17.543  0.00  0.00    +0.000 A 
ATOM      8  C   UNL     1       2.811   1.923  17.983  0.00  0.00    +0.000 A 
ATOM      9  C   UNL     1       1.620   2.528  18.353  0.00  0.00    +0.000 A 
ATOM     10  C   UNL     1       1.491   3.915  18.262  0.00  0.00    +0.000 A 
ATOM     11  C   UNL     1       2.552   4.719  17.822  0.00  0.00    +0.000 A 
BRANCH   6  13
ATOM     12  C   UNL     1       6.199   4.535  17.924  0.00  0.00    +0.000 C 
ATOM     13  C   UNL     1       5.012   4.915  17.032  0.00  0.00    +0.000 C 
ATOM     14  C   UNL     1       5.420   4.787  15.555  0.00  0.00    +0.000 C 
ENDBRANCH   6  13
ENDBRANCH   2  11
ENDBRANCH   1   3
BRANCH   1  15
ATOM     15  O   UNL     1       0.982   9.168  18.487  0.00  0.00    +0.000 OA
BRANCH  15  16
ATOM     16  C   UNL     1       0.875   9.957  19.585  0.00  0.00    +0.000 C 
ATOM     17  O   UNL     1       0.983   9.534  20.731  0.00  0.00    +0.000 OA
BRANCH  16  18
ATOM     18  C   UNL     1       0.487  11.361  19.271  0.00  0.00    +0.000 C 
BRANCH  18  19
ATOM     19  C   UNL     1      -0.900  11.704  18.842  0.00  0.00    +0.000 A 
ATOM     20  C   UNL     1      -1.505  12.857  19.320  0.00  0.00    +0.000 A 
ATOM     21  N   UNL     1      -2.831  12.549  19.373  0.00  0.00    +0.000 N 
ATOM     22  C   UNL     1      -3.103  11.740  18.306  0.00  0.00    +0.000 A 
ATOM     23  C   UNL     1      -4.318  11.508  17.661  0.00  0.00    +0.000 A 
ATOM     24  C   UNL     1      -4.284  10.656  16.569  0.00  0.00    +0.000 A 
ATOM     25  C   UNL     1      -3.122  10.006  16.191  0.00  0.00    +0.000 A 
ATOM     26  C   UNL     1      -1.924  10.193  16.909  0.00  0.00    +0.000 A 
ATOM     27  C   UNL     1      -1.885  11.137  17.957  0.00  0.00    +0.000 A 
ATOM     28  H   UNL     1      -3.516  12.955  20.001  0.00  0.00    +0.000 HD
ENDBRANCH  18  19
ENDBRANCH  16  18
ENDBRANCH  15  16
ENDBRANCH   1  15
TORSDOF 7
ENDMDL
MODEL 9
REMARK VINA RESULT:      -6.8      4.213      9.064
REMARK  Name = 
REMARK  9 active torsions:
REMARK  status: ('A' for Active; 'I' for Inactive)
REMARK    1  A    between atoms: C_1  and  C_2
REMARK    2  A    between atoms: C_2  and  C_3
REMARK    3  A    between atoms: C_2  and  C_4
REMARK    4  A    between atoms: C_9  and  N_10
REMARK    5  A    between atoms: C_11  and  C_13
REMARK    6  A    between atoms: C_13  and  O_14
REMARK    7  A    between atoms: O_14  and  C_15
REMARK    8  A    between atoms: C_15  and  C_17
REMARK    9  A    between atoms: C_17  and  C_18
REMARK                            x       y       z     vdW  Elec       q    Type
REMARK                         _______ _______ _______ _____ _____    ______ ____
ROOT
ATOM      1  C   UNL     1       1.443   8.248  21.405  0.00  0.00    +0.000 C 
ENDROOT
BRANCH   1   3
ATOM      2  N   UNL     1       2.401   6.364  20.137  0.00  0.00    +0.000 N 
ATOM      3  C   UNL     1       1.928   7.659  20.062  0.00  0.00    +0.000 C 
ATOM      4  O   UNL     1       1.858   8.355  19.049  0.00  0.00    +0.000 OA
ATOM      5  H   UNL     1       2.226   5.899  21.014  0.00  0.00    +0.000 HD
BRANCH   2  11
ATOM      6  C   UNL     1       2.407   4.250  18.892  0.00  0.00    +0.000 A 
ATOM      7  C   UNL     1       2.957   3.472  17.853  0.00  0.00    +0.000 A 
ATOM      8  C   UNL     1       3.996   3.947  17.055  0.00  0.00    +0.000 A 
ATOM      9  C   UNL     1       4.504   5.220  17.270  0.00  0.00    +0.000 A 
ATOM     10  C   UNL     1       3.985   6.008  18.298  0.00  0.00    +0.000 A 
ATOM     11  C   UNL     1       2.940   5.548  19.112  0.00  0.00    +0.000 A 
BRANCH   6  13
ATOM     12  C   UNL     1       0.581   2.539  18.912  0.00  0.00    +0.000 C 
ATOM     13  C   UNL     1       1.216   3.700  19.683  0.00  0.00    +0.000 C 
ATOM     14  C   UNL     1       1.524   3.251  21.122  0.00  0.00    +0.000 C 
ENDBRANCH   6  13
ENDBRANCH   2  11
ENDBRANCH   1   3
BRANCH   1  15
ATOM     15  O   UNL     1       0.105   8.717  21.575  0.00  0.00    +0.000 OA
BRANCH  15  16
ATOM     16  C   UNL     1      -0.011   9.880  22.264  0.00  0.00    +0.000 C 
ATOM     17  O   UNL     1       0.271   9.989  23.452  0.00  0.00    +0.000 OA
BRANCH  16  18
ATOM     18  C   UNL     1      -0.634  10.978  21.474  0.00  0.00    +0.000 C 
BRANCH  18  19
ATOM     19  C   UNL     1      -1.037  12.263  22.117  0.00  0.00    +0.000 A 
ATOM     20  C   UNL     1      -0.373  13.436  21.790  0.00  0.00    +0.000 A 
ATOM     21  N   UNL     1      -0.421  14.183  22.929  0.00  0.00    +0.000 N 
ATOM     22  C   UNL     1      -1.628  13.942  23.522  0.00  0.00    +0.000 A 
ATOM     23  C   UNL     1      -2.343  14.733  24.420  0.00  0.00    +0.000 A 
ATOM     24  C   UNL     1      -3.574  14.243  24.830  0.00  0.00    +0.000 A 
ATOM     25  C   UNL     1      -4.028  12.998  24.433  0.00  0.00    +0.000 A 
ATOM     26  C   UNL     1      -3.249  12.181  23.589  0.00  0.00    +0.000 A 
ATOM     27  C   UNL     1      -2.043  12.685  23.058  0.00  0.00    +0.000 A 
ATOM     28  H   UNL     1       0.249  14.890  23.210  0.00  0.00    +0.000 HD
ENDBRANCH  18  19
ENDBRANCH  16  18
ENDBRANCH  15  16
ENDBRANCH   1  15
TORSDOF 7
ENDMDL
