MODEL 1
REMARK VINA RESULT:      -6.8      0.000      0.000
REMARK  Name = 
REMARK  5 active torsions:
REMARK  status: ('A' for Active; 'I' for Inactive)
REMARK    1  A    between atoms: C_1  and  C_2
REMARK    2  A    between atoms: C_5  and  C_6
REMARK    3  A    between atoms: C_6  and  C_7
REMARK    4  A    between atoms: C_6  and  N_8
REMARK    5  A    between atoms: N_14  and  C_15
REMARK                            x       y       z     vdW  Elec       q    Type
REMARK                         _______ _______ _______ _____ _____    ______ ____
ROOT
ATOM      1  N   UNL     1       2.330   6.852  18.816  0.00  0.00    +0.000 N 
ATOM      2  C   UNL     1       2.166   8.106  18.300  0.00  0.00    +0.000 C 
ATOM      3  O   UNL     1       2.605   8.427  17.200  0.00  0.00    +0.000 OA
ATOM      4  N   UNL     1       1.441   8.958  19.105  0.00  0.00    +0.000 N 
ATOM      5  C   UNL     1       1.050  10.272  18.585  0.00  0.00    +0.000 C 
ATOM      6  C   UNL     1      -0.352  10.677  19.087  0.00  0.00    +0.000 C 
ATOM      7  N   UNL     1      -0.413  10.559  20.553  0.00  0.00    +0.000 N 
ATOM      8  C   UNL     1      -0.039   9.237  21.079  0.00  0.00    +0.000 C 
ATOM      9  C   UNL     1       1.356   8.847  20.570  0.00  0.00    +0.000 C 
ATOM     10  H   UNL     1       1.610   6.516  19.439  0.00  0.00    +0.000 HD
ENDROOT
BRANCH   7  11
ATOM     11  C   UNL     1      -0.992  11.515  21.334  0.00  0.00    +0.000 A 
ATOM     12  C   UNL     1      -1.108  11.525  22.715  0.00  0.00    +0.000 A 
ATOM     13  C   UNL     1      -1.827  12.647  23.218  0.00  0.00    +0.000 A 
ATOM     14  C   UNL     1      -2.256  13.473  22.208  0.00  0.00    +0.000 A 
ATOM     15  S   UNL     1      -1.770  12.911  20.676  0.00  0.00    +0.000 S 
ENDBRANCH   7  11
BRANCH   1  16
ATOM     16  C   UNL     1       3.060   5.813  18.109  0.00  0.00    +0.000 C 
ATOM     17  C   UNL     1       4.561   6.025  18.289  0.00  0.00    +0.000 C 
BRANCH  16  22
ATOM     18  C   UNL     1       1.572   2.537  21.528  0.00  0.00    +0.000 C 
ATOM     19  C   UNL     1       1.974   2.960  20.162  0.00  0.00    +0.000 A 
ATOM     20  C   UNL     1       2.139   2.143  19.061  0.00  0.00    +0.000 A 
ATOM     21  S   UNL     1       2.660   3.063  17.713  0.00  0.00    +0.000 S 
ATOM     22  C   UNL     1       2.642   4.480  18.689  0.00  0.00    +0.000 A 
ATOM     23  N   UNL     1       2.234   4.301  19.933  0.00  0.00    +0.000 NA
ENDBRANCH  16  22
ENDBRANCH   1  16
TORSDOF 3
ENDMDL
MODEL 2
REMARK VINA RESULT:      -6.8      2.883      8.233
REMARK  Name = 
REMARK  5 active torsions:
REMARK  status: ('A' for Active; 'I' for Inactive)
REMARK    1  A    between atoms: C_1  and  C_2
REMARK    2  A    between atoms: C_5  and  C_6
REMARK    3  A    between atoms: C_6  and  C_7
REMARK    4  A    between atoms: C_6  and  N_8
REMARK    5  A    between atoms: N_14  and  C_15
REMARK                            x       y       z     vdW  Elec       q    Type
REMARK                         _______ _______ _______ _____ _____    ______ ____
ROOT
ATOM      1  N   UNL     1      -0.410  10.548  18.838  0.00  0.00    +0.000 N 
ATOM      2  C   UNL     1       0.193   9.822  19.826  0.00  0.00    +0.000 C 
ATOM      3  O   UNL     1      -0.182   9.863  20.994  0.00  0.00    +0.000 OA
ATOM      4  N   UNL     1       1.225   9.020  19.389  0.00  0.00    +0.000 N 
ATOM      5  C   UNL     1       1.832   8.066  20.322  0.00  0.00    +0.000 C 
ATOM      6  C   UNL     1       2.223   6.756  19.606  0.00  0.00    +0.000 C 
ATOM      7  N   UNL     1       3.044   7.058  18.422  0.00  0.00    +0.000 N 
ATOM      8  C   UNL     1       2.433   8.002  17.473  0.00  0.00    +0.000 C 
ATOM      9  C   UNL     1       2.048   9.297  18.200  0.00  0.00    +0.000 C 
ATOM     10  H   UNL     1      -0.393  10.156  17.907  0.00  0.00    +0.000 HD
ENDROOT
BRANCH   7  11
ATOM     11  C   UNL     1       4.166   6.345  18.116  0.00  0.00    +0.000 A 
ATOM     12  C   UNL     1       4.954   6.451  16.981  0.00  0.00    +0.000 A 
ATOM     13  C   UNL     1       6.024   5.512  16.941  0.00  0.00    +0.000 A 
ATOM     14  C   UNL     1       6.029   4.697  18.046  0.00  0.00    +0.000 A 
ATOM     15  S   UNL     1       4.773   5.084  19.129  0.00  0.00    +0.000 S 
ENDBRANCH   7  11
BRANCH   1  16
ATOM     16  C   UNL     1      -1.523  11.444  19.104  0.00  0.00    +0.000 C 
ATOM     17  C   UNL     1      -1.028  12.888  19.122  0.00  0.00    +0.000 C 
BRANCH  16  22
ATOM     18  C   UNL     1      -3.305  10.262  14.625  0.00  0.00    +0.000 C 
ATOM     19  C   UNL     1      -3.413  10.737  16.028  0.00  0.00    +0.000 A 
ATOM     20  C   UNL     1      -4.549  11.215  16.653  0.00  0.00    +0.000 A 
ATOM     21  S   UNL     1      -4.186  11.697  18.255  0.00  0.00    +0.000 S 
ATOM     22  C   UNL     1      -2.543  11.249  18.005  0.00  0.00    +0.000 A 
ATOM     23  N   UNL     1      -2.276  10.732  16.819  0.00  0.00    +0.000 NA
ENDBRANCH  16  22
ENDBRANCH   1  16
TORSDOF 3
ENDMDL
MODEL 3
REMARK VINA RESULT:      -6.5      0.993      1.002
REMARK  Name = 
REMARK  5 active torsions:
REMARK  status: ('A' for Active; 'I' for Inactive)
REMARK    1  A    between atoms: C_1  and  C_2
REMARK    2  A    between atoms: C_5  and  C_6
REMARK    3  A    between atoms: C_6  and  C_7
REMARK    4  A    between atoms: C_6  and  N_8
REMARK    5  A    between atoms: N_14  and  C_15
REMARK                            x       y       z     vdW  Elec       q    Type
REMARK                         _______ _______ _______ _____ _____    ______ ____
ROOT
ATOM      1  N   UNL     1       2.659   6.983  18.587  0.00  0.00    +0.000 N 
ATOM      2  C   UNL     1       2.313   8.224  18.132  0.00  0.00    +0.000 C 
ATOM      3  O   UNL     1       2.644   8.634  17.024  0.00  0.00    +0.000 OA
ATOM      4  N   UNL     1       1.535   8.950  19.008  0.00  0.00    +0.000 N 
ATOM      5  C   UNL     1       0.956  10.221  18.563  0.00  0.00    +0.000 C 
ATOM      6  C   UNL     1      -0.455  10.430  19.154  0.00  0.00    +0.000 C 
ATOM      7  N   UNL     1      -0.416  10.256  20.616  0.00  0.00    +0.000 N 
ATOM      8  C   UNL     1       0.148   8.975  21.068  0.00  0.00    +0.000 C 
ATOM      9  C   UNL     1       1.548   8.780  20.470  0.00  0.00    +0.000 C 
ATOM     10  H   UNL     1       2.023   6.539  19.233  0.00  0.00    +0.000 HD
ENDROOT
BRANCH   7  11
ATOM     11  C   UNL     1      -1.063  11.105  21.464  0.00  0.00    +0.000 A 
ATOM     12  C   UNL     1      -1.167  11.008  22.843  0.00  0.00    +0.000 A 
ATOM     13  C   UNL     1      -1.968  12.030  23.427  0.00  0.00    +0.000 A 
ATOM     14  C   UNL     1      -2.472  12.888  22.479  0.00  0.00    +0.000 A 
ATOM     15  S   UNL     1      -1.956  12.476  20.910  0.00  0.00    +0.000 S 
ENDBRANCH   7  11
BRANCH   1  16
ATOM     16  C   UNL     1       3.470   6.068  17.801  0.00  0.00    +0.000 C 
ATOM     17  C   UNL     1       4.950   6.342  18.057  0.00  0.00    +0.000 C 
BRANCH  16  22
ATOM     18  C   UNL     1       0.595   2.162  18.853  0.00  0.00    +0.000 C 
ATOM     19  C   UNL     1       1.892   2.871  18.703  0.00  0.00    +0.000 A 
ATOM     20  C   UNL     1       3.143   2.376  19.016  0.00  0.00    +0.000 A 
ATOM     21  S   UNL     1       4.340   3.567  18.728  0.00  0.00    +0.000 S 
ATOM     22  C   UNL     1       3.113   4.660  18.219  0.00  0.00    +0.000 A 
ATOM     23  N   UNL     1       1.886   4.169  18.219  0.00  0.00    +0.000 NA
ENDBRANCH  16  22
ENDBRANCH   1  16
TORSDOF 3
ENDMDL
MODEL 4
REMARK VINA RESULT:      -6.5      2.804      4.297
REMARK  Name = 
REMARK  5 active torsions:
REMARK  status: ('A' for Active; 'I' for Inactive)
REMARK    1  A    between atoms: C_1  and  C_2
REMARK    2  A    between atoms: C_5  and  C_6
REMARK    3  A    between atoms: C_6  and  C_7
REMARK    4  A    between atoms: C_6  and  N_8
REMARK    5  A    between atoms: N_14  and  C_15
REMARK                            x       y       z     vdW  Elec       q    Type
REMARK                         _______ _______ _______ _____ _____    ______ ____
ROOT
ATOM      1  N   UNL     1       3.832   5.317  18.469  0.00  0.00    +0.000 N 
ATOM      2  C   UNL     1       3.025   5.548  19.546  0.00  0.00    +0.000 C 
ATOM      3  O   UNL     1       2.983   4.791  20.511  0.00  0.00    +0.000 OA
ATOM      4  N   UNL     1       2.296   6.716  19.468  0.00  0.00    +0.000 N 
ATOM      5  C   UNL     1       1.531   7.160  20.636  0.00  0.00    +0.000 C 
ATOM      6  C   UNL     1       1.555   8.697  20.769  0.00  0.00    +0.000 C 
ATOM      7  N   UNL     1       1.144   9.317  19.499  0.00  0.00    +0.000 N 
ATOM      8  C   UNL     1       1.921   8.888  18.325  0.00  0.00    +0.000 C 
ATOM      9  C   UNL     1       1.889   7.358  18.208  0.00  0.00    +0.000 C 
ATOM     10  H   UNL     1       4.171   6.126  17.969  0.00  0.00    +0.000 HD
ENDROOT
BRANCH   7  11
ATOM     11  C   UNL     1       0.279  10.370  19.451  0.00  0.00    +0.000 A 
ATOM     12  C   UNL     1      -0.720  10.605  18.520  0.00  0.00    +0.000 A 
ATOM     13  C   UNL     1      -1.409  11.835  18.722  0.00  0.00    +0.000 A 
ATOM     14  C   UNL     1      -0.914  12.526  19.802  0.00  0.00    +0.000 A 
ATOM     15  S   UNL     1       0.344  11.680  20.577  0.00  0.00    +0.000 S 
ENDBRANCH   7  11
BRANCH   1  16
ATOM     16  C   UNL     1       4.681   4.141  18.375  0.00  0.00    +0.000 C 
ATOM     17  C   UNL     1       3.815   2.891  18.232  0.00  0.00    +0.000 C 
BRANCH  16  22
ATOM     18  C   UNL     1       6.103   3.857  13.629  0.00  0.00    +0.000 C 
ATOM     19  C   UNL     1       6.271   4.221  15.059  0.00  0.00    +0.000 A 
ATOM     20  C   UNL     1       7.398   4.763  15.646  0.00  0.00    +0.000 A 
ATOM     21  S   UNL     1       7.150   4.966  17.328  0.00  0.00    +0.000 S 
ATOM     22  C   UNL     1       5.568   4.309  17.163  0.00  0.00    +0.000 A 
ATOM     23  N   UNL     1       5.217   3.992  15.929  0.00  0.00    +0.000 NA
ENDBRANCH  16  22
ENDBRANCH   1  16
TORSDOF 3
ENDMDL
MODEL 5
REMARK VINA RESULT:      -6.4      2.969      8.285
REMARK  Name = 
REMARK  5 active torsions:
REMARK  status: ('A' for Active; 'I' for Inactive)
REMARK    1  A    between atoms: C_1  and  C_2
REMARK    2  A    between atoms: C_5  and  C_6
REMARK    3  A    between atoms: C_6  and  C_7
REMARK    4  A    between atoms: C_6  and  N_8
REMARK    5  A    between atoms: N_14  and  C_15
REMARK                            x       y       z     vdW  Elec       q    Type
REMARK                         _______ _______ _______ _____ _____    ______ ____
ROOT
ATOM      1  N   UNL     1      -0.715  10.855  19.288  0.00  0.00    +0.000 N 
ATOM      2  C   UNL     1      -0.042  10.135  20.233  0.00  0.00    +0.000 C 
ATOM      3  O   UNL     1      -0.320  10.196  21.427  0.00  0.00    +0.000 OA
ATOM      4  N   UNL     1       0.943   9.315  19.726  0.00  0.00    +0.000 N 
ATOM      5  C   UNL     1       1.613   8.367  20.620  0.00  0.00    +0.000 C 
ATOM      6  C   UNL     1       1.930   7.042  19.893  0.00  0.00    +0.000 C 
ATOM      7  N   UNL     1       2.656   7.318  18.642  0.00  0.00    +0.000 N 
ATOM      8  C   UNL     1       1.979   8.257  17.733  0.00  0.00    +0.000 C 
ATOM      9  C   UNL     1       1.669   9.567  18.470  0.00  0.00    +0.000 C 
ATOM     10  H   UNL     1      -0.778  10.451  18.365  0.00  0.00    +0.000 HD
ENDROOT
BRANCH   7  11
ATOM     11  C   UNL     1       3.740   6.588  18.257  0.00  0.00    +0.000 A 
ATOM     12  C   UNL     1       4.477   6.716  17.089  0.00  0.00    +0.000 A 
ATOM     13  C   UNL     1       5.517   5.751  16.964  0.00  0.00    +0.000 A 
ATOM     14  C   UNL     1       5.551   4.895  18.037  0.00  0.00    +0.000 A 
ATOM     15  S   UNL     1       4.359   5.273  19.192  0.00  0.00    +0.000 S 
ENDBRANCH   7  11
BRANCH   1  16
ATOM     16  C   UNL     1      -1.793  11.768  19.630  0.00  0.00    +0.000 C 
ATOM     17  C   UNL     1      -1.270  13.202  19.637  0.00  0.00    +0.000 C 
BRANCH  16  22
ATOM     18  C   UNL     1      -6.373  11.738  17.721  0.00  0.00    +0.000 C 
ATOM     19  C   UNL     1      -4.898  11.576  17.668  0.00  0.00    +0.000 A 
ATOM     20  C   UNL     1      -4.155  11.133  16.591  0.00  0.00    +0.000 A 
ATOM     21  S   UNL     1      -2.495  11.058  17.008  0.00  0.00    +0.000 S 
ATOM     22  C   UNL     1      -2.880  11.608  18.592  0.00  0.00    +0.000 A 
ATOM     23  N   UNL     1      -4.157  11.875  18.800  0.00  0.00    +0.000 NA
ENDBRANCH  16  22
ENDBRANCH   1  16
TORSDOF 3
ENDMDL
MODEL 6
REMARK VINA RESULT:      -6.3      0.972      1.021
REMARK  Name = 
REMARK  5 active torsions:
REMARK  status: ('A' for Active; 'I' for Inactive)
REMARK    1  A    between atoms: C_1  and  C_2
REMARK    2  A    between atoms: C_5  and  C_6
REMARK    3  A    between atoms: C_6  and  C_7
REMARK    4  A    between atoms: C_6  and  N_8
REMARK    5  A    between atoms: N_14  and  C_15
REMARK                            x       y       z     vdW  Elec       q    Type
REMARK                         _______ _______ _______ _____ _____    ______ ____
ROOT
ATOM      1  N   UNL     1       2.119   7.204  18.988  0.00  0.00    +0.000 N 
ATOM      2  C   UNL     1       1.961   8.458  18.470  0.00  0.00    +0.000 C 
ATOM      3  O   UNL     1       2.287   8.742  17.321  0.00  0.00    +0.000 OA
ATOM      4  N   UNL     1       1.375   9.357  19.335  0.00  0.00    +0.000 N 
ATOM      5  C   UNL     1       0.993  10.681  18.837  0.00  0.00    +0.000 C 
ATOM      6  C   UNL     1      -0.322  11.165  19.487  0.00  0.00    +0.000 C 
ATOM      7  N   UNL     1      -0.221  11.070  20.952  0.00  0.00    +0.000 N 
ATOM      8  C   UNL     1       0.145   9.738  21.458  0.00  0.00    +0.000 C 
ATOM      9  C   UNL     1       1.451   9.270  20.802  0.00  0.00    +0.000 C 
ATOM     10  H   UNL     1       1.459   6.913  19.694  0.00  0.00    +0.000 HD
ENDROOT
BRANCH   7  11
ATOM     11  C   UNL     1      -0.659  12.064  21.776  0.00  0.00    +0.000 A 
ATOM     12  C   UNL     1      -0.153  13.348  21.898  0.00  0.00    +0.000 A 
ATOM     13  C   UNL     1      -0.803  14.124  22.900  0.00  0.00    +0.000 A 
ATOM     14  C   UNL     1      -1.792  13.413  23.535  0.00  0.00    +0.000 A 
ATOM     15  S   UNL     1      -1.949  11.839  22.904  0.00  0.00    +0.000 S 
ENDBRANCH   7  11
BRANCH   1  16
ATOM     16  C   UNL     1       2.712   6.119  18.222  0.00  0.00    +0.000 C 
ATOM     17  C   UNL     1       4.232   6.166  18.356  0.00  0.00    +0.000 C 
BRANCH  16  22
ATOM     18  C   UNL     1       1.472   2.711  21.610  0.00  0.00    +0.000 C 
ATOM     19  C   UNL     1       1.589   3.250  20.231  0.00  0.00    +0.000 A 
ATOM     20  C   UNL     1       1.277   2.590  19.058  0.00  0.00    +0.000 A 
ATOM     21  S   UNL     1       1.622   3.585  17.708  0.00  0.00    +0.000 S 
ATOM     22  C   UNL     1       2.173   4.819  18.773  0.00  0.00    +0.000 A 
ATOM     23  N   UNL     1       2.073   4.537  20.061  0.00  0.00    +0.000 NA
ENDBRANCH  16  22
ENDBRANCH   1  16
TORSDOF 3
ENDMDL
MODEL 7
REMARK VINA RESULT:      -6.3      0.923      1.225
REMARK  Name = 
REMARK  5 active torsions:
REMARK  status: ('A' for Active; 'I' for Inactive)
REMARK    1  A    between atoms: C_1  and  C_2
REMARK    2  A    between atoms: C_5  and  C_6
REMARK    3  A    between atoms: C_6  and  C_7
REMARK    4  A    between atoms: C_6  and  N_8
REMARK    5  A    between atoms: N_14  and  C_15
REMARK                            x       y       z     vdW  Elec       q    Type
REMARK                         _______ _______ _______ _____ _____    ______ ____
ROOT
ATOM      1  N   UNL     1       2.447   6.996  18.691  0.00  0.00    +0.000 N 
ATOM      2  C   UNL     1       2.174   8.253  18.230  0.00  0.00    +0.000 C 
ATOM      3  O   UNL     1       2.550   8.647  17.130  0.00  0.00    +0.000 OA
ATOM      4  N   UNL     1       1.414   9.017  19.089  0.00  0.00    +0.000 N 
ATOM      5  C   UNL     1       0.909  10.315  18.633  0.00  0.00    +0.000 C 
ATOM      6  C   UNL     1      -0.502  10.594  19.193  0.00  0.00    +0.000 C 
ATOM      7  N   UNL     1      -0.505  10.418  20.654  0.00  0.00    +0.000 N 
ATOM      8  C   UNL     1      -0.016   9.110  21.117  0.00  0.00    +0.000 C 
ATOM      9  C   UNL     1       1.386   8.846  20.551  0.00  0.00    +0.000 C 
ATOM     10  H   UNL     1       1.776   6.584  19.321  0.00  0.00    +0.000 HD
ENDROOT
BRANCH   7  11
ATOM     11  C   UNL     1      -1.128  11.297  21.490  0.00  0.00    +0.000 A 
ATOM     12  C   UNL     1      -1.276  11.200  22.864  0.00  0.00    +0.000 A 
ATOM     13  C   UNL     1      -2.036  12.263  23.432  0.00  0.00    +0.000 A 
ATOM     14  C   UNL     1      -2.465  13.151  22.475  0.00  0.00    +0.000 A 
ATOM     15  S   UNL     1      -1.927  12.719  20.918  0.00  0.00    +0.000 S 
ENDBRANCH   7  11
BRANCH   1  16
ATOM     16  C   UNL     1       3.229   6.042  17.921  0.00  0.00    +0.000 C 
ATOM     17  C   UNL     1       4.713   6.380  18.038  0.00  0.00    +0.000 C 
BRANCH  16  22
ATOM     18  C   UNL     1       3.720   1.145  18.556  0.00  0.00    +0.000 C 
ATOM     19  C   UNL     1       3.120   2.477  18.821  0.00  0.00    +0.000 A 
ATOM     20  C   UNL     1       2.044   2.749  19.643  0.00  0.00    +0.000 A 
ATOM     21  S   UNL     1       1.671   4.420  19.599  0.00  0.00    +0.000 S 
ATOM     22  C   UNL     1       2.956   4.665  18.481  0.00  0.00    +0.000 A 
ATOM     23  N   UNL     1       3.655   3.584  18.182  0.00  0.00    +0.000 NA
ENDBRANCH  16  22
ENDBRANCH   1  16
TORSDOF 3
ENDMDL
MODEL 8
REMARK VINA RESULT:      -6.3      1.155      1.329
REMARK  Name = 
REMARK  5 active torsions:
REMARK  status: ('A' for Active; 'I' for Inactive)
REMARK    1  A    between atoms: C_1  and  C_2
REMARK    2  A    between atoms: C_5  and  C_6
REMARK    3  A    between atoms: C_6  and  C_7
REMARK    4  A    between atoms: C_6  and  N_8
REMARK    5  A    between atoms: N_14  and  C_15
REMARK                            x       y       z     vdW  Elec       q    Type
REMARK                         _______ _______ _______ _____ _____    ______ ____
ROOT
ATOM      1  N   UNL     1       2.566   6.851  18.565  0.00  0.00    +0.000 N 
ATOM      2  C   UNL     1       2.308   8.107  18.095  0.00  0.00    +0.000 C 
ATOM      3  O   UNL     1       2.704   8.495  17.000  0.00  0.00    +0.000 OA
ATOM      4  N   UNL     1       1.539   8.879  18.939  0.00  0.00    +0.000 N 
ATOM      5  C   UNL     1       1.049  10.179  18.471  0.00  0.00    +0.000 C 
ATOM      6  C   UNL     1      -0.369  10.468  19.007  0.00  0.00    +0.000 C 
ATOM      7  N   UNL     1      -0.397  10.297  20.469  0.00  0.00    +0.000 N 
ATOM      8  C   UNL     1       0.077   8.988  20.944  0.00  0.00    +0.000 C 
ATOM      9  C   UNL     1       1.486   8.713  20.401  0.00  0.00    +0.000 C 
ATOM     10  H   UNL     1       1.882   6.444  19.186  0.00  0.00    +0.000 HD
ENDROOT
BRANCH   7  11
ATOM     11  C   UNL     1      -1.027  11.183  21.291  0.00  0.00    +0.000 A 
ATOM     12  C   UNL     1      -1.641  12.375  20.941  0.00  0.00    +0.000 A 
ATOM     13  C   UNL     1      -2.154  13.100  22.054  0.00  0.00    +0.000 A 
ATOM     14  C   UNL     1      -1.914  12.451  23.241  0.00  0.00    +0.000 A 
ATOM     15  S   UNL     1      -1.105  10.971  23.005  0.00  0.00    +0.000 S 
ENDBRANCH   7  11
BRANCH   1  16
ATOM     16  C   UNL     1       3.355   5.889  17.811  0.00  0.00    +0.000 C 
ATOM     17  C   UNL     1       4.823   6.306  17.823  0.00  0.00    +0.000 C 
BRANCH  16  22
ATOM     18  C   UNL     1       4.567   1.853  20.433  0.00  0.00    +0.000 C 
ATOM     19  C   UNL     1       3.653   2.706  19.631  0.00  0.00    +0.000 A 
ATOM     20  C   UNL     1       2.375   2.384  19.216  0.00  0.00    +0.000 A 
ATOM     21  S   UNL     1       1.721   3.654  18.271  0.00  0.00    +0.000 S 
ATOM     22  C   UNL     1       3.184   4.538  18.468  0.00  0.00    +0.000 A 
ATOM     23  N   UNL     1       4.097   3.954  19.224  0.00  0.00    +0.000 NA
ENDBRANCH  16  22
ENDBRANCH   1  16
TORSDOF 3
ENDMDL
MODEL 9
REMARK VINA RESULT:      -6.2      2.394      8.189
REMARK  Name = 
REMARK  5 active torsions:
REMARK  status: ('A' for Active; 'I' for Inactive)
REMARK    1  A    between atoms: C_1  and  C_2
REMARK    2  A    between atoms: C_5  and  C_6
REMARK    3  A    between atoms: C_6  and  C_7
REMARK    4  A    between atoms: C_6  and  N_8
REMARK    5  A    between atoms: N_14  and  C_15
REMARK                            x       y       z     vdW  Elec       q    Type
REMARK                         _______ _______ _______ _____ _____    ______ ____
ROOT
ATOM      1  N   UNL     1       1.139   9.643  19.253  0.00  0.00    +0.000 N 
ATOM      2  C   UNL     1       1.344   8.790  20.299  0.00  0.00    +0.000 C 
ATOM      3  O   UNL     1       1.114   9.107  21.462  0.00  0.00    +0.000 OA
ATOM      4  N   UNL     1       1.793   7.540  19.930  0.00  0.00    +0.000 N 
ATOM      5  C   UNL     1       1.882   6.484  20.943  0.00  0.00    +0.000 C 
ATOM      6  C   UNL     1       1.504   5.109  20.352  0.00  0.00    +0.000 C 
ATOM      7  N   UNL     1       2.291   4.854  19.134  0.00  0.00    +0.000 N 
ATOM      8  C   UNL     1       2.193   5.902  18.107  0.00  0.00    +0.000 C 
ATOM      9  C   UNL     1       2.568   7.262  18.709  0.00  0.00    +0.000 C 
ATOM     10  H   UNL     1       0.897   9.229  18.365  0.00  0.00    +0.000 HD
ENDROOT
BRANCH   7  11
ATOM     11  C   UNL     1       2.870   3.645  18.885  0.00  0.00    +0.000 A 
ATOM     12  C   UNL     1       2.971   2.988  17.669  0.00  0.00    +0.000 A 
ATOM     13  C   UNL     1       3.583   1.705  17.763  0.00  0.00    +0.000 A 
ATOM     14  C   UNL     1       3.932   1.400  19.056  0.00  0.00    +0.000 A 
ATOM     15  S   UNL     1       3.550   2.662  20.134  0.00  0.00    +0.000 S 
ENDBRANCH   7  11
BRANCH   1  16
ATOM     16  C   UNL     1       0.659  11.002  19.444  0.00  0.00    +0.000 C 
ATOM     17  C   UNL     1       1.586  11.981  18.728  0.00  0.00    +0.000 C 
BRANCH  16  22
ATOM     18  C   UNL     1      -3.145  10.007  16.416  0.00  0.00    +0.000 C 
ATOM     19  C   UNL     1      -2.484  10.685  17.561  0.00  0.00    +0.000 A 
ATOM     20  C   UNL     1      -3.028  11.671  18.360  0.00  0.00    +0.000 A 
ATOM     21  S   UNL     1      -1.881  12.193  19.520  0.00  0.00    +0.000 S 
ATOM     22  C   UNL     1      -0.738  11.082  18.872  0.00  0.00    +0.000 A 
ATOM     23  N   UNL     1      -1.183  10.332  17.879  0.00  0.00    +0.000 NA
ENDBRANCH  16  22
ENDBRANCH   1  16
TORSDOF 3
ENDMDL
