MODEL 1
REMARK VINA RESULT:      -7.1      0.000      0.000
REMARK  Name = 
REMARK  9 active torsions:
REMARK  status: ('A' for Active; 'I' for Inactive)
REMARK    1  A    between atoms: C_6  and  C_7
REMARK    2  A    between atoms: C_6  and  C_12
REMARK    3  A    between atoms: C_7  and  S_8
REMARK    4  A    between atoms: S_8  and  C_9
REMARK    5  A    between atoms: C_9  and  C_10
REMARK    6  A    between atoms: C_10  and  O_11
REMARK    7  A    between atoms: C_12  and  S_13
REMARK    8  A    between atoms: S_13  and  C_14
REMARK    9  A    between atoms: C_14  and  C_15
REMARK                            x       y       z     vdW  Elec       q    Type
REMARK                         _______ _______ _______ _____ _____    ______ ____
ROOT
ATOM      1  O   UNL     1       7.958   5.324  20.762  0.00  0.00    +0.000 OA
ATOM      2  C   UNL     1       7.650   5.594  19.612  0.00  0.00    +0.000 C 
ATOM      3  N   UNL     1       8.129   6.623  18.879  0.00  0.00    +0.000 N 
ATOM      4  C   UNL     1       7.561   6.645  17.637  0.00  0.00    +0.000 C 
ATOM      5  O   UNL     1       7.789   7.476  16.774  0.00  0.00    +0.000 OA
ATOM      6  C   UNL     1       6.593   5.459  17.514  0.00  0.00    +0.000 C 
ATOM      7  N   UNL     1       6.735   4.905  18.855  0.00  0.00    +0.000 N 
ATOM      8  H   UNL     1       8.829   7.264  19.206  0.00  0.00    +0.000 HD
ATOM      9  H   UNL     1       6.265   4.080  19.202  0.00  0.00    +0.000 HD
ENDROOT
BRANCH   6  10
ATOM     10  C   UNL     1       7.068   4.500  16.396  0.00  0.00    +0.000 C 
BRANCH  10  11
ATOM     11  S   UNL     1       6.901   5.169  14.699  0.00  0.00    +0.000 S 
BRANCH  11  12
ATOM     12  C   UNL     1       5.968   3.792  13.942  0.00  0.00    +0.000 C 
BRANCH  12  13
ATOM     13  C   UNL     1       6.457   3.604  12.508  0.00  0.00    +0.000 C 
BRANCH  13  14
ATOM     14  O   UNL     1       7.431   4.585  12.164  0.00  0.00    +0.000 OA
ATOM     15  H   UNL     1       8.140   4.504  12.830  0.00  0.00    +0.000 HD
ENDBRANCH  13  14
ENDBRANCH  12  13
ENDBRANCH  11  12
ENDBRANCH  10  11
ENDBRANCH   6  10
BRANCH   6  16
ATOM     16  C   UNL     1       5.161   5.988  17.282  0.00  0.00    +0.000 C 
BRANCH  16  17
ATOM     17  S   UNL     1       3.982   4.584  17.256  0.00  0.00    +0.000 S 
BRANCH  17  18
ATOM     18  C   UNL     1       2.509   5.343  18.001  0.00  0.00    +0.000 C 
BRANCH  18  19
ATOM     19  C   UNL     1       2.052   4.494  19.164  0.00  0.00    +0.000 A 
ATOM     20  C   UNL     1       2.548   4.732  20.455  0.00  0.00    +0.000 A 
ATOM     21  C   UNL     1       2.181   3.905  21.520  0.00  0.00    +0.000 A 
ATOM     22  C   UNL     1       1.314   2.836  21.307  0.00  0.00    +0.000 A 
ATOM     23  C   UNL     1       0.817   2.586  20.029  0.00  0.00    +0.000 A 
ATOM     24  C   UNL     1       1.190   3.406  18.961  0.00  0.00    +0.000 A 
ENDBRANCH  18  19
ENDBRANCH  17  18
ENDBRANCH  16  17
ENDBRANCH   6  16
TORSDOF 9
ENDMDL
MODEL 2
REMARK VINA RESULT:      -6.9      2.033      2.527
REMARK  Name = 
REMARK  9 active torsions:
REMARK  status: ('A' for Active; 'I' for Inactive)
REMARK    1  A    between atoms: C_6  and  C_7
REMARK    2  A    between atoms: C_6  and  C_12
REMARK    3  A    between atoms: C_7  and  S_8
REMARK    4  A    between atoms: S_8  and  C_9
REMARK    5  A    between atoms: C_9  and  C_10
REMARK    6  A    between atoms: C_10  and  O_11
REMARK    7  A    between atoms: C_12  and  S_13
REMARK    8  A    between atoms: S_13  and  C_14
REMARK    9  A    between atoms: C_14  and  C_15
REMARK                            x       y       z     vdW  Elec       q    Type
REMARK                         _______ _______ _______ _____ _____    ______ ____
ROOT
ATOM      1  O   UNL     1       3.696   2.389  17.984  0.00  0.00    +0.000 OA
ATOM      2  C   UNL     1       4.353   3.407  18.124  0.00  0.00    +0.000 C 
ATOM      3  N   UNL     1       5.294   3.626  19.069  0.00  0.00    +0.000 N 
ATOM      4  C   UNL     1       5.824   4.879  18.951  0.00  0.00    +0.000 C 
ATOM      5  O   UNL     1       6.676   5.354  19.683  0.00  0.00    +0.000 OA
ATOM      6  C   UNL     1       5.170   5.583  17.754  0.00  0.00    +0.000 C 
ATOM      7  N   UNL     1       4.238   4.537  17.351  0.00  0.00    +0.000 N 
ATOM      8  H   UNL     1       5.576   2.940  19.746  0.00  0.00    +0.000 HD
ATOM      9  H   UNL     1       3.603   4.587  16.566  0.00  0.00    +0.000 HD
ENDROOT
BRANCH   6  10
ATOM     10  C   UNL     1       6.238   5.906  16.680  0.00  0.00    +0.000 C 
BRANCH  10  11
ATOM     11  S   UNL     1       7.221   4.463  16.128  0.00  0.00    +0.000 S 
BRANCH  11  12
ATOM     12  C   UNL     1       6.331   4.090  14.576  0.00  0.00    +0.000 C 
BRANCH  12  13
ATOM     13  C   UNL     1       7.055   4.780  13.422  0.00  0.00    +0.000 C 
BRANCH  13  14
ATOM     14  O   UNL     1       8.120   5.598  13.899  0.00  0.00    +0.000 OA
ATOM     15  H   UNL     1       7.728   6.180  14.578  0.00  0.00    +0.000 HD
ENDBRANCH  13  14
ENDBRANCH  12  13
ENDBRANCH  11  12
ENDBRANCH  10  11
ENDBRANCH   6  10
BRANCH   6  16
ATOM     16  C   UNL     1       4.416   6.837  18.245  0.00  0.00    +0.000 C 
BRANCH  16  17
ATOM     17  S   UNL     1       2.608   6.539  18.171  0.00  0.00    +0.000 S 
BRANCH  17  18
ATOM     18  C   UNL     1       2.191   6.445  19.936  0.00  0.00    +0.000 C 
BRANCH  18  19
ATOM     19  C   UNL     1       1.881   5.010  20.293  0.00  0.00    +0.000 A 
ATOM     20  C   UNL     1       2.488   4.407  21.406  0.00  0.00    +0.000 A 
ATOM     21  C   UNL     1       2.257   3.061  21.698  0.00  0.00    +0.000 A 
ATOM     22  C   UNL     1       1.417   2.304  20.885  0.00  0.00    +0.000 A 
ATOM     23  C   UNL     1       0.811   2.889  19.775  0.00  0.00    +0.000 A 
ATOM     24  C   UNL     1       1.047   4.233  19.476  0.00  0.00    +0.000 A 
ENDBRANCH  18  19
ENDBRANCH  17  18
ENDBRANCH  16  17
ENDBRANCH   6  16
TORSDOF 9
ENDMDL
MODEL 3
REMARK VINA RESULT:      -6.9      2.056      2.744
REMARK  Name = 
REMARK  9 active torsions:
REMARK  status: ('A' for Active; 'I' for Inactive)
REMARK    1  A    between atoms: C_6  and  C_7
REMARK    2  A    between atoms: C_6  and  C_12
REMARK    3  A    between atoms: C_7  and  S_8
REMARK    4  A    between atoms: S_8  and  C_9
REMARK    5  A    between atoms: C_9  and  C_10
REMARK    6  A    between atoms: C_10  and  O_11
REMARK    7  A    between atoms: C_12  and  S_13
REMARK    8  A    between atoms: S_13  and  C_14
REMARK    9  A    between atoms: C_14  and  C_15
REMARK                            x       y       z     vdW  Elec       q    Type
REMARK                         _______ _______ _______ _____ _____    ______ ____
ROOT
ATOM      1  O   UNL     1       3.539   2.409  17.828  0.00  0.00    +0.000 OA
ATOM      2  C   UNL     1       4.247   3.393  17.973  0.00  0.00    +0.000 C 
ATOM      3  N   UNL     1       5.277   3.514  18.839  0.00  0.00    +0.000 N 
ATOM      4  C   UNL     1       5.844   4.754  18.753  0.00  0.00    +0.000 C 
ATOM      5  O   UNL     1       6.777   5.148  19.433  0.00  0.00    +0.000 OA
ATOM      6  C   UNL     1       5.114   5.560  17.670  0.00  0.00    +0.000 C 
ATOM      7  N   UNL     1       4.109   4.576  17.288  0.00  0.00    +0.000 N 
ATOM      8  H   UNL     1       5.591   2.775  19.441  0.00  0.00    +0.000 HD
ATOM      9  H   UNL     1       3.408   4.701  16.570  0.00  0.00    +0.000 HD
ENDROOT
BRANCH   6  10
ATOM     10  C   UNL     1       6.093   5.919  16.526  0.00  0.00    +0.000 C 
BRANCH  10  11
ATOM     11  S   UNL     1       7.067   4.505  15.887  0.00  0.00    +0.000 S 
BRANCH  11  12
ATOM     12  C   UNL     1       6.874   4.814  14.096  0.00  0.00    +0.000 C 
BRANCH  12  13
ATOM     13  C   UNL     1       5.837   3.840  13.543  0.00  0.00    +0.000 C 
BRANCH  13  14
ATOM     14  O   UNL     1       6.437   2.893  12.664  0.00  0.00    +0.000 OA
ATOM     15  H   UNL     1       7.401   2.980  12.795  0.00  0.00    +0.000 HD
ENDBRANCH  13  14
ENDBRANCH  12  13
ENDBRANCH  11  12
ENDBRANCH  10  11
ENDBRANCH   6  10
BRANCH   6  16
ATOM     16  C   UNL     1       4.459   6.803  18.310  0.00  0.00    +0.000 C 
BRANCH  16  17
ATOM     17  S   UNL     1       2.635   6.685  18.158  0.00  0.00    +0.000 S 
BRANCH  17  18
ATOM     18  C   UNL     1       2.143   6.522  19.898  0.00  0.00    +0.000 C 
BRANCH  18  19
ATOM     19  C   UNL     1       1.927   5.060  20.215  0.00  0.00    +0.000 A 
ATOM     20  C   UNL     1       1.078   4.278  19.416  0.00  0.00    +0.000 A 
ATOM     21  C   UNL     1       0.822   2.946  19.746  0.00  0.00    +0.000 A 
ATOM     22  C   UNL     1       1.412   2.380  20.875  0.00  0.00    +0.000 A 
ATOM     23  C   UNL     1       2.253   3.147  21.678  0.00  0.00    +0.000 A 
ATOM     24  C   UNL     1       2.504   4.482  21.355  0.00  0.00    +0.000 A 
ENDBRANCH  18  19
ENDBRANCH  17  18
ENDBRANCH  16  17
ENDBRANCH   6  16
TORSDOF 9
ENDMDL
MODEL 4
REMARK VINA RESULT:      -6.6      2.777      6.344
REMARK  Name = 
REMARK  9 active torsions:
REMARK  status: ('A' for Active; 'I' for Inactive)
REMARK    1  A    between atoms: C_6  and  C_7
REMARK    2  A    between atoms: C_6  and  C_12
REMARK    3  A    between atoms: C_7  and  S_8
REMARK    4  A    between atoms: S_8  and  C_9
REMARK    5  A    between atoms: C_9  and  C_10
REMARK    6  A    between atoms: C_10  and  O_11
REMARK    7  A    between atoms: C_12  and  S_13
REMARK    8  A    between atoms: S_13  and  C_14
REMARK    9  A    between atoms: C_14  and  C_15
REMARK                            x       y       z     vdW  Elec       q    Type
REMARK                         _______ _______ _______ _____ _____    ______ ____
ROOT
ATOM      1  O   UNL     1       3.484   7.084  18.339  0.00  0.00    +0.000 OA
ATOM      2  C   UNL     1       3.723   5.887  18.367  0.00  0.00    +0.000 C 
ATOM      3  N   UNL     1       4.419   5.235  19.324  0.00  0.00    +0.000 N 
ATOM      4  C   UNL     1       4.513   3.902  19.038  0.00  0.00    +0.000 C 
ATOM      5  O   UNL     1       5.103   3.078  19.715  0.00  0.00    +0.000 OA
ATOM      6  C   UNL     1       3.758   3.622  17.730  0.00  0.00    +0.000 C 
ATOM      7  N   UNL     1       3.339   4.981  17.409  0.00  0.00    +0.000 N 
ATOM      8  H   UNL     1       4.790   5.677  20.145  0.00  0.00    +0.000 HD
ATOM      9  H   UNL     1       2.787   5.250  16.606  0.00  0.00    +0.000 HD
ENDROOT
BRANCH   6  10
ATOM     10  C   UNL     1       2.577   2.657  17.996  0.00  0.00    +0.000 C 
BRANCH  10  11
ATOM     11  S   UNL     1       1.255   3.349  19.059  0.00  0.00    +0.000 S 
BRANCH  11  12
ATOM     12  C   UNL     1       1.616   2.428  20.595  0.00  0.00    +0.000 C 
BRANCH  12  13
ATOM     13  C   UNL     1       2.042   3.424  21.671  0.00  0.00    +0.000 C 
BRANCH  13  14
ATOM     14  O   UNL     1       2.017   4.759  21.174  0.00  0.00    +0.000 OA
ATOM     15  H   UNL     1       1.476   4.733  20.362  0.00  0.00    +0.000 HD
ENDBRANCH  13  14
ENDBRANCH  12  13
ENDBRANCH  11  12
ENDBRANCH  10  11
ENDBRANCH   6  10
BRANCH   6  16
ATOM     16  C   UNL     1       4.746   3.082  16.674  0.00  0.00    +0.000 C 
BRANCH  16  17
ATOM     17  S   UNL     1       5.054   4.368  15.403  0.00  0.00    +0.000 S 
BRANCH  17  18
ATOM     18  C   UNL     1       6.861   4.521  15.482  0.00  0.00    +0.000 C 
BRANCH  18  19
ATOM     19  C   UNL     1       7.235   5.333  16.700  0.00  0.00    +0.000 A 
ATOM     20  C   UNL     1       7.216   6.736  16.653  0.00  0.00    +0.000 A 
ATOM     21  C   UNL     1       7.627   7.489  17.755  0.00  0.00    +0.000 A 
ATOM     22  C   UNL     1       8.058   6.850  18.916  0.00  0.00    +0.000 A 
ATOM     23  C   UNL     1       8.085   5.458  18.975  0.00  0.00    +0.000 A 
ATOM     24  C   UNL     1       7.683   4.703  17.871  0.00  0.00    +0.000 A 
ENDBRANCH  18  19
ENDBRANCH  17  18
ENDBRANCH  16  17
ENDBRANCH   6  16
TORSDOF 9
ENDMDL
MODEL 5
REMARK VINA RESULT:      -6.6      2.351      4.172
REMARK  Name = 
REMARK  9 active torsions:
REMARK  status: ('A' for Active; 'I' for Inactive)
REMARK    1  A    between atoms: C_6  and  C_7
REMARK    2  A    between atoms: C_6  and  C_12
REMARK    3  A    between atoms: C_7  and  S_8
REMARK    4  A    between atoms: S_8  and  C_9
REMARK    5  A    between atoms: C_9  and  C_10
REMARK    6  A    between atoms: C_10  and  O_11
REMARK    7  A    between atoms: C_12  and  S_13
REMARK    8  A    between atoms: S_13  and  C_14
REMARK    9  A    between atoms: C_14  and  C_15
REMARK                            x       y       z     vdW  Elec       q    Type
REMARK                         _______ _______ _______ _____ _____    ______ ____
ROOT
ATOM      1  O   UNL     1       8.004   7.574  16.788  0.00  0.00    +0.000 OA
ATOM      2  C   UNL     1       7.209   6.762  17.234  0.00  0.00    +0.000 C 
ATOM      3  N   UNL     1       7.394   5.977  18.319  0.00  0.00    +0.000 N 
ATOM      4  C   UNL     1       6.311   5.172  18.530  0.00  0.00    +0.000 C 
ATOM      5  O   UNL     1       6.212   4.347  19.424  0.00  0.00    +0.000 OA
ATOM      6  C   UNL     1       5.252   5.475  17.461  0.00  0.00    +0.000 C 
ATOM      7  N   UNL     1       5.977   6.481  16.695  0.00  0.00    +0.000 N 
ATOM      8  H   UNL     1       8.212   6.011  18.900  0.00  0.00    +0.000 HD
ATOM      9  H   UNL     1       5.623   6.969  15.884  0.00  0.00    +0.000 HD
ENDROOT
BRANCH   6  10
ATOM     10  C   UNL     1       3.964   6.017  18.128  0.00  0.00    +0.000 C 
BRANCH  10  11
ATOM     11  S   UNL     1       3.460   7.685  17.563  0.00  0.00    +0.000 S 
BRANCH  11  12
ATOM     12  C   UNL     1       2.173   8.031  18.814  0.00  0.00    +0.000 C 
BRANCH  12  13
ATOM     13  C   UNL     1       1.341   9.219  18.338  0.00  0.00    +0.000 C 
BRANCH  13  14
ATOM     14  O   UNL     1       2.054   9.997  17.382  0.00  0.00    +0.000 OA
ATOM     15  H   UNL     1       1.651   9.793  16.516  0.00  0.00    +0.000 HD
ENDBRANCH  13  14
ENDBRANCH  12  13
ENDBRANCH  11  12
ENDBRANCH  10  11
ENDBRANCH   6  10
BRANCH   6  16
ATOM     16  C   UNL     1       5.000   4.208  16.615  0.00  0.00    +0.000 C 
BRANCH  16  17
ATOM     17  S   UNL     1       3.234   3.727  16.734  0.00  0.00    +0.000 S 
BRANCH  17  18
ATOM     18  C   UNL     1       3.335   2.266  17.806  0.00  0.00    +0.000 C 
BRANCH  18  19
ATOM     19  C   UNL     1       2.668   2.576  19.126  0.00  0.00    +0.000 A 
ATOM     20  C   UNL     1       3.373   2.428  20.331  0.00  0.00    +0.000 A 
ATOM     21  C   UNL     1       2.740   2.647  21.556  0.00  0.00    +0.000 A 
ATOM     22  C   UNL     1       1.397   3.017  21.591  0.00  0.00    +0.000 A 
ATOM     23  C   UNL     1       0.684   3.164  20.403  0.00  0.00    +0.000 A 
ATOM     24  C   UNL     1       1.314   2.937  19.177  0.00  0.00    +0.000 A 
ENDBRANCH  18  19
ENDBRANCH  17  18
ENDBRANCH  16  17
ENDBRANCH   6  16
TORSDOF 9
ENDMDL
MODEL 6
REMARK VINA RESULT:      -6.5      3.168      5.321
REMARK  Name = 
REMARK  9 active torsions:
REMARK  status: ('A' for Active; 'I' for Inactive)
REMARK    1  A    between atoms: C_6  and  C_7
REMARK    2  A    between atoms: C_6  and  C_12
REMARK    3  A    between atoms: C_7  and  S_8
REMARK    4  A    between atoms: S_8  and  C_9
REMARK    5  A    between atoms: C_9  and  C_10
REMARK    6  A    between atoms: C_10  and  O_11
REMARK    7  A    between atoms: C_12  and  S_13
REMARK    8  A    between atoms: S_13  and  C_14
REMARK    9  A    between atoms: C_14  and  C_15
REMARK                            x       y       z     vdW  Elec       q    Type
REMARK                         _______ _______ _______ _____ _____    ______ ____
ROOT
ATOM      1  O   UNL     1       8.030   5.125  19.869  0.00  0.00    +0.000 OA
ATOM      2  C   UNL     1       7.204   4.862  19.010  0.00  0.00    +0.000 C 
ATOM      3  N   UNL     1       7.466   4.469  17.744  0.00  0.00    +0.000 N 
ATOM      4  C   UNL     1       6.311   4.274  17.043  0.00  0.00    +0.000 C 
ATOM      5  O   UNL     1       6.247   3.939  15.871  0.00  0.00    +0.000 OA
ATOM      6  C   UNL     1       5.117   4.549  17.968  0.00  0.00    +0.000 C 
ATOM      7  N   UNL     1       5.842   4.940  19.171  0.00  0.00    +0.000 N 
ATOM      8  H   UNL     1       8.392   4.318  17.386  0.00  0.00    +0.000 HD
ATOM      9  H   UNL     1       5.421   5.198  20.053  0.00  0.00    +0.000 HD
ENDROOT
BRANCH   6  10
ATOM     10  C   UNL     1       4.276   3.261  18.146  0.00  0.00    +0.000 C 
BRANCH  10  11
ATOM     11  S   UNL     1       4.106   2.698  19.881  0.00  0.00    +0.000 S 
BRANCH  11  12
ATOM     12  C   UNL     1       2.332   2.260  19.864  0.00  0.00    +0.000 C 
BRANCH  12  13
ATOM     13  C   UNL     1       1.602   3.149  20.869  0.00  0.00    +0.000 C 
BRANCH  13  14
ATOM     14  O   UNL     1       1.886   2.752  22.208  0.00  0.00    +0.000 OA
ATOM     15  H   UNL     1       2.334   3.513  22.624  0.00  0.00    +0.000 HD
ENDBRANCH  13  14
ENDBRANCH  12  13
ENDBRANCH  11  12
ENDBRANCH  10  11
ENDBRANCH   6  10
BRANCH   6  16
ATOM     16  C   UNL     1       4.294   5.729  17.408  0.00  0.00    +0.000 C 
BRANCH  16  17
ATOM     17  S   UNL     1       2.558   5.600  17.984  0.00  0.00    +0.000 S 
BRANCH  17  18
ATOM     18  C   UNL     1       2.645   6.475  19.573  0.00  0.00    +0.000 C 
BRANCH  18  19
ATOM     19  C   UNL     1       1.981   7.825  19.429  0.00  0.00    +0.000 A 
ATOM     20  C   UNL     1       2.054   8.527  18.216  0.00  0.00    +0.000 A 
ATOM     21  C   UNL     1       1.502   9.805  18.101  0.00  0.00    +0.000 A 
ATOM     22  C   UNL     1       0.869  10.393  19.195  0.00  0.00    +0.000 A 
ATOM     23  C   UNL     1       0.793   9.708  20.405  0.00  0.00    +0.000 A 
ATOM     24  C   UNL     1       1.353   8.434  20.525  0.00  0.00    +0.000 A 
ENDBRANCH  18  19
ENDBRANCH  17  18
ENDBRANCH  16  17
ENDBRANCH   6  16
TORSDOF 9
ENDMDL
MODEL 7
REMARK VINA RESULT:      -6.5      1.121      1.567
REMARK  Name = 
REMARK  9 active torsions:
REMARK  status: ('A' for Active; 'I' for Inactive)
REMARK    1  A    between atoms: C_6  and  C_7
REMARK    2  A    between atoms: C_6  and  C_12
REMARK    3  A    between atoms: C_7  and  S_8
REMARK    4  A    between atoms: S_8  and  C_9
REMARK    5  A    between atoms: C_9  and  C_10
REMARK    6  A    between atoms: C_10  and  O_11
REMARK    7  A    between atoms: C_12  and  S_13
REMARK    8  A    between atoms: S_13  and  C_14
REMARK    9  A    between atoms: C_14  and  C_15
REMARK                            x       y       z     vdW  Elec       q    Type
REMARK                         _______ _______ _______ _____ _____    ______ ____
ROOT
ATOM      1  O   UNL     1       7.282   5.113  20.363  0.00  0.00    +0.000 OA
ATOM      2  C   UNL     1       6.939   5.636  19.315  0.00  0.00    +0.000 C 
ATOM      3  N   UNL     1       7.686   6.467  18.555  0.00  0.00    +0.000 N 
ATOM      4  C   UNL     1       6.990   6.884  17.456  0.00  0.00    +0.000 C 
ATOM      5  O   UNL     1       7.409   7.656  16.610  0.00  0.00    +0.000 OA
ATOM      6  C   UNL     1       5.603   6.226  17.468  0.00  0.00    +0.000 C 
ATOM      7  N   UNL     1       5.708   5.489  18.722  0.00  0.00    +0.000 N 
ATOM      8  H   UNL     1       8.635   6.716  18.768  0.00  0.00    +0.000 HD
ATOM      9  H   UNL     1       4.993   4.890  19.113  0.00  0.00    +0.000 HD
ENDROOT
BRANCH   6  10
ATOM     10  C   UNL     1       5.438   5.315  16.228  0.00  0.00    +0.000 C 
BRANCH  10  11
ATOM     11  S   UNL     1       6.939   4.370  15.773  0.00  0.00    +0.000 S 
BRANCH  11  12
ATOM     12  C   UNL     1       6.929   4.672  13.971  0.00  0.00    +0.000 C 
BRANCH  12  13
ATOM     13  C   UNL     1       5.954   3.694  13.320  0.00  0.00    +0.000 C 
BRANCH  13  14
ATOM     14  O   UNL     1       6.588   2.947  12.286  0.00  0.00    +0.000 OA
ATOM     15  H   UNL     1       7.522   2.855  12.556  0.00  0.00    +0.000 HD
ENDBRANCH  13  14
ENDBRANCH  12  13
ENDBRANCH  11  12
ENDBRANCH  10  11
ENDBRANCH   6  10
BRANCH   6  16
ATOM     16  C   UNL     1       4.517   7.320  17.558  0.00  0.00    +0.000 C 
BRANCH  16  17
ATOM     17  S   UNL     1       3.302   6.878  18.858  0.00  0.00    +0.000 S 
BRANCH  17  18
ATOM     18  C   UNL     1       2.245   5.698  17.970  0.00  0.00    +0.000 C 
BRANCH  18  19
ATOM     19  C   UNL     1       1.911   4.546  18.890  0.00  0.00    +0.000 A 
ATOM     20  C   UNL     1       1.452   3.328  18.365  0.00  0.00    +0.000 A 
ATOM     21  C   UNL     1       1.077   2.285  19.215  0.00  0.00    +0.000 A 
ATOM     22  C   UNL     1       1.159   2.447  20.597  0.00  0.00    +0.000 A 
ATOM     23  C   UNL     1       1.610   3.652  21.131  0.00  0.00    +0.000 A 
ATOM     24  C   UNL     1       1.977   4.699  20.282  0.00  0.00    +0.000 A 
ENDBRANCH  18  19
ENDBRANCH  17  18
ENDBRANCH  16  17
ENDBRANCH   6  16
TORSDOF 9
ENDMDL
MODEL 8
REMARK VINA RESULT:      -6.5      2.178      4.264
REMARK  Name = 
REMARK  9 active torsions:
REMARK  status: ('A' for Active; 'I' for Inactive)
REMARK    1  A    between atoms: C_6  and  C_7
REMARK    2  A    between atoms: C_6  and  C_12
REMARK    3  A    between atoms: C_7  and  S_8
REMARK    4  A    between atoms: S_8  and  C_9
REMARK    5  A    between atoms: C_9  and  C_10
REMARK    6  A    between atoms: C_10  and  O_11
REMARK    7  A    between atoms: C_12  and  S_13
REMARK    8  A    between atoms: S_13  and  C_14
REMARK    9  A    between atoms: C_14  and  C_15
REMARK                            x       y       z     vdW  Elec       q    Type
REMARK                         _______ _______ _______ _____ _____    ______ ____
ROOT
ATOM      1  O   UNL     1       7.302   5.149  13.783  0.00  0.00    +0.000 OA
ATOM      2  C   UNL     1       7.064   5.198  14.979  0.00  0.00    +0.000 C 
ATOM      3  N   UNL     1       7.749   4.565  15.956  0.00  0.00    +0.000 N 
ATOM      4  C   UNL     1       7.205   4.823  17.182  0.00  0.00    +0.000 C 
ATOM      5  O   UNL     1       7.605   4.365  18.240  0.00  0.00    +0.000 OA
ATOM      6  C   UNL     1       6.014   5.776  17.006  0.00  0.00    +0.000 C 
ATOM      7  N   UNL     1       6.030   5.899  15.553  0.00  0.00    +0.000 N 
ATOM      8  H   UNL     1       8.565   4.002  15.793  0.00  0.00    +0.000 HD
ATOM      9  H   UNL     1       5.397   6.465  15.004  0.00  0.00    +0.000 HD
ENDROOT
BRANCH   6  10
ATOM     10  C   UNL     1       6.288   7.110  17.741  0.00  0.00    +0.000 C 
BRANCH  10  11
ATOM     11  S   UNL     1       8.053   7.594  17.806  0.00  0.00    +0.000 S 
BRANCH  11  12
ATOM     12  C   UNL     1       7.849   9.410  17.822  0.00  0.00    +0.000 C 
BRANCH  12  13
ATOM     13  C   UNL     1       8.933  10.013  18.712  0.00  0.00    +0.000 C 
BRANCH  13  14
ATOM     14  O   UNL     1       9.807  10.852  17.962  0.00  0.00    +0.000 OA
ATOM     15  H   UNL     1      10.573  10.295  17.723  0.00  0.00    +0.000 HD
ENDBRANCH  13  14
ENDBRANCH  12  13
ENDBRANCH  11  12
ENDBRANCH  10  11
ENDBRANCH   6  10
BRANCH   6  16
ATOM     16  C   UNL     1       4.724   5.079  17.489  0.00  0.00    +0.000 C 
BRANCH  16  17
ATOM     17  S   UNL     1       3.544   6.333  18.118  0.00  0.00    +0.000 S 
BRANCH  17  18
ATOM     18  C   UNL     1       1.966   5.449  17.959  0.00  0.00    +0.000 C 
BRANCH  18  19
ATOM     19  C   UNL     1       1.826   4.479  19.109  0.00  0.00    +0.000 A 
ATOM     20  C   UNL     1       1.191   3.241  18.922  0.00  0.00    +0.000 A 
ATOM     21  C   UNL     1       0.999   2.373  19.998  0.00  0.00    +0.000 A 
ATOM     22  C   UNL     1       1.441   2.729  21.271  0.00  0.00    +0.000 A 
ATOM     23  C   UNL     1       2.069   3.955  21.471  0.00  0.00    +0.000 A 
ATOM     24  C   UNL     1       2.255   4.830  20.398  0.00  0.00    +0.000 A 
ENDBRANCH  18  19
ENDBRANCH  17  18
ENDBRANCH  16  17
ENDBRANCH   6  16
TORSDOF 9
ENDMDL
MODEL 9
REMARK VINA RESULT:      -6.5      2.364      4.270
REMARK  Name = 
REMARK  9 active torsions:
REMARK  status: ('A' for Active; 'I' for Inactive)
REMARK    1  A    between atoms: C_6  and  C_7
REMARK    2  A    between atoms: C_6  and  C_12
REMARK    3  A    between atoms: C_7  and  S_8
REMARK    4  A    between atoms: S_8  and  C_9
REMARK    5  A    between atoms: C_9  and  C_10
REMARK    6  A    between atoms: C_10  and  O_11
REMARK    7  A    between atoms: C_12  and  S_13
REMARK    8  A    between atoms: S_13  and  C_14
REMARK    9  A    between atoms: C_14  and  C_15
REMARK                            x       y       z     vdW  Elec       q    Type
REMARK                         _______ _______ _______ _____ _____    ______ ____
ROOT
ATOM      1  O   UNL     1       7.907   7.813  16.855  0.00  0.00    +0.000 OA
ATOM      2  C   UNL     1       7.177   6.943  17.304  0.00  0.00    +0.000 C 
ATOM      3  N   UNL     1       7.333   6.299  18.481  0.00  0.00    +0.000 N 
ATOM      4  C   UNL     1       6.345   5.374  18.667  0.00  0.00    +0.000 C 
ATOM      5  O   UNL     1       6.249   4.632  19.631  0.00  0.00    +0.000 OA
ATOM      6  C   UNL     1       5.388   5.423  17.468  0.00  0.00    +0.000 C 
ATOM      7  N   UNL     1       6.062   6.443  16.675  0.00  0.00    +0.000 N 
ATOM      8  H   UNL     1       8.067   6.501  19.136  0.00  0.00    +0.000 HD
ATOM      9  H   UNL     1       5.745   6.798  15.783  0.00  0.00    +0.000 HD
ENDROOT
BRANCH   6  10
ATOM     10  C   UNL     1       3.973   5.840  17.936  0.00  0.00    +0.000 C 
BRANCH  10  11
ATOM     11  S   UNL     1       3.557   7.597  17.625  0.00  0.00    +0.000 S 
BRANCH  11  12
ATOM     12  C   UNL     1       2.182   7.778  18.815  0.00  0.00    +0.000 C 
BRANCH  12  13
ATOM     13  C   UNL     1       1.588   9.176  18.662  0.00  0.00    +0.000 C 
BRANCH  13  14
ATOM     14  O   UNL     1       1.672   9.626  17.313  0.00  0.00    +0.000 OA
ATOM     15  H   UNL     1       2.046   8.881  16.805  0.00  0.00    +0.000 HD
ENDBRANCH  13  14
ENDBRANCH  12  13
ENDBRANCH  11  12
ENDBRANCH  10  11
ENDBRANCH   6  10
BRANCH   6  16
ATOM     16  C   UNL     1       5.401   4.059  16.745  0.00  0.00    +0.000 C 
BRANCH  16  17
ATOM     17  S   UNL     1       3.725   3.316  16.797  0.00  0.00    +0.000 S 
BRANCH  17  18
ATOM     18  C   UNL     1       3.922   2.084  18.115  0.00  0.00    +0.000 C 
BRANCH  18  19
ATOM     19  C   UNL     1       2.960   2.402  19.236  0.00  0.00    +0.000 A 
ATOM     20  C   UNL     1       1.607   2.656  18.960  0.00  0.00    +0.000 A 
ATOM     21  C   UNL     1       0.730   3.019  19.985  0.00  0.00    +0.000 A 
ATOM     22  C   UNL     1       1.193   3.129  21.294  0.00  0.00    +0.000 A 
ATOM     23  C   UNL     1       2.534   2.883  21.581  0.00  0.00    +0.000 A 
ATOM     24  C   UNL     1       3.415   2.529  20.556  0.00  0.00    +0.000 A 
ENDBRANCH  18  19
ENDBRANCH  17  18
ENDBRANCH  16  17
ENDBRANCH   6  16
TORSDOF 9
ENDMDL
