MODEL 1
REMARK VINA RESULT:      -7.3      0.000      0.000
REMARK  Name = 
REMARK  15 active torsions:
REMARK  status: ('A' for Active; 'I' for Inactive)
REMARK    1  A    between atoms: C_1  and  C_2
REMARK    2  A    between atoms: C_2  and  C_3
REMARK    3  A    between atoms: C_3  and  C_4
REMARK    4  A    between atoms: C_4  and  C_5
REMARK    5  A    between atoms: C_4  and  C_8
REMARK    6  A    between atoms: C_5  and  C_6
REMARK    7  A    between atoms: C_6  and  C_7
REMARK    8  A    between atoms: C_8  and  C_9
REMARK    9  A    between atoms: C_11  and  C_12
REMARK   10  A    between atoms: C_12  and  O_14
REMARK   11  A    between atoms: C_17  and  N_18
REMARK   12  A    between atoms: C_23  and  C_24
REMARK   13  A    between atoms: C_23  and  C_26
REMARK   14  A    between atoms: C_24  and  O_25
REMARK   15  A    between atoms: C_26  and  O_27
REMARK                            x       y       z     vdW  Elec       q    Type
REMARK                         _______ _______ _______ _____ _____    ______ ____
ROOT
ATOM      1  C   UNL     1       3.491   5.589  19.536  0.00  0.00    +0.000 A 
ATOM      2  C   UNL     1       2.515   4.900  20.282  0.00  0.00    +0.000 A 
ATOM      3  C   UNL     1       2.567   3.522  20.499  0.00  0.00    +0.000 A 
ATOM      4  C   UNL     1       3.687   2.809  20.070  0.00  0.00    +0.000 A 
ATOM      5  C   UNL     1       4.717   3.485  19.403  0.00  0.00    +0.000 A 
ATOM      6  C   UNL     1       4.609   4.854  19.083  0.00  0.00    +0.000 A 
ENDROOT
BRANCH   6   7
ATOM      7  N   UNL     1       5.691   5.488  18.426  0.00  0.00    +0.000 N 
ATOM      8  C   UNL     1       6.920   5.672  19.070  0.00  0.00    +0.000 C 
ATOM      9  O   UNL     1       7.247   5.337  20.197  0.00  0.00    +0.000 OA
ATOM     10  C   UNL     1       7.757   6.497  18.137  0.00  0.00    +0.000 C 
ATOM     11  C   UNL     1       7.324   5.985  16.776  0.00  0.00    +0.000 C 
ATOM     12  C   UNL     1       5.851   5.529  16.959  0.00  0.00    +0.000 C 
BRANCH  12  13
ATOM     13  C   UNL     1       4.883   6.531  16.295  0.00  0.00    +0.000 C 
BRANCH  13  14
ATOM     14  O   UNL     1       5.206   6.815  14.933  0.00  0.00    +0.000 OA
ATOM     15  H   UNL     1       6.158   7.010  14.879  0.00  0.00    +0.000 HD
ENDBRANCH  13  14
ENDBRANCH  12  13
BRANCH  12  16
ATOM     16  C   UNL     1       5.697   4.129  16.291  0.00  0.00    +0.000 C 
BRANCH  16  17
ATOM     17  O   UNL     1       6.347   4.043  15.025  0.00  0.00    +0.000 OA
ATOM     18  H   UNL     1       5.691   3.681  14.394  0.00  0.00    +0.000 HD
ENDBRANCH  16  17
ENDBRANCH  12  16
ENDBRANCH   6   7
BRANCH   3  19
ATOM     19  C   UNL     1       1.371   2.901  21.128  0.00  0.00    +0.000 C 
ATOM     20  O   UNL     1       1.390   2.390  22.235  0.00  0.00    +0.000 OA
BRANCH  19  21
ATOM     21  O   UNL     1       0.271   2.934  20.351  0.00  0.00    +0.000 OA
ATOM     22  H   UNL     1      -0.506   2.452  20.720  0.00  0.00    +0.000 HD
ENDBRANCH  19  21
ENDBRANCH   3  19
BRANCH   1  23
ATOM     23  C   UNL     1       3.314   7.097  19.397  0.00  0.00    +0.000 C 
BRANCH  23  24
ATOM     24  C   UNL     1       1.860   7.666  19.514  0.00  0.00    +0.000 C 
BRANCH  24  25
ATOM     25  C   UNL     1       1.561   8.374  20.859  0.00  0.00    +0.000 C 
BRANCH  25  27
ATOM     26  C   UNL     1      -0.276   9.309  22.298  0.00  0.00    +0.000 C 
ATOM     27  C   UNL     1       0.156   8.144  21.417  0.00  0.00    +0.000 C 
ENDBRANCH  25  27
ENDBRANCH  24  25
BRANCH  24  28
ATOM     28  C   UNL     1       1.526   8.553  18.285  0.00  0.00    +0.000 C 
BRANCH  28  29
ATOM     29  C   UNL     1       1.184  10.017  18.593  0.00  0.00    +0.000 C 
ATOM     30  C   UNL     1      -0.297  10.304  18.362  0.00  0.00    +0.000 C 
ENDBRANCH  28  29
ENDBRANCH  24  28
ENDBRANCH  23  24
ENDBRANCH   1  23
TORSDOF 13
ENDMDL
MODEL 2
REMARK VINA RESULT:      -7.1      1.914      5.556
REMARK  Name = 
REMARK  15 active torsions:
REMARK  status: ('A' for Active; 'I' for Inactive)
REMARK    1  A    between atoms: C_1  and  C_2
REMARK    2  A    between atoms: C_2  and  C_3
REMARK    3  A    between atoms: C_3  and  C_4
REMARK    4  A    between atoms: C_4  and  C_5
REMARK    5  A    between atoms: C_4  and  C_8
REMARK    6  A    between atoms: C_5  and  C_6
REMARK    7  A    between atoms: C_6  and  C_7
REMARK    8  A    between atoms: C_8  and  C_9
REMARK    9  A    between atoms: C_11  and  C_12
REMARK   10  A    between atoms: C_12  and  O_14
REMARK   11  A    between atoms: C_17  and  N_18
REMARK   12  A    between atoms: C_23  and  C_24
REMARK   13  A    between atoms: C_23  and  C_26
REMARK   14  A    between atoms: C_24  and  O_25
REMARK   15  A    between atoms: C_26  and  O_27
REMARK                            x       y       z     vdW  Elec       q    Type
REMARK                         _______ _______ _______ _____ _____    ______ ____
ROOT
ATOM      1  C   UNL     1       4.347   5.321  18.550  0.00  0.00    +0.000 A 
ATOM      2  C   UNL     1       5.377   5.935  17.810  0.00  0.00    +0.000 A 
ATOM      3  C   UNL     1       5.902   5.377  16.643  0.00  0.00    +0.000 A 
ATOM      4  C   UNL     1       5.309   4.232  16.113  0.00  0.00    +0.000 A 
ATOM      5  C   UNL     1       4.223   3.648  16.780  0.00  0.00    +0.000 A 
ATOM      6  C   UNL     1       3.769   4.147  18.018  0.00  0.00    +0.000 A 
ENDROOT
BRANCH   6   7
ATOM      7  N   UNL     1       2.655   3.529  18.634  0.00  0.00    +0.000 N 
ATOM      8  C   UNL     1       1.371   3.647  18.091  0.00  0.00    +0.000 C 
ATOM      9  O   UNL     1       1.023   4.233  17.079  0.00  0.00    +0.000 OA
ATOM     10  C   UNL     1       0.443   3.003  19.078  0.00  0.00    +0.000 C 
ATOM     11  C   UNL     1       1.282   1.857  19.612  0.00  0.00    +0.000 C 
ATOM     12  C   UNL     1       2.753   2.344  19.509  0.00  0.00    +0.000 C 
BRANCH  12  13
ATOM     13  C   UNL     1       3.310   2.695  20.906  0.00  0.00    +0.000 C 
BRANCH  13  14
ATOM     14  O   UNL     1       2.346   2.562  21.951  0.00  0.00    +0.000 OA
ATOM     15  H   UNL     1       2.680   3.030  22.737  0.00  0.00    +0.000 HD
ENDBRANCH  13  14
ENDBRANCH  12  13
BRANCH  12  16
ATOM     16  C   UNL     1       3.596   1.193  18.882  0.00  0.00    +0.000 C 
BRANCH  16  17
ATOM     17  O   UNL     1       4.868   1.032  19.507  0.00  0.00    +0.000 OA
ATOM     18  H   UNL     1       5.180   1.929  19.749  0.00  0.00    +0.000 HD
ENDBRANCH  16  17
ENDBRANCH  12  16
ENDBRANCH   6   7
BRANCH   3  19
ATOM     19  C   UNL     1       7.116   6.027  16.081  0.00  0.00    +0.000 C 
ATOM     20  O   UNL     1       7.652   6.995  16.595  0.00  0.00    +0.000 OA
BRANCH  19  21
ATOM     21  O   UNL     1       7.554   5.463  14.939  0.00  0.00    +0.000 OA
ATOM     22  H   UNL     1       7.223   4.548  14.781  0.00  0.00    +0.000 HD
ENDBRANCH  19  21
ENDBRANCH   3  19
BRANCH   1  23
ATOM     23  C   UNL     1       3.861   6.056  19.793  0.00  0.00    +0.000 C 
BRANCH  23  24
ATOM     24  C   UNL     1       2.609   6.985  19.638  0.00  0.00    +0.000 C 
BRANCH  24  25
ATOM     25  C   UNL     1       2.205   7.267  18.170  0.00  0.00    +0.000 C 
BRANCH  25  27
ATOM     26  C   UNL     1       1.097   9.515  17.973  0.00  0.00    +0.000 C 
ATOM     27  C   UNL     1       2.370   8.719  17.718  0.00  0.00    +0.000 C 
ENDBRANCH  25  27
ENDBRANCH  24  25
BRANCH  24  28
ATOM     28  C   UNL     1       1.427   6.447  20.489  0.00  0.00    +0.000 C 
BRANCH  28  29
ATOM     29  C   UNL     1       0.636   7.502  21.273  0.00  0.00    +0.000 C 
ATOM     30  C   UNL     1       1.470   8.754  21.522  0.00  0.00    +0.000 C 
ENDBRANCH  28  29
ENDBRANCH  24  28
ENDBRANCH  23  24
ENDBRANCH   1  23
TORSDOF 13
ENDMDL
MODEL 3
REMARK VINA RESULT:      -7.0      1.881      5.256
REMARK  Name = 
REMARK  15 active torsions:
REMARK  status: ('A' for Active; 'I' for Inactive)
REMARK    1  A    between atoms: C_1  and  C_2
REMARK    2  A    between atoms: C_2  and  C_3
REMARK    3  A    between atoms: C_3  and  C_4
REMARK    4  A    between atoms: C_4  and  C_5
REMARK    5  A    between atoms: C_4  and  C_8
REMARK    6  A    between atoms: C_5  and  C_6
REMARK    7  A    between atoms: C_6  and  C_7
REMARK    8  A    between atoms: C_8  and  C_9
REMARK    9  A    between atoms: C_11  and  C_12
REMARK   10  A    between atoms: C_12  and  O_14
REMARK   11  A    between atoms: C_17  and  N_18
REMARK   12  A    between atoms: C_23  and  C_24
REMARK   13  A    between atoms: C_23  and  C_26
REMARK   14  A    between atoms: C_24  and  O_25
REMARK   15  A    between atoms: C_26  and  O_27
REMARK                            x       y       z     vdW  Elec       q    Type
REMARK                         _______ _______ _______ _____ _____    ______ ____
ROOT
ATOM      1  C   UNL     1       4.203   5.487  18.599  0.00  0.00    +0.000 A 
ATOM      2  C   UNL     1       5.238   6.133  17.894  0.00  0.00    +0.000 A 
ATOM      3  C   UNL     1       5.884   5.550  16.803  0.00  0.00    +0.000 A 
ATOM      4  C   UNL     1       5.414   4.335  16.306  0.00  0.00    +0.000 A 
ATOM      5  C   UNL     1       4.326   3.712  16.932  0.00  0.00    +0.000 A 
ATOM      6  C   UNL     1       3.750   4.245  18.103  0.00  0.00    +0.000 A 
ENDROOT
BRANCH   6   7
ATOM      7  N   UNL     1       2.640   3.582  18.679  0.00  0.00    +0.000 N 
ATOM      8  C   UNL     1       1.375   3.637  18.082  0.00  0.00    +0.000 C 
ATOM      9  O   UNL     1       1.044   4.199  17.051  0.00  0.00    +0.000 OA
ATOM     10  C   UNL     1       0.437   2.959  19.036  0.00  0.00    +0.000 C 
ATOM     11  C   UNL     1       1.304   1.857  19.616  0.00  0.00    +0.000 C 
ATOM     12  C   UNL     1       2.754   2.410  19.568  0.00  0.00    +0.000 C 
BRANCH  12  13
ATOM     13  C   UNL     1       3.236   2.796  20.984  0.00  0.00    +0.000 C 
BRANCH  13  14
ATOM     14  O   UNL     1       2.288   2.496  22.009  0.00  0.00    +0.000 OA
ATOM     15  H   UNL     1       1.479   2.155  21.587  0.00  0.00    +0.000 HD
ENDBRANCH  13  14
ENDBRANCH  12  13
BRANCH  12  16
ATOM     16  C   UNL     1       3.674   1.293  18.989  0.00  0.00    +0.000 C 
BRANCH  16  17
ATOM     17  O   UNL     1       4.955   1.248  19.614  0.00  0.00    +0.000 OA
ATOM     18  H   UNL     1       4.861   0.685  20.411  0.00  0.00    +0.000 HD
ENDBRANCH  16  17
ENDBRANCH  12  16
ENDBRANCH   6   7
BRANCH   3  19
ATOM     19  C   UNL     1       7.088   6.255  16.286  0.00  0.00    +0.000 C 
ATOM     20  O   UNL     1       7.519   7.284  16.779  0.00  0.00    +0.000 OA
BRANCH  19  21
ATOM     21  O   UNL     1       7.641   5.666  15.209  0.00  0.00    +0.000 OA
ATOM     22  H   UNL     1       8.455   6.108  14.873  0.00  0.00    +0.000 HD
ENDBRANCH  19  21
ENDBRANCH   3  19
BRANCH   1  23
ATOM     23  C   UNL     1       3.578   6.253  19.758  0.00  0.00    +0.000 C 
BRANCH  23  24
ATOM     24  C   UNL     1       2.235   7.010  19.481  0.00  0.00    +0.000 C 
BRANCH  24  25
ATOM     25  C   UNL     1       1.827   8.009  20.593  0.00  0.00    +0.000 C 
BRANCH  25  27
ATOM     26  C   UNL     1      -0.103   9.077  21.798  0.00  0.00    +0.000 C 
ATOM     27  C   UNL     1       0.434   7.791  21.184  0.00  0.00    +0.000 C 
ENDBRANCH  25  27
ENDBRANCH  24  25
BRANCH  24  28
ATOM     28  C   UNL     1       2.263   7.664  18.073  0.00  0.00    +0.000 C 
BRANCH  28  29
ATOM     29  C   UNL     1       2.101   9.189  18.043  0.00  0.00    +0.000 C 
ATOM     30  C   UNL     1       0.643   9.592  17.844  0.00  0.00    +0.000 C 
ENDBRANCH  28  29
ENDBRANCH  24  28
ENDBRANCH  23  24
ENDBRANCH   1  23
TORSDOF 13
ENDMDL
MODEL 4
REMARK VINA RESULT:      -6.9      2.273      6.220
REMARK  Name = 
REMARK  15 active torsions:
REMARK  status: ('A' for Active; 'I' for Inactive)
REMARK    1  A    between atoms: C_1  and  C_2
REMARK    2  A    between atoms: C_2  and  C_3
REMARK    3  A    between atoms: C_3  and  C_4
REMARK    4  A    between atoms: C_4  and  C_5
REMARK    5  A    between atoms: C_4  and  C_8
REMARK    6  A    between atoms: C_5  and  C_6
REMARK    7  A    between atoms: C_6  and  C_7
REMARK    8  A    between atoms: C_8  and  C_9
REMARK    9  A    between atoms: C_11  and  C_12
REMARK   10  A    between atoms: C_12  and  O_14
REMARK   11  A    between atoms: C_17  and  N_18
REMARK   12  A    between atoms: C_23  and  C_24
REMARK   13  A    between atoms: C_23  and  C_26
REMARK   14  A    between atoms: C_24  and  O_25
REMARK   15  A    between atoms: C_26  and  O_27
REMARK                            x       y       z     vdW  Elec       q    Type
REMARK                         _______ _______ _______ _____ _____    ______ ____
ROOT
ATOM      1  C   UNL     1       3.314   6.305  17.886  0.00  0.00    +0.000 A 
ATOM      2  C   UNL     1       2.947   7.663  17.799  0.00  0.00    +0.000 A 
ATOM      3  C   UNL     1       2.199   8.306  18.785  0.00  0.00    +0.000 A 
ATOM      4  C   UNL     1       1.901   7.623  19.965  0.00  0.00    +0.000 A 
ATOM      5  C   UNL     1       2.331   6.298  20.118  0.00  0.00    +0.000 A 
ATOM      6  C   UNL     1       2.986   5.614  19.074  0.00  0.00    +0.000 A 
ENDROOT
BRANCH   6   7
ATOM      7  N   UNL     1       3.415   4.283  19.294  0.00  0.00    +0.000 N 
ATOM      8  C   UNL     1       4.725   4.004  19.701  0.00  0.00    +0.000 C 
ATOM      9  O   UNL     1       5.634   4.785  19.930  0.00  0.00    +0.000 OA
ATOM     10  C   UNL     1       4.853   2.510  19.686  0.00  0.00    +0.000 C 
ATOM     11  C   UNL     1       3.473   2.061  20.128  0.00  0.00    +0.000 C 
ATOM     12  C   UNL     1       2.505   3.174  19.641  0.00  0.00    +0.000 C 
BRANCH  12  13
ATOM     13  C   UNL     1       1.685   2.690  18.425  0.00  0.00    +0.000 C 
BRANCH  13  14
ATOM     14  O   UNL     1       2.371   1.727  17.625  0.00  0.00    +0.000 OA
ATOM     15  H   UNL     1       2.994   2.199  17.044  0.00  0.00    +0.000 HD
ENDBRANCH  13  14
ENDBRANCH  12  13
BRANCH  12  16
ATOM     16  C   UNL     1       1.544   3.521  20.817  0.00  0.00    +0.000 C 
BRANCH  16  17
ATOM     17  O   UNL     1       2.076   3.171  22.093  0.00  0.00    +0.000 OA
ATOM     18  H   UNL     1       1.323   3.157  22.720  0.00  0.00    +0.000 HD
ENDBRANCH  16  17
ENDBRANCH  12  16
ENDBRANCH   6   7
BRANCH   3  19
ATOM     19  C   UNL     1       1.714   9.676  18.468  0.00  0.00    +0.000 C 
ATOM     20  O   UNL     1       1.006  10.323  19.221  0.00  0.00    +0.000 OA
BRANCH  19  21
ATOM     21  O   UNL     1       2.110  10.125  17.261  0.00  0.00    +0.000 OA
ATOM     22  H   UNL     1       2.006   9.475  16.527  0.00  0.00    +0.000 HD
ENDBRANCH  19  21
ENDBRANCH   3  19
BRANCH   1  23
ATOM     23  C   UNL     1       4.148   5.743  16.742  0.00  0.00    +0.000 C 
BRANCH  23  24
ATOM     24  C   UNL     1       5.706   5.776  16.901  0.00  0.00    +0.000 C 
BRANCH  24  25
ATOM     25  C   UNL     1       6.482   5.216  15.683  0.00  0.00    +0.000 C 
BRANCH  25  27
ATOM     26  C   UNL     1       6.056   3.840  13.623  0.00  0.00    +0.000 C 
ATOM     27  C   UNL     1       5.967   3.881  15.143  0.00  0.00    +0.000 C 
ENDBRANCH  25  27
ENDBRANCH  24  25
BRANCH  24  28
ATOM     28  C   UNL     1       6.178   7.199  17.306  0.00  0.00    +0.000 C 
BRANCH  28  29
ATOM     29  C   UNL     1       7.626   7.305  17.802  0.00  0.00    +0.000 C 
ATOM     30  C   UNL     1       8.100   8.754  17.833  0.00  0.00    +0.000 C 
ENDBRANCH  28  29
ENDBRANCH  24  28
ENDBRANCH  23  24
ENDBRANCH   1  23
TORSDOF 13
ENDMDL
MODEL 5
REMARK VINA RESULT:      -6.8      2.226      6.091
REMARK  Name = 
REMARK  15 active torsions:
REMARK  status: ('A' for Active; 'I' for Inactive)
REMARK    1  A    between atoms: C_1  and  C_2
REMARK    2  A    between atoms: C_2  and  C_3
REMARK    3  A    between atoms: C_3  and  C_4
REMARK    4  A    between atoms: C_4  and  C_5
REMARK    5  A    between atoms: C_4  and  C_8
REMARK    6  A    between atoms: C_5  and  C_6
REMARK    7  A    between atoms: C_6  and  C_7
REMARK    8  A    between atoms: C_8  and  C_9
REMARK    9  A    between atoms: C_11  and  C_12
REMARK   10  A    between atoms: C_12  and  O_14
REMARK   11  A    between atoms: C_17  and  N_18
REMARK   12  A    between atoms: C_23  and  C_24
REMARK   13  A    between atoms: C_23  and  C_26
REMARK   14  A    between atoms: C_24  and  O_25
REMARK   15  A    between atoms: C_26  and  O_27
REMARK                            x       y       z     vdW  Elec       q    Type
REMARK                         _______ _______ _______ _____ _____    ______ ____
ROOT
ATOM      1  C   UNL     1       3.173   6.234  17.846  0.00  0.00    +0.000 A 
ATOM      2  C   UNL     1       2.835   7.599  17.752  0.00  0.00    +0.000 A 
ATOM      3  C   UNL     1       2.173   8.283  18.773  0.00  0.00    +0.000 A 
ATOM      4  C   UNL     1       1.940   7.633  19.985  0.00  0.00    +0.000 A 
ATOM      5  C   UNL     1       2.346   6.301  20.139  0.00  0.00    +0.000 A 
ATOM      6  C   UNL     1       2.911   5.578  19.069  0.00  0.00    +0.000 A 
ENDROOT
BRANCH   6   7
ATOM      7  N   UNL     1       3.321   4.241  19.291  0.00  0.00    +0.000 N 
ATOM      8  C   UNL     1       4.643   3.938  19.636  0.00  0.00    +0.000 C 
ATOM      9  O   UNL     1       5.580   4.702  19.805  0.00  0.00    +0.000 OA
ATOM     10  C   UNL     1       4.737   2.441  19.640  0.00  0.00    +0.000 C 
ATOM     11  C   UNL     1       3.372   2.031  20.159  0.00  0.00    +0.000 C 
ATOM     12  C   UNL     1       2.406   3.159  19.702  0.00  0.00    +0.000 C 
BRANCH  12  13
ATOM     13  C   UNL     1       1.514   2.674  18.538  0.00  0.00    +0.000 C 
BRANCH  13  14
ATOM     14  O   UNL     1       2.183   2.667  17.276  0.00  0.00    +0.000 OA
ATOM     15  H   UNL     1       1.652   2.141  16.651  0.00  0.00    +0.000 HD
ENDBRANCH  13  14
ENDBRANCH  12  13
BRANCH  12  16
ATOM     16  C   UNL     1       1.513   3.547  20.919  0.00  0.00    +0.000 C 
BRANCH  16  17
ATOM     17  O   UNL     1       2.134   3.275  22.174  0.00  0.00    +0.000 OA
ATOM     18  H   UNL     1       2.040   4.086  22.717  0.00  0.00    +0.000 HD
ENDBRANCH  16  17
ENDBRANCH  12  16
ENDBRANCH   6   7
BRANCH   3  19
ATOM     19  C   UNL     1       1.702   9.658  18.457  0.00  0.00    +0.000 C 
ATOM     20  O   UNL     1       0.967  10.295  19.193  0.00  0.00    +0.000 OA
BRANCH  19  21
ATOM     21  O   UNL     1       2.142  10.123  17.272  0.00  0.00    +0.000 OA
ATOM     22  H   UNL     1       3.047   9.820  17.023  0.00  0.00    +0.000 HD
ENDBRANCH  19  21
ENDBRANCH   3  19
BRANCH   1  23
ATOM     23  C   UNL     1       3.912   5.625  16.661  0.00  0.00    +0.000 C 
BRANCH  23  24
ATOM     24  C   UNL     1       5.400   6.061  16.438  0.00  0.00    +0.000 C 
BRANCH  24  25
ATOM     25  C   UNL     1       5.926   7.082  17.478  0.00  0.00    +0.000 C 
BRANCH  25  27
ATOM     26  C   UNL     1       8.108   6.921  18.715  0.00  0.00    +0.000 C 
ATOM     27  C   UNL     1       7.430   7.352  17.420  0.00  0.00    +0.000 C 
ENDBRANCH  25  27
ENDBRANCH  24  25
BRANCH  24  28
ATOM     28  C   UNL     1       6.316   4.814  16.311  0.00  0.00    +0.000 C 
BRANCH  28  29
ATOM     29  C   UNL     1       5.817   3.714  15.366  0.00  0.00    +0.000 C 
ATOM     30  C   UNL     1       6.167   4.024  13.914  0.00  0.00    +0.000 C 
ENDBRANCH  28  29
ENDBRANCH  24  28
ENDBRANCH  23  24
ENDBRANCH   1  23
TORSDOF 13
ENDMDL
MODEL 6
REMARK VINA RESULT:      -6.8      2.052      5.412
REMARK  Name = 
REMARK  15 active torsions:
REMARK  status: ('A' for Active; 'I' for Inactive)
REMARK    1  A    between atoms: C_1  and  C_2
REMARK    2  A    between atoms: C_2  and  C_3
REMARK    3  A    between atoms: C_3  and  C_4
REMARK    4  A    between atoms: C_4  and  C_5
REMARK    5  A    between atoms: C_4  and  C_8
REMARK    6  A    between atoms: C_5  and  C_6
REMARK    7  A    between atoms: C_6  and  C_7
REMARK    8  A    between atoms: C_8  and  C_9
REMARK    9  A    between atoms: C_11  and  C_12
REMARK   10  A    between atoms: C_12  and  O_14
REMARK   11  A    between atoms: C_17  and  N_18
REMARK   12  A    between atoms: C_23  and  C_24
REMARK   13  A    between atoms: C_23  and  C_26
REMARK   14  A    between atoms: C_24  and  O_25
REMARK   15  A    between atoms: C_26  and  O_27
REMARK                            x       y       z     vdW  Elec       q    Type
REMARK                         _______ _______ _______ _____ _____    ______ ____
ROOT
ATOM      1  C   UNL     1       3.710   6.058  18.088  0.00  0.00    +0.000 A 
ATOM      2  C   UNL     1       4.785   6.840  17.620  0.00  0.00    +0.000 A 
ATOM      3  C   UNL     1       6.087   6.347  17.519  0.00  0.00    +0.000 A 
ATOM      4  C   UNL     1       6.322   4.995  17.771  0.00  0.00    +0.000 A 
ATOM      5  C   UNL     1       5.254   4.172  18.153  0.00  0.00    +0.000 A 
ATOM      6  C   UNL     1       3.963   4.697  18.366  0.00  0.00    +0.000 A 
ENDROOT
BRANCH   6   7
ATOM      7  N   UNL     1       2.920   3.812  18.731  0.00  0.00    +0.000 N 
ATOM      8  C   UNL     1       2.115   3.204  17.761  0.00  0.00    +0.000 C 
ATOM      9  O   UNL     1       2.178   3.307  16.546  0.00  0.00    +0.000 OA
ATOM     10  C   UNL     1       1.044   2.471  18.511  0.00  0.00    +0.000 C 
ATOM     11  C   UNL     1       1.782   1.993  19.747  0.00  0.00    +0.000 C 
ATOM     12  C   UNL     1       2.894   3.050  19.994  0.00  0.00    +0.000 C 
BRANCH  12  13
ATOM     13  C   UNL     1       2.540   3.939  21.206  0.00  0.00    +0.000 C 
BRANCH  13  14
ATOM     14  O   UNL     1       2.068   3.201  22.334  0.00  0.00    +0.000 OA
ATOM     15  H   UNL     1       2.130   2.252  22.126  0.00  0.00    +0.000 HD
ENDBRANCH  13  14
ENDBRANCH  12  13
BRANCH  12  16
ATOM     16  C   UNL     1       4.225   2.289  20.273  0.00  0.00    +0.000 C 
BRANCH  16  17
ATOM     17  O   UNL     1       4.477   1.246  19.334  0.00  0.00    +0.000 OA
ATOM     18  H   UNL     1       5.292   1.493  18.849  0.00  0.00    +0.000 HD
ENDBRANCH  16  17
ENDBRANCH  12  16
ENDBRANCH   6   7
BRANCH   3  19
ATOM     19  C   UNL     1       7.152   7.336  17.204  0.00  0.00    +0.000 C 
ATOM     20  O   UNL     1       7.172   8.464  17.669  0.00  0.00    +0.000 OA
BRANCH  19  21
ATOM     21  O   UNL     1       8.078   6.880  16.338  0.00  0.00    +0.000 OA
ATOM     22  H   UNL     1       8.925   7.384  16.341  0.00  0.00    +0.000 HD
ENDBRANCH  19  21
ENDBRANCH   3  19
BRANCH   1  23
ATOM     23  C   UNL     1       2.340   6.725  18.127  0.00  0.00    +0.000 C 
BRANCH  23  24
ATOM     24  C   UNL     1       2.209   8.056  18.942  0.00  0.00    +0.000 C 
BRANCH  24  25
ATOM     25  C   UNL     1       1.367   9.150  18.240  0.00  0.00    +0.000 C 
BRANCH  25  27
ATOM     26  C   UNL     1       1.448  11.611  18.746  0.00  0.00    +0.000 C 
ATOM     27  C   UNL     1       2.100  10.467  17.980  0.00  0.00    +0.000 C 
ENDBRANCH  25  27
ENDBRANCH  24  25
BRANCH  24  28
ATOM     28  C   UNL     1       1.718   7.760  20.385  0.00  0.00    +0.000 C 
BRANCH  28  29
ATOM     29  C   UNL     1       1.040   8.928  21.111  0.00  0.00    +0.000 C 
ATOM     30  C   UNL     1      -0.303   8.513  21.703  0.00  0.00    +0.000 C 
ENDBRANCH  28  29
ENDBRANCH  24  28
ENDBRANCH  23  24
ENDBRANCH   1  23
TORSDOF 13
ENDMDL
MODEL 7
REMARK VINA RESULT:      -6.8      2.510      5.383
REMARK  Name = 
REMARK  15 active torsions:
REMARK  status: ('A' for Active; 'I' for Inactive)
REMARK    1  A    between atoms: C_1  and  C_2
REMARK    2  A    between atoms: C_2  and  C_3
REMARK    3  A    between atoms: C_3  and  C_4
REMARK    4  A    between atoms: C_4  and  C_5
REMARK    5  A    between atoms: C_4  and  C_8
REMARK    6  A    between atoms: C_5  and  C_6
REMARK    7  A    between atoms: C_6  and  C_7
REMARK    8  A    between atoms: C_8  and  C_9
REMARK    9  A    between atoms: C_11  and  C_12
REMARK   10  A    between atoms: C_12  and  O_14
REMARK   11  A    between atoms: C_17  and  N_18
REMARK   12  A    between atoms: C_23  and  C_24
REMARK   13  A    between atoms: C_23  and  C_26
REMARK   14  A    between atoms: C_24  and  O_25
REMARK   15  A    between atoms: C_26  and  O_27
REMARK                            x       y       z     vdW  Elec       q    Type
REMARK                         _______ _______ _______ _____ _____    ______ ____
ROOT
ATOM      1  C   UNL     1       3.254   6.079  18.521  0.00  0.00    +0.000 A 
ATOM      2  C   UNL     1       2.216   7.016  18.694  0.00  0.00    +0.000 A 
ATOM      3  C   UNL     1       2.276   8.312  18.180  0.00  0.00    +0.000 A 
ATOM      4  C   UNL     1       3.345   8.665  17.356  0.00  0.00    +0.000 A 
ATOM      5  C   UNL     1       4.349   7.724  17.092  0.00  0.00    +0.000 A 
ATOM      6  C   UNL     1       4.345   6.455  17.706  0.00  0.00    +0.000 A 
ENDROOT
BRANCH   6   7
ATOM      7  N   UNL     1       5.374   5.539  17.384  0.00  0.00    +0.000 N 
ATOM      8  C   UNL     1       5.400   4.884  16.148  0.00  0.00    +0.000 C 
ATOM      9  O   UNL     1       4.621   4.992  15.213  0.00  0.00    +0.000 OA
ATOM     10  C   UNL     1       6.527   3.898  16.223  0.00  0.00    +0.000 C 
ATOM     11  C   UNL     1       7.548   4.637  17.068  0.00  0.00    +0.000 C 
ATOM     12  C   UNL     1       6.717   5.564  17.997  0.00  0.00    +0.000 C 
BRANCH  12  13
ATOM     13  C   UNL     1       6.709   5.020  19.443  0.00  0.00    +0.000 C 
BRANCH  13  14
ATOM     14  O   UNL     1       7.797   5.497  20.234  0.00  0.00    +0.000 OA
ATOM     15  H   UNL     1       8.255   4.728  20.621  0.00  0.00    +0.000 HD
ENDBRANCH  13  14
ENDBRANCH  12  13
BRANCH  12  16
ATOM     16  C   UNL     1       7.371   6.978  17.972  0.00  0.00    +0.000 C 
BRANCH  16  17
ATOM     17  O   UNL     1       7.818   7.361  16.674  0.00  0.00    +0.000 OA
ATOM     18  H   UNL     1       7.097   7.137  16.049  0.00  0.00    +0.000 HD
ENDBRANCH  16  17
ENDBRANCH  12  16
ENDBRANCH   6   7
BRANCH   3  19
ATOM     19  C   UNL     1       1.206   9.251  18.611  0.00  0.00    +0.000 C 
ATOM     20  O   UNL     1       0.855   9.373  19.773  0.00  0.00    +0.000 OA
BRANCH  19  21
ATOM     21  O   UNL     1       0.644   9.935  17.595  0.00  0.00    +0.000 OA
ATOM     22  H   UNL     1       1.271  10.196  16.880  0.00  0.00    +0.000 HD
ENDBRANCH  19  21
ENDBRANCH   3  19
BRANCH   1  23
ATOM     23  C   UNL     1       3.040   4.696  19.123  0.00  0.00    +0.000 C 
BRANCH  23  24
ATOM     24  C   UNL     1       1.690   3.970  18.801  0.00  0.00    +0.000 C 
BRANCH  24  25
ATOM     25  C   UNL     1       1.855   2.631  18.038  0.00  0.00    +0.000 C 
BRANCH  25  27
ATOM     26  C   UNL     1       3.822   1.180  18.622  0.00  0.00    +0.000 C 
ATOM     27  C   UNL     1       3.295   2.258  17.684  0.00  0.00    +0.000 C 
ENDBRANCH  25  27
ENDBRANCH  24  25
BRANCH  24  28
ATOM     28  C   UNL     1       0.835   3.821  20.089  0.00  0.00    +0.000 C 
BRANCH  28  29
ATOM     29  C   UNL     1       1.193   2.635  20.993  0.00  0.00    +0.000 C 
ATOM     30  C   UNL     1       2.236   3.024  22.036  0.00  0.00    +0.000 C 
ENDBRANCH  28  29
ENDBRANCH  24  28
ENDBRANCH  23  24
ENDBRANCH   1  23
TORSDOF 13
ENDMDL
MODEL 8
REMARK VINA RESULT:      -6.7      2.393      5.084
REMARK  Name = 
REMARK  15 active torsions:
REMARK  status: ('A' for Active; 'I' for Inactive)
REMARK    1  A    between atoms: C_1  and  C_2
REMARK    2  A    between atoms: C_2  and  C_3
REMARK    3  A    between atoms: C_3  and  C_4
REMARK    4  A    between atoms: C_4  and  C_5
REMARK    5  A    between atoms: C_4  and  C_8
REMARK    6  A    between atoms: C_5  and  C_6
REMARK    7  A    between atoms: C_6  and  C_7
REMARK    8  A    between atoms: C_8  and  C_9
REMARK    9  A    between atoms: C_11  and  C_12
REMARK   10  A    between atoms: C_12  and  O_14
REMARK   11  A    between atoms: C_17  and  N_18
REMARK   12  A    between atoms: C_23  and  C_24
REMARK   13  A    between atoms: C_23  and  C_26
REMARK   14  A    between atoms: C_24  and  O_25
REMARK   15  A    between atoms: C_26  and  O_27
REMARK                            x       y       z     vdW  Elec       q    Type
REMARK                         _______ _______ _______ _____ _____    ______ ____
ROOT
ATOM      1  C   UNL     1       3.460   6.203  19.005  0.00  0.00    +0.000 A 
ATOM      2  C   UNL     1       2.390   7.098  19.200  0.00  0.00    +0.000 A 
ATOM      3  C   UNL     1       2.235   8.262  18.447  0.00  0.00    +0.000 A 
ATOM      4  C   UNL     1       3.097   8.498  17.376  0.00  0.00    +0.000 A 
ATOM      5  C   UNL     1       4.118   7.578  17.102  0.00  0.00    +0.000 A 
ATOM      6  C   UNL     1       4.344   6.462  17.934  0.00  0.00    +0.000 A 
ENDROOT
BRANCH   6   7
ATOM      7  N   UNL     1       5.377   5.557  17.594  0.00  0.00    +0.000 N 
ATOM      8  C   UNL     1       5.353   4.853  16.385  0.00  0.00    +0.000 C 
ATOM      9  O   UNL     1       4.525   4.905  15.490  0.00  0.00    +0.000 OA
ATOM     10  C   UNL     1       6.507   3.896  16.440  0.00  0.00    +0.000 C 
ATOM     11  C   UNL     1       7.552   4.691  17.199  0.00  0.00    +0.000 C 
ATOM     12  C   UNL     1       6.749   5.636  18.133  0.00  0.00    +0.000 C 
BRANCH  12  13
ATOM     13  C   UNL     1       6.830   5.153  19.598  0.00  0.00    +0.000 C 
BRANCH  13  14
ATOM     14  O   UNL     1       8.047   5.516  20.249  0.00  0.00    +0.000 OA
ATOM     15  H   UNL     1       8.570   4.707  20.394  0.00  0.00    +0.000 HD
ENDBRANCH  13  14
ENDBRANCH  12  13
BRANCH  12  16
ATOM     16  C   UNL     1       7.366   7.063  18.018  0.00  0.00    +0.000 C 
BRANCH  16  17
ATOM     17  O   UNL     1       7.774   7.386  16.690  0.00  0.00    +0.000 OA
ATOM     18  H   UNL     1       8.557   7.970  16.770  0.00  0.00    +0.000 HD
ENDBRANCH  16  17
ENDBRANCH  12  16
ENDBRANCH   6   7
BRANCH   3  19
ATOM     19  C   UNL     1       1.180   9.211  18.895  0.00  0.00    +0.000 C 
ATOM     20  O   UNL     1       0.518   9.883  18.123  0.00  0.00    +0.000 OA
BRANCH  19  21
ATOM     21  O   UNL     1       1.042   9.275  20.234  0.00  0.00    +0.000 OA
ATOM     22  H   UNL     1       1.742   8.801  20.742  0.00  0.00    +0.000 HD
ENDBRANCH  19  21
ENDBRANCH   3  19
BRANCH   1  23
ATOM     23  C   UNL     1       3.490   4.962  19.889  0.00  0.00    +0.000 C 
BRANCH  23  24
ATOM     24  C   UNL     1       2.440   3.838  19.590  0.00  0.00    +0.000 C 
BRANCH  24  25
ATOM     25  C   UNL     1       1.195   3.870  20.511  0.00  0.00    +0.000 C 
BRANCH  25  27
ATOM     26  C   UNL     1       2.554   2.172  21.770  0.00  0.00    +0.000 C 
ATOM     27  C   UNL     1       1.186   2.827  21.629  0.00  0.00    +0.000 C 
ENDBRANCH  25  27
ENDBRANCH  24  25
BRANCH  24  28
ATOM     28  C   UNL     1       2.067   3.834  18.082  0.00  0.00    +0.000 C 
BRANCH  28  29
ATOM     29  C   UNL     1       2.589   2.642  17.270  0.00  0.00    +0.000 C 
ATOM     30  C   UNL     1       3.440   1.712  18.129  0.00  0.00    +0.000 C 
ENDBRANCH  28  29
ENDBRANCH  24  28
ENDBRANCH  23  24
ENDBRANCH   1  23
TORSDOF 13
ENDMDL
MODEL 9
REMARK VINA RESULT:      -6.6      0.855      1.111
REMARK  Name = 
REMARK  15 active torsions:
REMARK  status: ('A' for Active; 'I' for Inactive)
REMARK    1  A    between atoms: C_1  and  C_2
REMARK    2  A    between atoms: C_2  and  C_3
REMARK    3  A    between atoms: C_3  and  C_4
REMARK    4  A    between atoms: C_4  and  C_5
REMARK    5  A    between atoms: C_4  and  C_8
REMARK    6  A    between atoms: C_5  and  C_6
REMARK    7  A    between atoms: C_6  and  C_7
REMARK    8  A    between atoms: C_8  and  C_9
REMARK    9  A    between atoms: C_11  and  C_12
REMARK   10  A    between atoms: C_12  and  O_14
REMARK   11  A    between atoms: C_17  and  N_18
REMARK   12  A    between atoms: C_23  and  C_24
REMARK   13  A    between atoms: C_23  and  C_26
REMARK   14  A    between atoms: C_24  and  O_25
REMARK   15  A    between atoms: C_26  and  O_27
REMARK                            x       y       z     vdW  Elec       q    Type
REMARK                         _______ _______ _______ _____ _____    ______ ____
ROOT
ATOM      1  C   UNL     1       3.228   5.588  18.806  0.00  0.00    +0.000 A 
ATOM      2  C   UNL     1       2.149   4.826  19.297  0.00  0.00    +0.000 A 
ATOM      3  C   UNL     1       2.205   3.438  19.427  0.00  0.00    +0.000 A 
ATOM      4  C   UNL     1       3.411   2.782  19.181  0.00  0.00    +0.000 A 
ATOM      5  C   UNL     1       4.528   3.526  18.777  0.00  0.00    +0.000 A 
ATOM      6  C   UNL     1       4.437   4.912  18.535  0.00  0.00    +0.000 A 
ENDROOT
BRANCH   6   7
ATOM      7  N   UNL     1       5.604   5.614  18.149  0.00  0.00    +0.000 N 
ATOM      8  C   UNL     1       6.716   5.689  18.995  0.00  0.00    +0.000 C 
ATOM      9  O   UNL     1       6.865   5.196  20.102  0.00  0.00    +0.000 OA
ATOM     10  C   UNL     1       7.682   6.622  18.328  0.00  0.00    +0.000 C 
ATOM     11  C   UNL     1       7.471   6.311  16.858  0.00  0.00    +0.000 C 
ATOM     12  C   UNL     1       5.991   5.855  16.745  0.00  0.00    +0.000 C 
BRANCH  12  13
ATOM     13  C   UNL     1       5.131   6.954  16.084  0.00  0.00    +0.000 C 
BRANCH  13  14
ATOM     14  O   UNL     1       5.163   6.919  14.657  0.00  0.00    +0.000 OA
ATOM     15  H   UNL     1       4.519   6.255  14.352  0.00  0.00    +0.000 HD
ENDBRANCH  13  14
ENDBRANCH  12  13
BRANCH  12  16
ATOM     16  C   UNL     1       5.952   4.564  15.873  0.00  0.00    +0.000 C 
BRANCH  16  17
ATOM     17  O   UNL     1       7.010   4.505  14.919  0.00  0.00    +0.000 OA
ATOM     18  H   UNL     1       6.612   4.694  14.043  0.00  0.00    +0.000 HD
ENDBRANCH  16  17
ENDBRANCH  12  16
ENDBRANCH   6   7
BRANCH   3  19
ATOM     19  C   UNL     1       0.932   2.748  19.765  0.00  0.00    +0.000 C 
ATOM     20  O   UNL     1       0.217   2.222  18.927  0.00  0.00    +0.000 OA
BRANCH  19  21
ATOM     21  O   UNL     1       0.629   2.779  21.077  0.00  0.00    +0.000 OA
ATOM     22  H   UNL     1      -0.294   2.505  21.291  0.00  0.00    +0.000 HD
ENDBRANCH  19  21
ENDBRANCH   3  19
BRANCH   1  23
ATOM     23  C   UNL     1       3.028   7.098  18.737  0.00  0.00    +0.000 C 
BRANCH  23  24
ATOM     24  C   UNL     1       1.696   7.677  19.322  0.00  0.00    +0.000 C 
BRANCH  24  25
ATOM     25  C   UNL     1       1.766   8.040  20.826  0.00  0.00    +0.000 C 
BRANCH  25  27
ATOM     26  C   UNL     1      -0.450   8.657  21.838  0.00  0.00    +0.000 C 
ATOM     27  C   UNL     1       0.855   9.188  21.261  0.00  0.00    +0.000 C 
ENDBRANCH  25  27
ENDBRANCH  24  25
BRANCH  24  28
ATOM     28  C   UNL     1       1.188   8.855  18.447  0.00  0.00    +0.000 C 
BRANCH  28  29
ATOM     29  C   UNL     1       2.276   9.756  17.847  0.00  0.00    +0.000 C 
ATOM     30  C   UNL     1       2.057  11.219  18.221  0.00  0.00    +0.000 C 
ENDBRANCH  28  29
ENDBRANCH  24  28
ENDBRANCH  23  24
ENDBRANCH   1  23
TORSDOF 13
ENDMDL
