MODEL 1
REMARK VINA RESULT:      -7.0      0.000      0.000
REMARK  Name = 
REMARK  7 active torsions:
REMARK  status: ('A' for Active; 'I' for Inactive)
REMARK    1  A    between atoms: C_1  and  C_2
REMARK    2  A    between atoms: N_11  and  C_12
REMARK    3  A    between atoms: C_20  and  C_21
REMARK    4  A    between atoms: N_26  and  C_27
REMARK    5  A    between atoms: C_27  and  C_28
REMARK    6  A    between atoms: C_28  and  C_29
REMARK    7  A    between atoms: C_33  and  C_34
REMARK                            x       y       z     vdW  Elec       q    Type
REMARK                         _______ _______ _______ _____ _____    ______ ____
ROOT
ATOM      1  C   UNL     1       4.931  17.782  20.736  0.00  0.00    +0.000 C 
ATOM      2  C   UNL     1       5.828  16.917  19.931  0.00  0.00    +0.000 A 
ATOM      3  C   UNL     1       6.743  17.627  19.154  0.00  0.00    +0.000 A 
ATOM      4  C   UNL     1       7.859  17.002  18.656  0.00  0.00    +0.000 A 
ATOM      5  N   UNL     1       8.835  17.818  18.070  0.00  0.00    +0.000 N 
ATOM      6  C   UNL     1      10.097  17.401  17.711  0.00  0.00    +0.000 A 
ATOM      7  O   UNL     1      10.932  18.174  17.273  0.00  0.00    +0.000 OA
ATOM      8  C   UNL     1      10.340  15.996  17.936  0.00  0.00    +0.000 A 
ATOM      9  C   UNL     1      11.494  15.233  17.753  0.00  0.00    +0.000 A 
ATOM     10  N   UNL     1      11.306  13.960  18.108  0.00  0.00    +0.000 NA
ATOM     11  N   UNL     1      10.028  13.927  18.558  0.00  0.00    +0.000 N 
ATOM     12  C   UNL     1       9.378  15.131  18.444  0.00  0.00    +0.000 A 
ATOM     13  C   UNL     1       8.040  15.606  18.837  0.00  0.00    +0.000 A 
ATOM     14  C   UNL     1       6.983  14.872  19.416  0.00  0.00    +0.000 A 
ATOM     15  C   UNL     1       5.840  15.517  19.961  0.00  0.00    +0.000 A 
ATOM     16  H   UNL     1       8.676  18.816  17.975  0.00  0.00    +0.000 HD
ENDROOT
BRANCH  15  17
ATOM     17  C   UNL     1       4.823  14.683  20.710  0.00  0.00    +0.000 C 
ATOM     18  O   UNL     1       5.183  14.223  21.793  0.00  0.00    +0.000 OA
ATOM     19  N   UNL     1       3.509  14.480  20.229  0.00  0.00    +0.000 N 
ATOM     20  C   UNL     1       2.533  13.849  21.121  0.00  0.00    +0.000 C 
ATOM     21  C   UNL     1       1.158  14.523  20.962  0.00  0.00    +0.000 C 
ATOM     22  N   UNL     1       0.607  14.544  19.588  0.00  0.00    +0.000 NA
ATOM     23  C   UNL     1       1.600  15.030  18.600  0.00  0.00    +0.000 C 
ATOM     24  C   UNL     1       1.326  16.539  18.521  0.00  0.00    +0.000 C 
ATOM     25  C   UNL     1       3.058  14.473  18.829  0.00  0.00    +0.000 C 
BRANCH  22  26
ATOM     26  C   UNL     1       0.003  13.297  19.124  0.00  0.00    +0.000 C 
BRANCH  26  27
ATOM     27  C   UNL     1      -0.881  12.654  20.180  0.00  0.00    +0.000 C 
BRANCH  27  28
ATOM     28  C   UNL     1      -0.501  11.204  20.371  0.00  0.00    +0.000 C 
ATOM     29  F   UNL     1      -1.078  10.387  19.464  0.00  0.00    +0.000 F 
ATOM     30  F   UNL     1       0.837  11.048  20.260  0.00  0.00    +0.000 F 
ATOM     31  F   UNL     1      -0.864  10.769  21.598  0.00  0.00    +0.000 F 
ENDBRANCH  27  28
ENDBRANCH  26  27
ENDBRANCH  22  26
ENDBRANCH  15  17
BRANCH  11  32
ATOM     32  C   UNL     1       9.485  12.684  19.042  0.00  0.00    +0.000 C 
ATOM     33  C   UNL     1       9.800  11.516  18.116  0.00  0.00    +0.000 C 
ATOM     34  C   UNL     1       9.276  10.324  18.903  0.00  0.00    +0.000 C 
ATOM     35  C   UNL     1       9.420  10.711  20.380  0.00  0.00    +0.000 C 
ATOM     36  C   UNL     1       9.944  12.150  20.398  0.00  0.00    +0.000 C 
ENDBRANCH  11  32
TORSDOF 5
ENDMDL
MODEL 2
REMARK VINA RESULT:      -7.0      0.836      1.091
REMARK  Name = 
REMARK  7 active torsions:
REMARK  status: ('A' for Active; 'I' for Inactive)
REMARK    1  A    between atoms: C_1  and  C_2
REMARK    2  A    between atoms: N_11  and  C_12
REMARK    3  A    between atoms: C_20  and  C_21
REMARK    4  A    between atoms: N_26  and  C_27
REMARK    5  A    between atoms: C_27  and  C_28
REMARK    6  A    between atoms: C_28  and  C_29
REMARK    7  A    between atoms: C_33  and  C_34
REMARK                            x       y       z     vdW  Elec       q    Type
REMARK                         _______ _______ _______ _____ _____    ______ ____
ROOT
ATOM      1  C   UNL     1       5.949  18.186  20.600  0.00  0.00    +0.000 C 
ATOM      2  C   UNL     1       6.754  17.216  19.817  0.00  0.00    +0.000 A 
ATOM      3  C   UNL     1       7.756  17.809  19.049  0.00  0.00    +0.000 A 
ATOM      4  C   UNL     1       8.801  17.055  18.575  0.00  0.00    +0.000 A 
ATOM      5  N   UNL     1       9.872  17.749  17.999  0.00  0.00    +0.000 N 
ATOM      6  C   UNL     1      11.084  17.187  17.664  0.00  0.00    +0.000 A 
ATOM      7  O   UNL     1      12.008  17.855  17.234  0.00  0.00    +0.000 OA
ATOM      8  C   UNL     1      11.161  15.765  17.904  0.00  0.00    +0.000 A 
ATOM      9  C   UNL     1      12.223  14.874  17.747  0.00  0.00    +0.000 A 
ATOM     10  N   UNL     1      11.885  13.634  18.109  0.00  0.00    +0.000 NA
ATOM     11  N   UNL     1      10.605  13.752  18.538  0.00  0.00    +0.000 N 
ATOM     12  C   UNL     1      10.098  15.022  18.403  0.00  0.00    +0.000 A 
ATOM     13  C   UNL     1       8.818  15.650  18.770  0.00  0.00    +0.000 A 
ATOM     14  C   UNL     1       7.675  15.048  19.338  0.00  0.00    +0.000 A 
ATOM     15  C   UNL     1       6.605  15.824  19.858  0.00  0.00    +0.000 A 
ATOM     16  H   UNL     1       9.830  18.757  17.893  0.00  0.00    +0.000 HD
ENDROOT
BRANCH  15  17
ATOM     17  C   UNL     1       5.487  15.119  20.598  0.00  0.00    +0.000 C 
ATOM     18  O   UNL     1       5.724  14.786  21.758  0.00  0.00    +0.000 OA
ATOM     19  N   UNL     1       4.218  14.897  20.016  0.00  0.00    +0.000 N 
ATOM     20  C   UNL     1       3.137  14.410  20.876  0.00  0.00    +0.000 C 
ATOM     21  C   UNL     1       1.812  15.100  20.502  0.00  0.00    +0.000 C 
ATOM     22  N   UNL     1       1.395  14.967  19.087  0.00  0.00    +0.000 NA
ATOM     23  C   UNL     1       2.497  15.298  18.151  0.00  0.00    +0.000 C 
ATOM     24  C   UNL     1       2.294  16.793  17.866  0.00  0.00    +0.000 C 
ATOM     25  C   UNL     1       3.902  14.730  18.590  0.00  0.00    +0.000 C 
BRANCH  22  26
ATOM     26  C   UNL     1       0.787  13.691  18.718  0.00  0.00    +0.000 C 
BRANCH  26  27
ATOM     27  C   UNL     1      -0.275  13.247  19.711  0.00  0.00    +0.000 C 
BRANCH  27  28
ATOM     28  C   UNL     1      -0.041  11.812  20.124  0.00  0.00    +0.000 C 
ATOM     29  F   UNL     1       1.238  11.573  20.485  0.00  0.00    +0.000 F 
ATOM     30  F   UNL     1      -0.823  11.491  21.179  0.00  0.00    +0.000 F 
ATOM     31  F   UNL     1      -0.345  10.966  19.117  0.00  0.00    +0.000 F 
ENDBRANCH  27  28
ENDBRANCH  26  27
ENDBRANCH  22  26
ENDBRANCH  15  17
BRANCH  11  32
ATOM     32  C   UNL     1       9.915  12.584  19.023  0.00  0.00    +0.000 C 
ATOM     33  C   UNL     1       9.766  11.514  17.949  0.00  0.00    +0.000 C 
ATOM     34  C   UNL     1       9.170  10.351  18.727  0.00  0.00    +0.000 C 
ATOM     35  C   UNL     1       9.700  10.499  20.158  0.00  0.00    +0.000 C 
ATOM     36  C   UNL     1      10.519  11.792  20.181  0.00  0.00    +0.000 C 
ENDBRANCH  11  32
TORSDOF 5
ENDMDL
MODEL 3
REMARK VINA RESULT:      -6.9      7.081      8.982
REMARK  Name = 
REMARK  7 active torsions:
REMARK  status: ('A' for Active; 'I' for Inactive)
REMARK    1  A    between atoms: C_1  and  C_2
REMARK    2  A    between atoms: N_11  and  C_12
REMARK    3  A    between atoms: C_20  and  C_21
REMARK    4  A    between atoms: N_26  and  C_27
REMARK    5  A    between atoms: C_27  and  C_28
REMARK    6  A    between atoms: C_28  and  C_29
REMARK    7  A    between atoms: C_33  and  C_34
REMARK                            x       y       z     vdW  Elec       q    Type
REMARK                         _______ _______ _______ _____ _____    ______ ____
ROOT
ATOM      1  C   UNL     1       2.319  10.948  18.492  0.00  0.00    +0.000 C 
ATOM      2  C   UNL     1       2.301   9.475  18.313  0.00  0.00    +0.000 A 
ATOM      3  C   UNL     1       3.070   9.030  17.238  0.00  0.00    +0.000 A 
ATOM      4  C   UNL     1       3.456   7.715  17.162  0.00  0.00    +0.000 A 
ATOM      5  N   UNL     1       4.398   7.387  16.179  0.00  0.00    +0.000 N 
ATOM      6  C   UNL     1       5.053   6.179  16.089  0.00  0.00    +0.000 A 
ATOM      7  O   UNL     1       5.919   5.974  15.256  0.00  0.00    +0.000 OA
ATOM      8  C   UNL     1       4.647   5.213  17.082  0.00  0.00    +0.000 A 
ATOM      9  C   UNL     1       5.116   3.924  17.340  0.00  0.00    +0.000 A 
ATOM     10  N   UNL     1       4.484   3.367  18.376  0.00  0.00    +0.000 NA
ATOM     11  N   UNL     1       3.633   4.332  18.803  0.00  0.00    +0.000 N 
ATOM     12  C   UNL     1       3.662   5.467  18.029  0.00  0.00    +0.000 A 
ATOM     13  C   UNL     1       2.989   6.774  18.116  0.00  0.00    +0.000 A 
ATOM     14  C   UNL     1       2.020   7.203  19.048  0.00  0.00    +0.000 A 
ATOM     15  C   UNL     1       1.641   8.568  19.152  0.00  0.00    +0.000 A 
ATOM     16  H   UNL     1       4.721   8.093  15.526  0.00  0.00    +0.000 HD
ENDROOT
BRANCH  15  17
ATOM     17  C   UNL     1       0.719   8.982  20.280  0.00  0.00    +0.000 C 
ATOM     18  O   UNL     1       0.954   8.496  21.385  0.00  0.00    +0.000 OA
ATOM     19  N   UNL     1      -0.325   9.918  20.098  0.00  0.00    +0.000 N 
ATOM     20  C   UNL     1      -1.019  10.422  21.285  0.00  0.00    +0.000 C 
ATOM     21  C   UNL     1      -1.318  11.924  21.125  0.00  0.00    +0.000 C 
ATOM     22  N   UNL     1      -2.094  12.301  19.921  0.00  0.00    +0.000 NA
ATOM     23  C   UNL     1      -1.534  11.694  18.690  0.00  0.00    +0.000 C 
ATOM     24  C   UNL     1      -0.569  12.767  18.163  0.00  0.00    +0.000 C 
ATOM     25  C   UNL     1      -1.076  10.194  18.864  0.00  0.00    +0.000 C 
BRANCH  22  26
ATOM     26  C   UNL     1      -3.534  12.064  19.991  0.00  0.00    +0.000 C 
BRANCH  26  27
ATOM     27  C   UNL     1      -4.218  12.257  18.648  0.00  0.00    +0.000 C 
BRANCH  27  28
ATOM     28  C   UNL     1      -5.181  11.123  18.381  0.00  0.00    +0.000 C 
ATOM     29  F   UNL     1      -6.000  11.365  17.336  0.00  0.00    +0.000 F 
ATOM     30  F   UNL     1      -4.506   9.984  18.108  0.00  0.00    +0.000 F 
ATOM     31  F   UNL     1      -5.959  10.888  19.461  0.00  0.00    +0.000 F 
ENDBRANCH  27  28
ENDBRANCH  26  27
ENDBRANCH  22  26
ENDBRANCH  15  17
BRANCH  11  32
ATOM     32  C   UNL     1       2.785   4.071  19.937  0.00  0.00    +0.000 C 
ATOM     33  C   UNL     1       1.386   3.631  19.523  0.00  0.00    +0.000 C 
ATOM     34  C   UNL     1       0.750   3.268  20.856  0.00  0.00    +0.000 C 
ATOM     35  C   UNL     1       1.904   2.794  21.748  0.00  0.00    +0.000 C 
ATOM     36  C   UNL     1       3.184   2.978  20.927  0.00  0.00    +0.000 C 
ENDBRANCH  11  32
TORSDOF 5
ENDMDL
MODEL 4
REMARK VINA RESULT:      -6.8      7.056      8.996
REMARK  Name = 
REMARK  7 active torsions:
REMARK  status: ('A' for Active; 'I' for Inactive)
REMARK    1  A    between atoms: C_1  and  C_2
REMARK    2  A    between atoms: N_11  and  C_12
REMARK    3  A    between atoms: C_20  and  C_21
REMARK    4  A    between atoms: N_26  and  C_27
REMARK    5  A    between atoms: C_27  and  C_28
REMARK    6  A    between atoms: C_28  and  C_29
REMARK    7  A    between atoms: C_33  and  C_34
REMARK                            x       y       z     vdW  Elec       q    Type
REMARK                         _______ _______ _______ _____ _____    ______ ____
ROOT
ATOM      1  C   UNL     1       2.384  10.906  18.475  0.00  0.00    +0.000 C 
ATOM      2  C   UNL     1       2.350   9.433  18.299  0.00  0.00    +0.000 A 
ATOM      3  C   UNL     1       3.106   8.980  17.219  0.00  0.00    +0.000 A 
ATOM      4  C   UNL     1       3.480   7.661  17.142  0.00  0.00    +0.000 A 
ATOM      5  N   UNL     1       4.411   7.323  16.151  0.00  0.00    +0.000 N 
ATOM      6  C   UNL     1       5.053   6.108  16.058  0.00  0.00    +0.000 A 
ATOM      7  O   UNL     1       5.911   5.895  15.218  0.00  0.00    +0.000 OA
ATOM      8  C   UNL     1       4.647   5.148  17.056  0.00  0.00    +0.000 A 
ATOM      9  C   UNL     1       5.106   3.855  17.312  0.00  0.00    +0.000 A 
ATOM     10  N   UNL     1       4.479   3.306  18.355  0.00  0.00    +0.000 NA
ATOM     11  N   UNL     1       3.640   4.279  18.787  0.00  0.00    +0.000 N 
ATOM     12  C   UNL     1       3.673   5.412  18.011  0.00  0.00    +0.000 A 
ATOM     13  C   UNL     1       3.013   6.726  18.101  0.00  0.00    +0.000 A 
ATOM     14  C   UNL     1       2.056   7.165  19.040  0.00  0.00    +0.000 A 
ATOM     15  C   UNL     1       1.689   8.534  19.145  0.00  0.00    +0.000 A 
ATOM     16  H   UNL     1       4.734   8.025  15.494  0.00  0.00    +0.000 HD
ENDROOT
BRANCH  15  17
ATOM     17  C   UNL     1       0.781   8.958  20.280  0.00  0.00    +0.000 C 
ATOM     18  O   UNL     1       0.989   8.433  21.373  0.00  0.00    +0.000 OA
ATOM     19  N   UNL     1      -0.220   9.943  20.119  0.00  0.00    +0.000 N 
ATOM     20  C   UNL     1      -0.898  10.446  21.317  0.00  0.00    +0.000 C 
ATOM     21  C   UNL     1      -1.129  11.964  21.196  0.00  0.00    +0.000 C 
ATOM     22  N   UNL     1      -1.882  12.406  19.999  0.00  0.00    +0.000 NA
ATOM     23  C   UNL     1      -1.343  11.808  18.754  0.00  0.00    +0.000 C 
ATOM     24  C   UNL     1      -0.329  12.851  18.260  0.00  0.00    +0.000 C 
ATOM     25  C   UNL     1      -0.952  10.286  18.890  0.00  0.00    +0.000 C 
BRANCH  22  26
ATOM     26  C   UNL     1      -3.331  12.231  20.057  0.00  0.00    +0.000 C 
BRANCH  26  27
ATOM     27  C   UNL     1      -4.032  13.415  20.701  0.00  0.00    +0.000 C 
BRANCH  27  28
ATOM     28  C   UNL     1      -4.809  12.967  21.918  0.00  0.00    +0.000 C 
ATOM     29  F   UNL     1      -4.043  12.312  22.817  0.00  0.00    +0.000 F 
ATOM     30  F   UNL     1      -5.350  14.032  22.551  0.00  0.00    +0.000 F 
ATOM     31  F   UNL     1      -5.819  12.142  21.567  0.00  0.00    +0.000 F 
ENDBRANCH  27  28
ENDBRANCH  26  27
ENDBRANCH  22  26
ENDBRANCH  15  17
BRANCH  11  32
ATOM     32  C   UNL     1       2.799   4.028  19.929  0.00  0.00    +0.000 C 
ATOM     33  C   UNL     1       1.391   3.607  19.527  0.00  0.00    +0.000 C 
ATOM     34  C   UNL     1       0.763   3.251  20.866  0.00  0.00    +0.000 C 
ATOM     35  C   UNL     1       1.919   2.760  21.746  0.00  0.00    +0.000 C 
ATOM     36  C   UNL     1       3.193   2.928  20.914  0.00  0.00    +0.000 C 
ENDBRANCH  11  32
TORSDOF 5
ENDMDL
MODEL 5
REMARK VINA RESULT:      -6.8      4.700      9.892
REMARK  Name = 
REMARK  7 active torsions:
REMARK  status: ('A' for Active; 'I' for Inactive)
REMARK    1  A    between atoms: C_1  and  C_2
REMARK    2  A    between atoms: N_11  and  C_12
REMARK    3  A    between atoms: C_20  and  C_21
REMARK    4  A    between atoms: N_26  and  C_27
REMARK    5  A    between atoms: C_27  and  C_28
REMARK    6  A    between atoms: C_28  and  C_29
REMARK    7  A    between atoms: C_33  and  C_34
REMARK                            x       y       z     vdW  Elec       q    Type
REMARK                         _______ _______ _______ _____ _____    ______ ____
ROOT
ATOM      1  C   UNL     1      -2.284  16.738  21.720  0.00  0.00    +0.000 C 
ATOM      2  C   UNL     1      -2.345  15.293  21.390  0.00  0.00    +0.000 A 
ATOM      3  C   UNL     1      -3.605  14.866  20.969  0.00  0.00    +0.000 A 
ATOM      4  C   UNL     1      -3.740  13.682  20.286  0.00  0.00    +0.000 A 
ATOM      5  N   UNL     1      -4.991  13.422  19.711  0.00  0.00    +0.000 N 
ATOM      6  C   UNL     1      -5.251  12.402  18.824  0.00  0.00    +0.000 A 
ATOM      7  O   UNL     1      -6.343  12.269  18.297  0.00  0.00    +0.000 OA
ATOM      8  C   UNL     1      -4.118  11.549  18.556  0.00  0.00    +0.000 A 
ATOM      9  C   UNL     1      -3.981  10.467  17.686  0.00  0.00    +0.000 A 
ATOM     10  N   UNL     1      -2.747   9.961  17.718  0.00  0.00    +0.000 NA
ATOM     11  N   UNL     1      -2.084  10.758  18.590  0.00  0.00    +0.000 N 
ATOM     12  C   UNL     1      -2.879  11.722  19.161  0.00  0.00    +0.000 A 
ATOM     13  C   UNL     1      -2.620  12.833  20.093  0.00  0.00    +0.000 A 
ATOM     14  C   UNL     1      -1.413  13.175  20.738  0.00  0.00    +0.000 A 
ATOM     15  C   UNL     1      -1.257  14.411  21.420  0.00  0.00    +0.000 A 
ATOM     16  H   UNL     1      -5.763  14.064  19.857  0.00  0.00    +0.000 HD
ENDROOT
BRANCH  15  17
ATOM     17  C   UNL     1       0.112  14.783  21.948  0.00  0.00    +0.000 C 
ATOM     18  O   UNL     1       0.190  15.009  23.155  0.00  0.00    +0.000 OA
ATOM     19  N   UNL     1       1.258  14.820  21.121  0.00  0.00    +0.000 N 
ATOM     20  C   UNL     1       2.569  14.973  21.757  0.00  0.00    +0.000 C 
ATOM     21  C   UNL     1       3.608  14.086  21.046  0.00  0.00    +0.000 C 
ATOM     22  N   UNL     1       3.754  14.310  19.589  0.00  0.00    +0.000 NA
ATOM     23  C   UNL     1       2.444  14.323  18.896  0.00  0.00    +0.000 C 
ATOM     24  C   UNL     1       2.251  12.865  18.454  0.00  0.00    +0.000 C 
ATOM     25  C   UNL     1       1.313  15.098  19.678  0.00  0.00    +0.000 C 
BRANCH  22  26
ATOM     26  C   UNL     1       4.543  15.476  19.199  0.00  0.00    +0.000 C 
BRANCH  26  27
ATOM     27  C   UNL     1       5.240  15.284  17.862  0.00  0.00    +0.000 C 
BRANCH  27  28
ATOM     28  C   UNL     1       6.683  14.889  18.075  0.00  0.00    +0.000 C 
ATOM     29  F   UNL     1       7.066  13.860  17.289  0.00  0.00    +0.000 F 
ATOM     30  F   UNL     1       7.502  15.930  17.804  0.00  0.00    +0.000 F 
ATOM     31  F   UNL     1       6.898  14.523  19.358  0.00  0.00    +0.000 F 
ENDBRANCH  27  28
ENDBRANCH  26  27
ENDBRANCH  22  26
ENDBRANCH  15  17
BRANCH  11  32
ATOM     32  C   UNL     1      -0.693  10.502  18.862  0.00  0.00    +0.000 C 
ATOM     33  C   UNL     1      -0.491   9.740  20.166  0.00  0.00    +0.000 C 
ATOM     34  C   UNL     1       1.004   9.454  20.149  0.00  0.00    +0.000 C 
ATOM     35  C   UNL     1       1.386   9.350  18.667  0.00  0.00    +0.000 C 
ATOM     36  C   UNL     1       0.115   9.663  17.873  0.00  0.00    +0.000 C 
ENDBRANCH  11  32
TORSDOF 5
ENDMDL
MODEL 6
REMARK VINA RESULT:      -6.8      5.279     11.265
REMARK  Name = 
REMARK  7 active torsions:
REMARK  status: ('A' for Active; 'I' for Inactive)
REMARK    1  A    between atoms: C_1  and  C_2
REMARK    2  A    between atoms: N_11  and  C_12
REMARK    3  A    between atoms: C_20  and  C_21
REMARK    4  A    between atoms: N_26  and  C_27
REMARK    5  A    between atoms: C_27  and  C_28
REMARK    6  A    between atoms: C_28  and  C_29
REMARK    7  A    between atoms: C_33  and  C_34
REMARK                            x       y       z     vdW  Elec       q    Type
REMARK                         _______ _______ _______ _____ _____    ______ ____
ROOT
ATOM      1  C   UNL     1      -1.264  14.044  23.760  0.00  0.00    +0.000 C 
ATOM      2  C   UNL     1      -2.033  13.206  22.807  0.00  0.00    +0.000 A 
ATOM      3  C   UNL     1      -3.397  13.140  23.092  0.00  0.00    +0.000 A 
ATOM      4  C   UNL     1      -4.285  12.733  22.128  0.00  0.00    +0.000 A 
ATOM      5  N   UNL     1      -5.647  12.895  22.412  0.00  0.00    +0.000 N 
ATOM      6  C   UNL     1      -6.665  12.741  21.497  0.00  0.00    +0.000 A 
ATOM      7  O   UNL     1      -7.828  12.968  21.782  0.00  0.00    +0.000 OA
ATOM      8  C   UNL     1      -6.222  12.332  20.186  0.00  0.00    +0.000 A 
ATOM      9  C   UNL     1      -6.940  12.133  19.006  0.00  0.00    +0.000 A 
ATOM     10  N   UNL     1      -6.142  11.778  17.996  0.00  0.00    +0.000 NA
ATOM     11  N   UNL     1      -4.900  11.790  18.536  0.00  0.00    +0.000 N 
ATOM     12  C   UNL     1      -4.890  12.085  19.877  0.00  0.00    +0.000 A 
ATOM     13  C   UNL     1      -3.817  12.274  20.869  0.00  0.00    +0.000 A 
ATOM     14  C   UNL     1      -2.425  12.123  20.697  0.00  0.00    +0.000 A 
ATOM     15  C   UNL     1      -1.501  12.572  21.678  0.00  0.00    +0.000 A 
ATOM     16  H   UNL     1      -5.941  13.243  23.319  0.00  0.00    +0.000 HD
ENDROOT
BRANCH  15  17
ATOM     17  C   UNL     1      -0.021  12.527  21.357  0.00  0.00    +0.000 C 
ATOM     18  O   UNL     1       0.559  11.469  21.597  0.00  0.00    +0.000 OA
ATOM     19  N   UNL     1       0.657  13.616  20.763  0.00  0.00    +0.000 N 
ATOM     20  C   UNL     1       2.027  13.405  20.289  0.00  0.00    +0.000 C 
ATOM     21  C   UNL     1       2.246  14.146  18.957  0.00  0.00    +0.000 C 
ATOM     22  N   UNL     1       1.966  15.600  18.977  0.00  0.00    +0.000 NA
ATOM     23  C   UNL     1       0.650  15.902  19.590  0.00  0.00    +0.000 C 
ATOM     24  C   UNL     1      -0.311  15.932  18.393  0.00  0.00    +0.000 C 
ATOM     25  C   UNL     1       0.330  15.045  20.876  0.00  0.00    +0.000 C 
BRANCH  22  26
ATOM     26  C   UNL     1       3.004  16.441  19.569  0.00  0.00    +0.000 C 
BRANCH  26  27
ATOM     27  C   UNL     1       4.049  16.871  18.553  0.00  0.00    +0.000 C 
BRANCH  27  28
ATOM     28  C   UNL     1       5.395  16.277  18.901  0.00  0.00    +0.000 C 
ATOM     29  F   UNL     1       5.610  15.084  18.307  0.00  0.00    +0.000 F 
ATOM     30  F   UNL     1       6.391  17.105  18.515  0.00  0.00    +0.000 F 
ATOM     31  F   UNL     1       5.509  16.093  20.235  0.00  0.00    +0.000 F 
ENDBRANCH  27  28
ENDBRANCH  26  27
ENDBRANCH  22  26
ENDBRANCH  15  17
BRANCH  11  32
ATOM     32  C   UNL     1      -3.769  11.459  17.707  0.00  0.00    +0.000 C 
ATOM     33  C   UNL     1      -3.263  10.044  17.960  0.00  0.00    +0.000 C 
ATOM     34  C   UNL     1      -2.202   9.880  16.881  0.00  0.00    +0.000 C 
ATOM     35  C   UNL     1      -2.662  10.762  15.714  0.00  0.00    +0.000 C 
ATOM     36  C   UNL     1      -3.931  11.474  16.188  0.00  0.00    +0.000 C 
ENDBRANCH  11  32
TORSDOF 5
ENDMDL
MODEL 7
REMARK VINA RESULT:      -6.7      7.608     11.933
REMARK  Name = 
REMARK  7 active torsions:
REMARK  status: ('A' for Active; 'I' for Inactive)
REMARK    1  A    between atoms: C_1  and  C_2
REMARK    2  A    between atoms: N_11  and  C_12
REMARK    3  A    between atoms: C_20  and  C_21
REMARK    4  A    between atoms: N_26  and  C_27
REMARK    5  A    between atoms: C_27  and  C_28
REMARK    6  A    between atoms: C_28  and  C_29
REMARK    7  A    between atoms: C_33  and  C_34
REMARK                            x       y       z     vdW  Elec       q    Type
REMARK                         _______ _______ _______ _____ _____    ______ ____
ROOT
ATOM      1  C   UNL     1       0.600  13.793  21.391  0.00  0.00    +0.000 C 
ATOM      2  C   UNL     1      -0.800  13.381  21.656  0.00  0.00    +0.000 A 
ATOM      3  C   UNL     1      -1.412  14.101  22.683  0.00  0.00    +0.000 A 
ATOM      4  C   UNL     1      -2.780  14.109  22.801  0.00  0.00    +0.000 A 
ATOM      5  N   UNL     1      -3.331  15.016  23.714  0.00  0.00    +0.000 N 
ATOM      6  C   UNL     1      -4.672  15.312  23.816  0.00  0.00    +0.000 A 
ATOM      7  O   UNL     1      -5.088  16.167  24.579  0.00  0.00    +0.000 OA
ATOM      8  C   UNL     1      -5.513  14.554  22.920  0.00  0.00    +0.000 A 
ATOM      9  C   UNL     1      -6.889  14.615  22.697  0.00  0.00    +0.000 A 
ATOM     10  N   UNL     1      -7.275  13.752  21.755  0.00  0.00    +0.000 NA
ATOM     11  N   UNL     1      -6.123  13.166  21.350  0.00  0.00    +0.000 N 
ATOM     12  C   UNL     1      -5.019  13.589  22.050  0.00  0.00    +0.000 A 
ATOM     13  C   UNL     1      -3.578  13.304  21.948  0.00  0.00    +0.000 A 
ATOM     14  C   UNL     1      -2.921  12.404  21.082  0.00  0.00    +0.000 A 
ATOM     15  C   UNL     1      -1.508  12.413  20.933  0.00  0.00    +0.000 A 
ATOM     16  H   UNL     1      -2.726  15.588  24.294  0.00  0.00    +0.000 HD
ENDROOT
BRANCH  15  17
ATOM     17  C   UNL     1      -0.884  11.535  19.869  0.00  0.00    +0.000 C 
ATOM     18  O   UNL     1      -0.894  11.976  18.720  0.00  0.00    +0.000 OA
ATOM     19  N   UNL     1      -0.270  10.298  20.173  0.00  0.00    +0.000 N 
ATOM     20  C   UNL     1       0.497   9.626  19.121  0.00  0.00    +0.000 C 
ATOM     21  C   UNL     1       1.767   8.991  19.717  0.00  0.00    +0.000 C 
ATOM     22  N   UNL     1       1.548   8.040  20.830  0.00  0.00    +0.000 NA
ATOM     23  C   UNL     1       0.648   8.599  21.867  0.00  0.00    +0.000 C 
ATOM     24  C   UNL     1       1.610   9.249  22.872  0.00  0.00    +0.000 C 
ATOM     25  C   UNL     1      -0.587   9.390  21.286  0.00  0.00    +0.000 C 
BRANCH  22  26
ATOM     26  C   UNL     1       1.107   6.701  20.448  0.00  0.00    +0.000 C 
BRANCH  26  27
ATOM     27  C   UNL     1       2.269   5.785  20.101  0.00  0.00    +0.000 C 
BRANCH  27  28
ATOM     28  C   UNL     1       1.984   4.376  20.566  0.00  0.00    +0.000 C 
ATOM     29  F   UNL     1       2.378   4.154  21.839  0.00  0.00    +0.000 F 
ATOM     30  F   UNL     1       0.659   4.116  20.504  0.00  0.00    +0.000 F 
ATOM     31  F   UNL     1       2.615   3.473  19.783  0.00  0.00    +0.000 F 
ENDBRANCH  27  28
ENDBRANCH  26  27
ENDBRANCH  22  26
ENDBRANCH  15  17
BRANCH  11  32
ATOM     32  C   UNL     1      -6.167  12.169  20.311  0.00  0.00    +0.000 C 
ATOM     33  C   UNL     1      -7.172  11.064  20.615  0.00  0.00    +0.000 C 
ATOM     34  C   UNL     1      -7.153  10.245  19.333  0.00  0.00    +0.000 C 
ATOM     35  C   UNL     1      -6.815  11.238  18.214  0.00  0.00    +0.000 C 
ATOM     36  C   UNL     1      -6.567  12.585  18.898  0.00  0.00    +0.000 C 
ENDBRANCH  11  32
TORSDOF 5
ENDMDL
MODEL 8
REMARK VINA RESULT:      -6.7      7.693     11.324
REMARK  Name = 
REMARK  7 active torsions:
REMARK  status: ('A' for Active; 'I' for Inactive)
REMARK    1  A    between atoms: C_1  and  C_2
REMARK    2  A    between atoms: N_11  and  C_12
REMARK    3  A    between atoms: C_20  and  C_21
REMARK    4  A    between atoms: N_26  and  C_27
REMARK    5  A    between atoms: C_27  and  C_28
REMARK    6  A    between atoms: C_28  and  C_29
REMARK    7  A    between atoms: C_33  and  C_34
REMARK                            x       y       z     vdW  Elec       q    Type
REMARK                         _______ _______ _______ _____ _____    ______ ____
ROOT
ATOM      1  C   UNL     1      -0.162  15.378  22.532  0.00  0.00    +0.000 C 
ATOM      2  C   UNL     1      -1.589  15.088  22.248  0.00  0.00    +0.000 A 
ATOM      3  C   UNL     1      -2.380  16.231  22.129  0.00  0.00    +0.000 A 
ATOM      4  C   UNL     1      -3.606  16.161  21.512  0.00  0.00    +0.000 A 
ATOM      5  N   UNL     1      -4.247  17.376  21.238  0.00  0.00    +0.000 N 
ATOM      6  C   UNL     1      -5.367  17.514  20.449  0.00  0.00    +0.000 A 
ATOM      7  O   UNL     1      -5.839  18.606  20.183  0.00  0.00    +0.000 OA
ATOM      8  C   UNL     1      -5.891  16.266  19.947  0.00  0.00    +0.000 A 
ATOM      9  C   UNL     1      -6.959  16.011  19.086  0.00  0.00    +0.000 A 
ATOM     10  N   UNL     1      -7.100  14.705  18.848  0.00  0.00    +0.000 NA
ATOM     11  N   UNL     1      -6.083  14.131  19.535  0.00  0.00    +0.000 N 
ATOM     12  C   UNL     1      -5.334  15.030  20.255  0.00  0.00    +0.000 A 
ATOM     13  C   UNL     1      -4.125  14.911  21.087  0.00  0.00    +0.000 A 
ATOM     14  C   UNL     1      -3.412  13.745  21.438  0.00  0.00    +0.000 A 
ATOM     15  C   UNL     1      -2.130  13.812  22.047  0.00  0.00    +0.000 A 
ATOM     16  H   UNL     1      -3.834  18.251  21.544  0.00  0.00    +0.000 HD
ENDROOT
BRANCH  15  17
ATOM     17  C   UNL     1      -1.353  12.528  22.248  0.00  0.00    +0.000 C 
ATOM     18  O   UNL     1      -1.320  12.082  23.393  0.00  0.00    +0.000 OA
ATOM     19  N   UNL     1      -0.738  11.841  21.176  0.00  0.00    +0.000 N 
ATOM     20  C   UNL     1      -0.201  10.501  21.428  0.00  0.00    +0.000 C 
ATOM     21  C   UNL     1      -0.484   9.583  20.226  0.00  0.00    +0.000 C 
ATOM     22  N   UNL     1       0.019  10.061  18.918  0.00  0.00    +0.000 NA
ATOM     23  C   UNL     1      -0.359  11.472  18.662  0.00  0.00    +0.000 C 
ATOM     24  C   UNL     1      -1.682  11.360  17.890  0.00  0.00    +0.000 C 
ATOM     25  C   UNL     1      -0.223  12.411  19.923  0.00  0.00    +0.000 C 
BRANCH  22  26
ATOM     26  C   UNL     1       1.447   9.870  18.675  0.00  0.00    +0.000 C 
BRANCH  26  27
ATOM     27  C   UNL     1       1.719   8.792  17.638  0.00  0.00    +0.000 C 
BRANCH  27  28
ATOM     28  C   UNL     1       2.465   7.637  18.264  0.00  0.00    +0.000 C 
ATOM     29  F   UNL     1       1.976   6.434  17.894  0.00  0.00    +0.000 F 
ATOM     30  F   UNL     1       3.769   7.668  17.907  0.00  0.00    +0.000 F 
ATOM     31  F   UNL     1       2.408   7.701  19.612  0.00  0.00    +0.000 F 
ENDBRANCH  27  28
ENDBRANCH  26  27
ENDBRANCH  22  26
ENDBRANCH  15  17
BRANCH  11  32
ATOM     32  C   UNL     1      -5.922  12.700  19.491  0.00  0.00    +0.000 C 
ATOM     33  C   UNL     1      -7.223  11.964  19.790  0.00  0.00    +0.000 C 
ATOM     34  C   UNL     1      -6.844  10.514  19.529  0.00  0.00    +0.000 C 
ATOM     35  C   UNL     1      -5.752  10.561  18.453  0.00  0.00    +0.000 C 
ATOM     36  C   UNL     1      -5.475  12.043  18.187  0.00  0.00    +0.000 C 
ENDBRANCH  11  32
TORSDOF 5
ENDMDL
MODEL 9
REMARK VINA RESULT:      -6.6      3.845      9.216
REMARK  Name = 
REMARK  7 active torsions:
REMARK  status: ('A' for Active; 'I' for Inactive)
REMARK    1  A    between atoms: C_1  and  C_2
REMARK    2  A    between atoms: N_11  and  C_12
REMARK    3  A    between atoms: C_20  and  C_21
REMARK    4  A    between atoms: N_26  and  C_27
REMARK    5  A    between atoms: C_27  and  C_28
REMARK    6  A    between atoms: C_28  and  C_29
REMARK    7  A    between atoms: C_33  and  C_34
REMARK                            x       y       z     vdW  Elec       q    Type
REMARK                         _______ _______ _______ _____ _____    ______ ____
ROOT
ATOM      1  C   UNL     1       1.812  17.125  19.005  0.00  0.00    +0.000 C 
ATOM      2  C   UNL     1       1.527  16.068  20.006  0.00  0.00    +0.000 A 
ATOM      3  C   UNL     1       0.577  16.438  20.958  0.00  0.00    +0.000 A 
ATOM      4  C   UNL     1      -0.062  15.480  21.705  0.00  0.00    +0.000 A 
ATOM      5  N   UNL     1      -1.148  15.902  22.483  0.00  0.00    +0.000 N 
ATOM      6  C   UNL     1      -2.029  15.061  23.125  0.00  0.00    +0.000 A 
ATOM      7  O   UNL     1      -3.002  15.484  23.727  0.00  0.00    +0.000 OA
ATOM      8  C   UNL     1      -1.716  13.659  22.984  0.00  0.00    +0.000 A 
ATOM      9  C   UNL     1      -2.395  12.527  23.436  0.00  0.00    +0.000 A 
ATOM     10  N   UNL     1      -1.778  11.402  23.068  0.00  0.00    +0.000 NA
ATOM     11  N   UNL     1      -0.717  11.828  22.342  0.00  0.00    +0.000 N 
ATOM     12  C   UNL     1      -0.607  13.196  22.287  0.00  0.00    +0.000 A 
ATOM     13  C   UNL     1       0.312  14.116  21.593  0.00  0.00    +0.000 A 
ATOM     14  C   UNL     1       1.438  13.801  20.803  0.00  0.00    +0.000 A 
ATOM     15  C   UNL     1       2.083  14.783  20.003  0.00  0.00    +0.000 A 
ATOM     16  H   UNL     1      -1.395  16.886  22.523  0.00  0.00    +0.000 HD
ENDROOT
BRANCH  15  17
ATOM     17  C   UNL     1       3.180  14.343  19.057  0.00  0.00    +0.000 C 
ATOM     18  O   UNL     1       2.832  13.661  18.094  0.00  0.00    +0.000 OA
ATOM     19  N   UNL     1       4.528  14.732  19.230  0.00  0.00    +0.000 N 
ATOM     20  C   UNL     1       5.477  14.446  18.151  0.00  0.00    +0.000 C 
ATOM     21  C   UNL     1       6.454  15.623  17.979  0.00  0.00    +0.000 C 
ATOM     22  N   UNL     1       7.211  16.013  19.190  0.00  0.00    +0.000 NA
ATOM     23  C   UNL     1       6.326  16.171  20.369  0.00  0.00    +0.000 C 
ATOM     24  C   UNL     1       5.965  17.664  20.354  0.00  0.00    +0.000 C 
ATOM     25  C   UNL     1       5.213  15.060  20.489  0.00  0.00    +0.000 C 
BRANCH  22  26
ATOM     26  C   UNL     1       8.354  15.167  19.527  0.00  0.00    +0.000 C 
BRANCH  26  27
ATOM     27  C   UNL     1       9.283  14.951  18.344  0.00  0.00    +0.000 C 
BRANCH  27  28
ATOM     28  C   UNL     1       9.553  13.476  18.152  0.00  0.00    +0.000 C 
ATOM     29  F   UNL     1      10.137  13.200  16.966  0.00  0.00    +0.000 F 
ATOM     30  F   UNL     1      10.374  13.015  19.122  0.00  0.00    +0.000 F 
ATOM     31  F   UNL     1       8.406  12.765  18.215  0.00  0.00    +0.000 F 
ENDBRANCH  27  28
ENDBRANCH  26  27
ENDBRANCH  22  26
ENDBRANCH  15  17
BRANCH  11  32
ATOM     32  C   UNL     1       0.179  10.857  21.768  0.00  0.00    +0.000 C 
ATOM     33  C   UNL     1       0.251   9.579  22.595  0.00  0.00    +0.000 C 
ATOM     34  C   UNL     1       1.108   8.674  21.723  0.00  0.00    +0.000 C 
ATOM     35  C   UNL     1       0.835   9.114  20.280  0.00  0.00    +0.000 C 
ATOM     36  C   UNL     1      -0.109  10.316  20.369  0.00  0.00    +0.000 C 
ENDBRANCH  11  32
TORSDOF 5
ENDMDL
