MODEL 1
REMARK VINA RESULT:      -8.0      0.000      0.000
REMARK  Name = 
REMARK  7 active torsions:
REMARK  status: ('A' for Active; 'I' for Inactive)
REMARK    1  A    between atoms: C_1  and  C_2
REMARK    2  A    between atoms: C_2  and  C_3
REMARK    3  A    between atoms: C_3  and  C_4
REMARK    4  A    between atoms: C_4  and  O_5
REMARK    5  A    between atoms: O_5  and  C_6
REMARK    6  A    between atoms: N_14  and  C_15
REMARK    7  A    between atoms: C_15  and  C_16
REMARK                            x       y       z     vdW  Elec       q    Type
REMARK                         _______ _______ _______ _____ _____    ______ ____
ROOT
ATOM      1  C   UNL     1       5.558   4.518  14.706  0.00  0.00    +0.000 A 
ATOM      2  N   UNL     1       6.502   5.482  14.985  0.00  0.00    +0.000 NA
ATOM      3  C   UNL     1       6.814   5.823  16.276  0.00  0.00    +0.000 A 
ATOM      4  N   UNL     1       7.732   6.868  16.544  0.00  0.00    +0.000 N 
ATOM      5  C   UNL     1       6.169   5.123  17.297  0.00  0.00    +0.000 A 
ATOM      6  N   UNL     1       6.279   5.239  18.633  0.00  0.00    +0.000 N 
ATOM      7  C   UNL     1       5.385   4.330  19.121  0.00  0.00    +0.000 A 
ATOM      8  O   UNL     1       5.166   4.173  20.309  0.00  0.00    +0.000 OA
ATOM      9  N   UNL     1       4.724   3.649  18.130  0.00  0.00    +0.000 N 
ATOM     10  C   UNL     1       5.239   4.175  16.997  0.00  0.00    +0.000 A 
ATOM     11  N   UNL     1       4.899   3.879  15.720  0.00  0.00    +0.000 NA
ATOM     12  H   UNL     1       8.163   7.397  15.772  0.00  0.00    +0.000 HD
ATOM     13  H   UNL     1       7.935   7.165  17.512  0.00  0.00    +0.000 HD
ATOM     14  H   UNL     1       6.884   5.891  19.181  0.00  0.00    +0.000 HD
ENDROOT
BRANCH   1  15
ATOM     15  O   UNL     1       5.255   4.171  13.429  0.00  0.00    +0.000 OA
BRANCH  15  16
ATOM     16  C   UNL     1       6.017   3.408  12.566  0.00  0.00    +0.000 C 
BRANCH  16  17
ATOM     17  C   UNL     1       5.159   2.755  11.462  0.00  0.00    +0.000 C 
BRANCH  17  19
ATOM     18  C   UNL     1       3.326   3.793   9.947  0.00  0.00    +0.000 C 
ATOM     19  C   UNL     1       3.717   3.298  11.343  0.00  0.00    +0.000 C 
ENDBRANCH  17  19
ENDBRANCH  16  17
ENDBRANCH  15  16
ENDBRANCH   1  15
BRANCH   9  20
ATOM     20  C   UNL     1       3.579   2.735  18.310  0.00  0.00    +0.000 C 
BRANCH  20  21
ATOM     21  C   UNL     1       2.185   3.288  17.848  0.00  0.00    +0.000 C 
ATOM     22  C   UNL     1       1.920   4.754  18.249  0.00  0.00    +0.000 C 
ATOM     23  C   UNL     1       1.864   4.905  19.785  0.00  0.00    +0.000 C 
ATOM     24  N   UNL     1       0.851   4.021  20.394  0.00  0.00    +0.000 NA
ATOM     25  C   UNL     1       1.002   2.609  19.998  0.00  0.00    +0.000 C 
ATOM     26  C   UNL     1       1.034   2.456  18.466  0.00  0.00    +0.000 C 
ATOM     27  H   UNL     1      -0.107   4.351  20.140  0.00  0.00    +0.000 HD
ENDBRANCH  20  21
ENDBRANCH   9  20
TORSDOF 6
ENDMDL
MODEL 2
REMARK VINA RESULT:      -8.0      1.668      2.577
REMARK  Name = 
REMARK  7 active torsions:
REMARK  status: ('A' for Active; 'I' for Inactive)
REMARK    1  A    between atoms: C_1  and  C_2
REMARK    2  A    between atoms: C_2  and  C_3
REMARK    3  A    between atoms: C_3  and  C_4
REMARK    4  A    between atoms: C_4  and  O_5
REMARK    5  A    between atoms: O_5  and  C_6
REMARK    6  A    between atoms: N_14  and  C_15
REMARK    7  A    between atoms: C_15  and  C_16
REMARK                            x       y       z     vdW  Elec       q    Type
REMARK                         _______ _______ _______ _____ _____    ______ ____
ROOT
ATOM      1  C   UNL     1       5.938   3.621  12.715  0.00  0.00    +0.000 A 
ATOM      2  N   UNL     1       7.110   4.314  12.508  0.00  0.00    +0.000 NA
ATOM      3  C   UNL     1       7.647   5.115  13.482  0.00  0.00    +0.000 A 
ATOM      4  N   UNL     1       8.814   5.877  13.227  0.00  0.00    +0.000 N 
ATOM      5  C   UNL     1       6.982   5.167  14.708  0.00  0.00    +0.000 A 
ATOM      6  N   UNL     1       7.276   5.853  15.828  0.00  0.00    +0.000 N 
ATOM      7  C   UNL     1       6.256   5.548  16.683  0.00  0.00    +0.000 A 
ATOM      8  O   UNL     1       6.151   6.022  17.800  0.00  0.00    +0.000 OA
ATOM      9  N   UNL     1       5.338   4.690  16.131  0.00  0.00    +0.000 N 
ATOM     10  C   UNL     1       5.824   4.474  14.890  0.00  0.00    +0.000 A 
ATOM     11  N   UNL     1       5.272   3.725  13.905  0.00  0.00    +0.000 NA
ATOM     12  H   UNL     1       9.262   5.853  12.300  0.00  0.00    +0.000 HD
ATOM     13  H   UNL     1       9.197   6.521  13.937  0.00  0.00    +0.000 HD
ATOM     14  H   UNL     1       8.080   6.496  16.003  0.00  0.00    +0.000 HD
ENDROOT
BRANCH   1  15
ATOM     15  O   UNL     1       5.409   2.819  11.756  0.00  0.00    +0.000 OA
BRANCH  15  16
ATOM     16  C   UNL     1       4.099   2.786  11.321  0.00  0.00    +0.000 C 
BRANCH  16  17
ATOM     17  C   UNL     1       3.700   4.085  10.589  0.00  0.00    +0.000 C 
BRANCH  17  19
ATOM     18  C   UNL     1       2.155   5.192   8.823  0.00  0.00    +0.000 C 
ATOM     19  C   UNL     1       2.738   3.895   9.393  0.00  0.00    +0.000 C 
ENDBRANCH  17  19
ENDBRANCH  16  17
ENDBRANCH  15  16
ENDBRANCH   1  15
BRANCH   9  20
ATOM     20  C   UNL     1       4.038   4.306  16.716  0.00  0.00    +0.000 C 
BRANCH  20  21
ATOM     21  C   UNL     1       4.040   2.997  17.582  0.00  0.00    +0.000 C 
ATOM     22  C   UNL     1       2.682   2.265  17.628  0.00  0.00    +0.000 C 
ATOM     23  C   UNL     1       1.609   3.136  18.315  0.00  0.00    +0.000 C 
ATOM     24  N   UNL     1       2.011   3.547  19.676  0.00  0.00    +0.000 NA
ATOM     25  C   UNL     1       3.335   4.193  19.716  0.00  0.00    +0.000 C 
ATOM     26  C   UNL     1       4.411   3.314  19.052  0.00  0.00    +0.000 C 
ATOM     27  H   UNL     1       2.012   2.717  20.310  0.00  0.00    +0.000 HD
ENDBRANCH  20  21
ENDBRANCH   9  20
TORSDOF 6
ENDMDL
MODEL 3
REMARK VINA RESULT:      -7.7      0.801      1.279
REMARK  Name = 
REMARK  7 active torsions:
REMARK  status: ('A' for Active; 'I' for Inactive)
REMARK    1  A    between atoms: C_1  and  C_2
REMARK    2  A    between atoms: C_2  and  C_3
REMARK    3  A    between atoms: C_3  and  C_4
REMARK    4  A    between atoms: C_4  and  O_5
REMARK    5  A    between atoms: O_5  and  C_6
REMARK    6  A    between atoms: N_14  and  C_15
REMARK    7  A    between atoms: C_15  and  C_16
REMARK                            x       y       z     vdW  Elec       q    Type
REMARK                         _______ _______ _______ _____ _____    ______ ____
ROOT
ATOM      1  C   UNL     1       5.587   4.345  14.697  0.00  0.00    +0.000 A 
ATOM      2  N   UNL     1       6.490   5.349  14.969  0.00  0.00    +0.000 NA
ATOM      3  C   UNL     1       6.761   5.736  16.256  0.00  0.00    +0.000 A 
ATOM      4  N   UNL     1       7.637   6.819  16.515  0.00  0.00    +0.000 N 
ATOM      5  C   UNL     1       6.117   5.042  17.283  0.00  0.00    +0.000 A 
ATOM      6  N   UNL     1       6.193   5.199  18.617  0.00  0.00    +0.000 N 
ATOM      7  C   UNL     1       5.319   4.273  19.111  0.00  0.00    +0.000 A 
ATOM      8  O   UNL     1       5.079   4.141  20.298  0.00  0.00    +0.000 OA
ATOM      9  N   UNL     1       4.705   3.542  18.125  0.00  0.00    +0.000 N 
ATOM     10  C   UNL     1       5.228   4.054  16.989  0.00  0.00    +0.000 A 
ATOM     11  N   UNL     1       4.927   3.712  15.714  0.00  0.00    +0.000 NA
ATOM     12  H   UNL     1       8.067   7.341  15.738  0.00  0.00    +0.000 HD
ATOM     13  H   UNL     1       7.808   7.149  17.478  0.00  0.00    +0.000 HD
ATOM     14  H   UNL     1       6.762   5.886  19.159  0.00  0.00    +0.000 HD
ENDROOT
BRANCH   1  15
ATOM     15  O   UNL     1       5.325   3.953  13.424  0.00  0.00    +0.000 OA
BRANCH  15  16
ATOM     16  C   UNL     1       6.192   3.337  12.543  0.00  0.00    +0.000 C 
BRANCH  16  17
ATOM     17  C   UNL     1       5.474   2.294  11.661  0.00  0.00    +0.000 C 
BRANCH  17  19
ATOM     18  C   UNL     1       6.115  -0.191  11.276  0.00  0.00    +0.000 C 
ATOM     19  C   UNL     1       6.404   1.279  10.956  0.00  0.00    +0.000 C 
ENDBRANCH  17  19
ENDBRANCH  16  17
ENDBRANCH  15  16
ENDBRANCH   1  15
BRANCH   9  20
ATOM     20  C   UNL     1       3.588   2.594  18.306  0.00  0.00    +0.000 C 
BRANCH  20  21
ATOM     21  C   UNL     1       2.181   3.098  17.825  0.00  0.00    +0.000 C 
ATOM     22  C   UNL     1       1.893   4.579  18.147  0.00  0.00    +0.000 C 
ATOM     23  C   UNL     1       1.844   4.812  19.673  0.00  0.00    +0.000 C 
ATOM     24  N   UNL     1       0.851   3.945  20.337  0.00  0.00    +0.000 NA
ATOM     25  C   UNL     1       1.024   2.516  20.017  0.00  0.00    +0.000 C 
ATOM     26  C   UNL     1       1.049   2.281  18.496  0.00  0.00    +0.000 C 
ATOM     27  H   UNL     1      -0.114   4.244  20.072  0.00  0.00    +0.000 HD
ENDBRANCH  20  21
ENDBRANCH   9  20
TORSDOF 6
ENDMDL
MODEL 4
REMARK VINA RESULT:      -7.7      2.884      5.345
REMARK  Name = 
REMARK  7 active torsions:
REMARK  status: ('A' for Active; 'I' for Inactive)
REMARK    1  A    between atoms: C_1  and  C_2
REMARK    2  A    between atoms: C_2  and  C_3
REMARK    3  A    between atoms: C_3  and  C_4
REMARK    4  A    between atoms: C_4  and  O_5
REMARK    5  A    between atoms: O_5  and  C_6
REMARK    6  A    between atoms: N_14  and  C_15
REMARK    7  A    between atoms: C_15  and  C_16
REMARK                            x       y       z     vdW  Elec       q    Type
REMARK                         _______ _______ _______ _____ _____    ______ ____
ROOT
ATOM      1  C   UNL     1       7.301   6.697  17.617  0.00  0.00    +0.000 A 
ATOM      2  N   UNL     1       7.623   6.373  16.317  0.00  0.00    +0.000 NA
ATOM      3  C   UNL     1       6.995   5.347  15.659  0.00  0.00    +0.000 A 
ATOM      4  N   UNL     1       7.391   4.981  14.349  0.00  0.00    +0.000 N 
ATOM      5  C   UNL     1       5.985   4.670  16.345  0.00  0.00    +0.000 A 
ATOM      6  N   UNL     1       5.209   3.643  15.955  0.00  0.00    +0.000 N 
ATOM      7  C   UNL     1       4.435   3.376  17.047  0.00  0.00    +0.000 A 
ATOM      8  O   UNL     1       3.625   2.468  17.091  0.00  0.00    +0.000 OA
ATOM      9  N   UNL     1       4.703   4.209  18.105  0.00  0.00    +0.000 N 
ATOM     10  C   UNL     1       5.684   5.006  17.629  0.00  0.00    +0.000 A 
ATOM     11  N   UNL     1       6.344   5.988  18.289  0.00  0.00    +0.000 NA
ATOM     12  H   UNL     1       8.168   5.470  13.882  0.00  0.00    +0.000 HD
ATOM     13  H   UNL     1       6.958   4.178  13.866  0.00  0.00    +0.000 HD
ATOM     14  H   UNL     1       5.210   3.139  15.040  0.00  0.00    +0.000 HD
ENDROOT
BRANCH   1  15
ATOM     15  O   UNL     1       7.913   7.718  18.266  0.00  0.00    +0.000 OA
BRANCH  15  16
ATOM     16  C   UNL     1       7.966   9.043  17.881  0.00  0.00    +0.000 C 
BRANCH  16  17
ATOM     17  C   UNL     1       8.949   9.859  18.747  0.00  0.00    +0.000 C 
BRANCH  17  19
ATOM     18  C   UNL     1      10.733  11.536  17.889  0.00  0.00    +0.000 C 
ATOM     19  C   UNL     1       9.260  11.281  18.224  0.00  0.00    +0.000 C 
ENDBRANCH  17  19
ENDBRANCH  16  17
ENDBRANCH  15  16
ENDBRANCH   1  15
BRANCH   9  20
ATOM     20  C   UNL     1       4.177   4.076  19.478  0.00  0.00    +0.000 C 
BRANCH  20  21
ATOM     21  C   UNL     1       3.015   5.059  19.861  0.00  0.00    +0.000 C 
ATOM     22  C   UNL     1       2.405   4.807  21.255  0.00  0.00    +0.000 C 
ATOM     23  C   UNL     1       1.725   3.422  21.317  0.00  0.00    +0.000 C 
ATOM     24  N   UNL     1       0.692   3.261  20.274  0.00  0.00    +0.000 NA
ATOM     25  C   UNL     1       1.190   3.556  18.918  0.00  0.00    +0.000 C 
ATOM     26  C   UNL     1       1.847   4.946  18.850  0.00  0.00    +0.000 C 
ATOM     27  H   UNL     1      -0.124   3.879  20.485  0.00  0.00    +0.000 HD
ENDBRANCH  20  21
ENDBRANCH   9  20
TORSDOF 6
ENDMDL
MODEL 5
REMARK VINA RESULT:      -7.6      1.279      1.621
REMARK  Name = 
REMARK  7 active torsions:
REMARK  status: ('A' for Active; 'I' for Inactive)
REMARK    1  A    between atoms: C_1  and  C_2
REMARK    2  A    between atoms: C_2  and  C_3
REMARK    3  A    between atoms: C_3  and  C_4
REMARK    4  A    between atoms: C_4  and  O_5
REMARK    5  A    between atoms: O_5  and  C_6
REMARK    6  A    between atoms: N_14  and  C_15
REMARK    7  A    between atoms: C_15  and  C_16
REMARK                            x       y       z     vdW  Elec       q    Type
REMARK                         _______ _______ _______ _____ _____    ______ ____
ROOT
ATOM      1  C   UNL     1       6.156   4.248  15.076  0.00  0.00    +0.000 A 
ATOM      2  N   UNL     1       7.063   5.232  15.402  0.00  0.00    +0.000 NA
ATOM      3  C   UNL     1       6.844   6.086  16.452  0.00  0.00    +0.000 A 
ATOM      4  N   UNL     1       7.751   7.138  16.728  0.00  0.00    +0.000 N 
ATOM      5  C   UNL     1       5.685   5.891  17.206  0.00  0.00    +0.000 A 
ATOM      6  N   UNL     1       5.221   6.562  18.276  0.00  0.00    +0.000 N 
ATOM      7  C   UNL     1       4.033   5.952  18.562  0.00  0.00    +0.000 A 
ATOM      8  O   UNL     1       3.290   6.316  19.456  0.00  0.00    +0.000 OA
ATOM      9  N   UNL     1       3.744   4.920  17.705  0.00  0.00    +0.000 N 
ATOM     10  C   UNL     1       4.802   4.912  16.864  0.00  0.00    +0.000 A 
ATOM     11  N   UNL     1       5.001   4.105  15.794  0.00  0.00    +0.000 NA
ATOM     12  H   UNL     1       8.577   7.286  16.131  0.00  0.00    +0.000 HD
ATOM     13  H   UNL     1       7.569   7.816  17.485  0.00  0.00    +0.000 HD
ATOM     14  H   UNL     1       5.649   7.379  18.765  0.00  0.00    +0.000 HD
ENDROOT
BRANCH   1  15
ATOM     15  O   UNL     1       6.375   3.395  14.044  0.00  0.00    +0.000 OA
BRANCH  15  16
ATOM     16  C   UNL     1       6.111   3.614  12.706  0.00  0.00    +0.000 C 
BRANCH  16  17
ATOM     17  C   UNL     1       4.599   3.565  12.400  0.00  0.00    +0.000 C 
BRANCH  17  19
ATOM     18  C   UNL     1       3.317   3.917  10.172  0.00  0.00    +0.000 C 
ATOM     19  C   UNL     1       4.229   3.011  11.006  0.00  0.00    +0.000 C 
ENDBRANCH  17  19
ENDBRANCH  16  17
ENDBRANCH  15  16
ENDBRANCH   1  15
BRANCH   9  20
ATOM     20  C   UNL     1       2.471   4.178  17.627  0.00  0.00    +0.000 C 
BRANCH  20  21
ATOM     21  C   UNL     1       2.550   2.649  17.973  0.00  0.00    +0.000 C 
ATOM     22  C   UNL     1       1.217   2.039  18.455  0.00  0.00    +0.000 C 
ATOM     23  C   UNL     1       0.769   2.676  19.788  0.00  0.00    +0.000 C 
ATOM     24  N   UNL     1       1.797   2.548  20.841  0.00  0.00    +0.000 NA
ATOM     25  C   UNL     1       3.118   3.050  20.422  0.00  0.00    +0.000 C 
ATOM     26  C   UNL     1       3.576   2.397  19.105  0.00  0.00    +0.000 C 
ATOM     27  H   UNL     1       1.883   1.548  21.131  0.00  0.00    +0.000 HD
ENDBRANCH  20  21
ENDBRANCH   9  20
TORSDOF 6
ENDMDL
MODEL 6
REMARK VINA RESULT:      -7.6      1.717      2.603
REMARK  Name = 
REMARK  7 active torsions:
REMARK  status: ('A' for Active; 'I' for Inactive)
REMARK    1  A    between atoms: C_1  and  C_2
REMARK    2  A    between atoms: C_2  and  C_3
REMARK    3  A    between atoms: C_3  and  C_4
REMARK    4  A    between atoms: C_4  and  O_5
REMARK    5  A    between atoms: O_5  and  C_6
REMARK    6  A    between atoms: N_14  and  C_15
REMARK    7  A    between atoms: C_15  and  C_16
REMARK                            x       y       z     vdW  Elec       q    Type
REMARK                         _______ _______ _______ _____ _____    ______ ____
ROOT
ATOM      1  C   UNL     1       6.037   3.552  12.719  0.00  0.00    +0.000 A 
ATOM      2  N   UNL     1       7.182   4.299  12.551  0.00  0.00    +0.000 NA
ATOM      3  C   UNL     1       7.654   5.116  13.546  0.00  0.00    +0.000 A 
ATOM      4  N   UNL     1       8.791   5.933  13.329  0.00  0.00    +0.000 N 
ATOM      5  C   UNL     1       6.952   5.129  14.752  0.00  0.00    +0.000 A 
ATOM      6  N   UNL     1       7.181   5.819  15.884  0.00  0.00    +0.000 N 
ATOM      7  C   UNL     1       6.152   5.461  16.707  0.00  0.00    +0.000 A 
ATOM      8  O   UNL     1       5.994   5.922  17.823  0.00  0.00    +0.000 OA
ATOM      9  N   UNL     1       5.290   4.567  16.123  0.00  0.00    +0.000 N 
ATOM     10  C   UNL     1       5.821   4.383  14.895  0.00  0.00    +0.000 A 
ATOM     11  N   UNL     1       5.334   3.617  13.890  0.00  0.00    +0.000 NA
ATOM     12  H   UNL     1       9.267   5.936  12.416  0.00  0.00    +0.000 HD
ATOM     13  H   UNL     1       9.124   6.588  14.055  0.00  0.00    +0.000 HD
ATOM     14  H   UNL     1       7.950   6.496  16.087  0.00  0.00    +0.000 HD
ENDROOT
BRANCH   1  15
ATOM     15  O   UNL     1       5.574   2.734  11.740  0.00  0.00    +0.000 OA
BRANCH  15  16
ATOM     16  C   UNL     1       4.280   2.644  11.268  0.00  0.00    +0.000 C 
BRANCH  16  17
ATOM     17  C   UNL     1       3.804   3.966  10.627  0.00  0.00    +0.000 C 
BRANCH  17  19
ATOM     18  C   UNL     1       2.412   5.013   8.705  0.00  0.00    +0.000 C 
ATOM     19  C   UNL     1       2.604   3.833   9.663  0.00  0.00    +0.000 C 
ENDBRANCH  17  19
ENDBRANCH  16  17
ENDBRANCH  15  16
ENDBRANCH   1  15
BRANCH   9  20
ATOM     20  C   UNL     1       3.994   4.119  16.667  0.00  0.00    +0.000 C 
BRANCH  20  21
ATOM     21  C   UNL     1       3.894   4.061  18.233  0.00  0.00    +0.000 C 
ATOM     22  C   UNL     1       4.352   2.722  18.848  0.00  0.00    +0.000 C 
ATOM     23  C   UNL     1       3.435   1.565  18.396  0.00  0.00    +0.000 C 
ATOM     24  N   UNL     1       2.018   1.817  18.726  0.00  0.00    +0.000 NA
ATOM     25  C   UNL     1       1.530   3.115  18.226  0.00  0.00    +0.000 C 
ATOM     26  C   UNL     1       2.431   4.272  18.696  0.00  0.00    +0.000 C 
ATOM     27  H   UNL     1       1.881   1.770  19.760  0.00  0.00    +0.000 HD
ENDBRANCH  20  21
ENDBRANCH   9  20
TORSDOF 6
ENDMDL
MODEL 7
REMARK VINA RESULT:      -7.4      1.679      2.285
REMARK  Name = 
REMARK  7 active torsions:
REMARK  status: ('A' for Active; 'I' for Inactive)
REMARK    1  A    between atoms: C_1  and  C_2
REMARK    2  A    between atoms: C_2  and  C_3
REMARK    3  A    between atoms: C_3  and  C_4
REMARK    4  A    between atoms: C_4  and  O_5
REMARK    5  A    between atoms: O_5  and  C_6
REMARK    6  A    between atoms: N_14  and  C_15
REMARK    7  A    between atoms: C_15  and  C_16
REMARK                            x       y       z     vdW  Elec       q    Type
REMARK                         _______ _______ _______ _____ _____    ______ ____
ROOT
ATOM      1  C   UNL     1       5.984   3.422  13.120  0.00  0.00    +0.000 A 
ATOM      2  N   UNL     1       7.029   4.224  12.717  0.00  0.00    +0.000 NA
ATOM      3  C   UNL     1       7.632   5.100  13.582  0.00  0.00    +0.000 A 
ATOM      4  N   UNL     1       8.656   5.969  13.130  0.00  0.00    +0.000 N 
ATOM      5  C   UNL     1       7.174   5.115  14.900  0.00  0.00    +0.000 A 
ATOM      6  N   UNL     1       7.575   5.856  15.950  0.00  0.00    +0.000 N 
ATOM      7  C   UNL     1       6.746   5.471  16.964  0.00  0.00    +0.000 A 
ATOM      8  O   UNL     1       6.777   5.961  18.079  0.00  0.00    +0.000 OA
ATOM      9  N   UNL     1       5.843   4.512  16.580  0.00  0.00    +0.000 N 
ATOM     10  C   UNL     1       6.139   4.315  15.276  0.00  0.00    +0.000 A 
ATOM     11  N   UNL     1       5.515   3.489  14.403  0.00  0.00    +0.000 NA
ATOM     12  H   UNL     1       8.946   5.966  12.142  0.00  0.00    +0.000 HD
ATOM     13  H   UNL     1       9.081   6.666  13.762  0.00  0.00    +0.000 HD
ATOM     14  H   UNL     1       8.326   6.580  15.984  0.00  0.00    +0.000 HD
ENDROOT
BRANCH   1  15
ATOM     15  O   UNL     1       5.392   2.547  12.269  0.00  0.00    +0.000 OA
BRANCH  15  16
ATOM     16  C   UNL     1       4.967   2.792  10.978  0.00  0.00    +0.000 C 
BRANCH  16  17
ATOM     17  C   UNL     1       3.741   3.729  10.941  0.00  0.00    +0.000 C 
BRANCH  17  19
ATOM     18  C   UNL     1       2.359   4.898   9.082  0.00  0.00    +0.000 C 
ATOM     19  C   UNL     1       2.837   3.579   9.696  0.00  0.00    +0.000 C 
ENDBRANCH  17  19
ENDBRANCH  16  17
ENDBRANCH  15  16
ENDBRANCH   1  15
BRANCH   9  20
ATOM     20  C   UNL     1       4.704   4.014  17.374  0.00  0.00    +0.000 C 
BRANCH  20  21
ATOM     21  C   UNL     1       3.379   4.849  17.266  0.00  0.00    +0.000 C 
ATOM     22  C   UNL     1       3.334   6.089  18.183  0.00  0.00    +0.000 C 
ATOM     23  C   UNL     1       3.366   5.676  19.671  0.00  0.00    +0.000 C 
ATOM     24  N   UNL     1       2.269   4.749  20.015  0.00  0.00    +0.000 NA
ATOM     25  C   UNL     1       2.209   3.571  19.131  0.00  0.00    +0.000 C 
ATOM     26  C   UNL     1       2.154   3.983  17.649  0.00  0.00    +0.000 C 
ATOM     27  H   UNL     1       1.355   5.255  19.981  0.00  0.00    +0.000 HD
ENDBRANCH  20  21
ENDBRANCH   9  20
TORSDOF 6
ENDMDL
MODEL 8
REMARK VINA RESULT:      -7.3      1.626      2.018
REMARK  Name = 
REMARK  7 active torsions:
REMARK  status: ('A' for Active; 'I' for Inactive)
REMARK    1  A    between atoms: C_1  and  C_2
REMARK    2  A    between atoms: C_2  and  C_3
REMARK    3  A    between atoms: C_3  and  C_4
REMARK    4  A    between atoms: C_4  and  O_5
REMARK    5  A    between atoms: O_5  and  C_6
REMARK    6  A    between atoms: N_14  and  C_15
REMARK    7  A    between atoms: C_15  and  C_16
REMARK                            x       y       z     vdW  Elec       q    Type
REMARK                         _______ _______ _______ _____ _____    ______ ____
ROOT
ATOM      1  C   UNL     1       6.116   4.240  15.124  0.00  0.00    +0.000 A 
ATOM      2  N   UNL     1       7.036   5.211  15.454  0.00  0.00    +0.000 NA
ATOM      3  C   UNL     1       6.823   6.071  16.500  0.00  0.00    +0.000 A 
ATOM      4  N   UNL     1       7.745   7.109  16.778  0.00  0.00    +0.000 N 
ATOM      5  C   UNL     1       5.656   5.895  17.246  0.00  0.00    +0.000 A 
ATOM      6  N   UNL     1       5.196   6.577  18.311  0.00  0.00    +0.000 N 
ATOM      7  C   UNL     1       3.997   5.987  18.591  0.00  0.00    +0.000 A 
ATOM      8  O   UNL     1       3.254   6.365  19.479  0.00  0.00    +0.000 OA
ATOM      9  N   UNL     1       3.698   4.957  17.735  0.00  0.00    +0.000 N 
ATOM     10  C   UNL     1       4.760   4.930  16.901  0.00  0.00    +0.000 A 
ATOM     11  N   UNL     1       4.954   4.117  15.835  0.00  0.00    +0.000 NA
ATOM     12  H   UNL     1       8.577   7.243  16.187  0.00  0.00    +0.000 HD
ATOM     13  H   UNL     1       7.568   7.792  17.533  0.00  0.00    +0.000 HD
ATOM     14  H   UNL     1       5.634   7.389  18.801  0.00  0.00    +0.000 HD
ENDROOT
BRANCH   1  15
ATOM     15  O   UNL     1       6.329   3.381  14.096  0.00  0.00    +0.000 OA
BRANCH  15  16
ATOM     16  C   UNL     1       5.894   3.512  12.792  0.00  0.00    +0.000 C 
BRANCH  16  17
ATOM     17  C   UNL     1       7.065   3.494  11.787  0.00  0.00    +0.000 C 
BRANCH  17  19
ATOM     18  C   UNL     1       6.154   1.135  11.206  0.00  0.00    +0.000 C 
ATOM     19  C   UNL     1       7.304   2.140  11.081  0.00  0.00    +0.000 C 
ENDBRANCH  17  19
ENDBRANCH  16  17
ENDBRANCH  15  16
ENDBRANCH   1  15
BRANCH   9  20
ATOM     20  C   UNL     1       2.414   4.235  17.650  0.00  0.00    +0.000 C 
BRANCH  20  21
ATOM     21  C   UNL     1       2.471   2.700  17.977  0.00  0.00    +0.000 C 
ATOM     22  C   UNL     1       1.148   2.117  18.516  0.00  0.00    +0.000 C 
ATOM     23  C   UNL     1       0.780   2.750  19.876  0.00  0.00    +0.000 C 
ATOM     24  N   UNL     1       1.854   2.584  20.876  0.00  0.00    +0.000 NA
ATOM     25  C   UNL     1       3.165   3.059  20.400  0.00  0.00    +0.000 C 
ATOM     26  C   UNL     1       3.543   2.410  19.055  0.00  0.00    +0.000 C 
ATOM     27  H   UNL     1       1.928   1.579  21.152  0.00  0.00    +0.000 HD
ENDBRANCH  20  21
ENDBRANCH   9  20
TORSDOF 6
ENDMDL
MODEL 9
REMARK VINA RESULT:      -7.1      2.866      7.538
REMARK  Name = 
REMARK  7 active torsions:
REMARK  status: ('A' for Active; 'I' for Inactive)
REMARK    1  A    between atoms: C_1  and  C_2
REMARK    2  A    between atoms: C_2  and  C_3
REMARK    3  A    between atoms: C_3  and  C_4
REMARK    4  A    between atoms: C_4  and  O_5
REMARK    5  A    between atoms: O_5  and  C_6
REMARK    6  A    between atoms: N_14  and  C_15
REMARK    7  A    between atoms: C_15  and  C_16
REMARK                            x       y       z     vdW  Elec       q    Type
REMARK                         _______ _______ _______ _____ _____    ______ ____
ROOT
ATOM      1  C   UNL     1       2.164   6.015  20.201  0.00  0.00    +0.000 A 
ATOM      2  N   UNL     1       1.739   5.141  21.177  0.00  0.00    +0.000 NA
ATOM      3  C   UNL     1       1.962   3.792  21.075  0.00  0.00    +0.000 A 
ATOM      4  N   UNL     1       1.454   2.901  22.052  0.00  0.00    +0.000 N 
ATOM      5  C   UNL     1       2.675   3.344  19.962  0.00  0.00    +0.000 A 
ATOM      6  N   UNL     1       3.038   2.098  19.608  0.00  0.00    +0.000 N 
ATOM      7  C   UNL     1       3.677   2.264  18.412  0.00  0.00    +0.000 A 
ATOM      8  O   UNL     1       4.117   1.340  17.751  0.00  0.00    +0.000 OA
ATOM      9  N   UNL     1       3.725   3.576  18.013  0.00  0.00    +0.000 N 
ATOM     10  C   UNL     1       3.084   4.226  19.008  0.00  0.00    +0.000 A 
ATOM     11  N   UNL     1       2.815   5.551  19.092  0.00  0.00    +0.000 NA
ATOM     12  H   UNL     1       0.895   3.254  22.842  0.00  0.00    +0.000 HD
ATOM     13  H   UNL     1       1.574   1.880  21.957  0.00  0.00    +0.000 HD
ATOM     14  H   UNL     1       2.854   1.200  20.109  0.00  0.00    +0.000 HD
ENDROOT
BRANCH   1  15
ATOM     15  O   UNL     1       1.954   7.352  20.305  0.00  0.00    +0.000 OA
BRANCH  15  16
ATOM     16  C   UNL     1       1.047   7.995  21.124  0.00  0.00    +0.000 C 
BRANCH  16  17
ATOM     17  C   UNL     1       0.894   9.487  20.759  0.00  0.00    +0.000 C 
BRANCH  17  19
ATOM     18  C   UNL     1      -0.203   9.624  23.106  0.00  0.00    +0.000 C 
ATOM     19  C   UNL     1       0.122  10.340  21.792  0.00  0.00    +0.000 C 
ENDBRANCH  17  19
ENDBRANCH  16  17
ENDBRANCH  15  16
ENDBRANCH   1  15
BRANCH   9  20
ATOM     20  C   UNL     1       4.181   4.074  16.700  0.00  0.00    +0.000 C 
BRANCH  20  21
ATOM     21  C   UNL     1       4.891   5.474  16.711  0.00  0.00    +0.000 C 
ATOM     22  C   UNL     1       5.369   5.953  15.325  0.00  0.00    +0.000 C 
ATOM     23  C   UNL     1       6.458   5.014  14.762  0.00  0.00    +0.000 C 
ATOM     24  N   UNL     1       7.608   4.883  15.679  0.00  0.00    +0.000 NA
ATOM     25  C   UNL     1       7.216   4.493  17.045  0.00  0.00    +0.000 C 
ATOM     26  C   UNL     1       6.147   5.443  17.616  0.00  0.00    +0.000 C 
ATOM     27  H   UNL     1       8.138   5.782  15.714  0.00  0.00    +0.000 HD
ENDBRANCH  20  21
ENDBRANCH   9  20
TORSDOF 6
ENDMDL
