MODEL 1
REMARK VINA RESULT:      -7.3      0.000      0.000
REMARK  Name = 
REMARK  9 active torsions:
REMARK  status: ('A' for Active; 'I' for Inactive)
REMARK    1  A    between atoms: C_1  and  C_2
REMARK    2  A    between atoms: C_4  and  N_5
REMARK    3  A    between atoms: N_8  and  C_9
REMARK    4  A    between atoms: C_9  and  C_10
REMARK    5  A    between atoms: C_11  and  C_12
REMARK    6  A    between atoms: C_14  and  C_15
REMARK    7  A    between atoms: C_15  and  O_16
REMARK    8  A    between atoms: C_18  and  C_19
REMARK    9  A    between atoms: C_21  and  C_22
REMARK                            x       y       z     vdW  Elec       q    Type
REMARK                         _______ _______ _______ _____ _____    ______ ____
ROOT
ATOM      1  N   UNL     1       2.523   7.479  20.558  0.00  0.00    +0.000 N 
ATOM      2  C   UNL     1       2.533   6.254  19.918  0.00  0.00    +0.000 C 
ATOM      3  O   UNL     1       1.623   5.794  19.235  0.00  0.00    +0.000 OA
ATOM      4  N   UNL     1       3.700   5.549  20.130  0.00  0.00    +0.000 N 
ATOM      5  H   UNL     1       3.318   7.700  21.131  0.00  0.00    +0.000 HD
ATOM      6  H   UNL     1       4.527   6.087  20.332  0.00  0.00    +0.000 HD
ENDROOT
BRANCH   1  10
ATOM      7  C   UNL     1      -0.702  10.452  18.198  0.00  0.00    +0.000 C 
ATOM      8  C   UNL     1      -0.123   9.869  19.452  0.00  0.00    +0.000 A 
ATOM      9  C   UNL     1       0.939   8.975  19.387  0.00  0.00    +0.000 A 
ATOM     10  C   UNL     1       1.453   8.418  20.551  0.00  0.00    +0.000 A 
ATOM     11  C   UNL     1       0.878   8.797  21.766  0.00  0.00    +0.000 A 
ATOM     12  C   UNL     1      -0.179   9.710  21.762  0.00  0.00    +0.000 A 
ATOM     13  C   UNL     1      -0.836  10.162  23.030  0.00  0.00    +0.000 C 
ATOM     14  N   UNL     1      -0.681  10.242  20.623  0.00  0.00    +0.000 NA
ENDBRANCH   1  10
BRANCH   4  15
ATOM     15  C   UNL     1       3.916   4.264  19.478  0.00  0.00    +0.000 C 
BRANCH  15  16
ATOM     16  C   UNL     1       4.674   4.367  18.164  0.00  0.00    +0.000 A 
ATOM     17  C   UNL     1       5.996   4.875  18.118  0.00  0.00    +0.000 A 
ATOM     18  C   UNL     1       6.758   5.390  19.313  0.00  0.00    +0.000 C 
ATOM     19  C   UNL     1       6.696   4.911  16.892  0.00  0.00    +0.000 A 
ATOM     20  C   UNL     1       6.128   4.451  15.705  0.00  0.00    +0.000 A 
ATOM     21  C   UNL     1       4.815   3.978  15.746  0.00  0.00    +0.000 A 
ATOM     22  C   UNL     1       4.086   3.919  16.952  0.00  0.00    +0.000 A 
ATOM     23  C   UNL     1       2.700   3.328  16.894  0.00  0.00    +0.000 C 
BRANCH  20  24
ATOM     24  C   UNL     1       6.904   4.534  14.415  0.00  0.00    +0.000 C 
BRANCH  24  25
ATOM     25  O   UNL     1       7.884   5.564  14.451  0.00  0.00    +0.000 OA
ATOM     26  H   UNL     1       8.381   5.444  15.278  0.00  0.00    +0.000 HD
ENDBRANCH  24  25
ENDBRANCH  20  24
ENDBRANCH  15  16
ENDBRANCH   4  15
TORSDOF 5
ENDMDL
MODEL 2
REMARK VINA RESULT:      -7.2      0.097      1.825
REMARK  Name = 
REMARK  9 active torsions:
REMARK  status: ('A' for Active; 'I' for Inactive)
REMARK    1  A    between atoms: C_1  and  C_2
REMARK    2  A    between atoms: C_4  and  N_5
REMARK    3  A    between atoms: N_8  and  C_9
REMARK    4  A    between atoms: C_9  and  C_10
REMARK    5  A    between atoms: C_11  and  C_12
REMARK    6  A    between atoms: C_14  and  C_15
REMARK    7  A    between atoms: C_15  and  O_16
REMARK    8  A    between atoms: C_18  and  C_19
REMARK    9  A    between atoms: C_21  and  C_22
REMARK                            x       y       z     vdW  Elec       q    Type
REMARK                         _______ _______ _______ _____ _____    ______ ____
ROOT
ATOM      1  N   UNL     1       2.550   7.616  20.469  0.00  0.00    +0.000 N 
ATOM      2  C   UNL     1       2.540   6.343  19.933  0.00  0.00    +0.000 C 
ATOM      3  O   UNL     1       1.580   5.800  19.393  0.00  0.00    +0.000 OA
ATOM      4  N   UNL     1       3.749   5.694  20.069  0.00  0.00    +0.000 N 
ATOM      5  H   UNL     1       3.393   7.909  20.931  0.00  0.00    +0.000 HD
ATOM      6  H   UNL     1       4.572   6.272  20.135  0.00  0.00    +0.000 HD
ENDROOT
BRANCH   1  10
ATOM      7  C   UNL     1      -0.824  10.528  18.245  0.00  0.00    +0.000 C 
ATOM      8  C   UNL     1      -0.198   9.938  19.473  0.00  0.00    +0.000 A 
ATOM      9  C   UNL     1       0.892   9.082  19.366  0.00  0.00    +0.000 A 
ATOM     10  C   UNL     1       1.450   8.518  20.506  0.00  0.00    +0.000 A 
ATOM     11  C   UNL     1       0.890   8.852  21.741  0.00  0.00    +0.000 A 
ATOM     12  C   UNL     1      -0.197   9.729  21.780  0.00  0.00    +0.000 A 
ATOM     13  C   UNL     1      -0.840  10.131  23.071  0.00  0.00    +0.000 C 
ATOM     14  N   UNL     1      -0.741  10.268  20.663  0.00  0.00    +0.000 NA
ENDBRANCH   1  10
BRANCH   4  15
ATOM     15  C   UNL     1       3.944   4.366  19.502  0.00  0.00    +0.000 C 
BRANCH  15  16
ATOM     16  C   UNL     1       4.698   4.372  18.182  0.00  0.00    +0.000 A 
ATOM     17  C   UNL     1       4.084   3.926  16.984  0.00  0.00    +0.000 A 
ATOM     18  C   UNL     1       2.682   3.379  16.894  0.00  0.00    +0.000 C 
ATOM     19  C   UNL     1       4.789   3.991  15.763  0.00  0.00    +0.000 A 
ATOM     20  C   UNL     1       6.087   4.493  15.687  0.00  0.00    +0.000 A 
ATOM     21  C   UNL     1       6.703   4.903  16.871  0.00  0.00    +0.000 A 
ATOM     22  C   UNL     1       6.029   4.861  18.109  0.00  0.00    +0.000 A 
ATOM     23  C   UNL     1       6.763   5.392  19.314  0.00  0.00    +0.000 C 
BRANCH  20  24
ATOM     24  C   UNL     1       6.810   4.518  14.364  0.00  0.00    +0.000 C 
BRANCH  24  25
ATOM     25  O   UNL     1       7.849   5.489  14.347  0.00  0.00    +0.000 OA
ATOM     26  H   UNL     1       7.550   6.225  14.907  0.00  0.00    +0.000 HD
ENDBRANCH  24  25
ENDBRANCH  20  24
ENDBRANCH  15  16
ENDBRANCH   4  15
TORSDOF 5
ENDMDL
MODEL 3
REMARK VINA RESULT:      -7.2      0.127      1.737
REMARK  Name = 
REMARK  9 active torsions:
REMARK  status: ('A' for Active; 'I' for Inactive)
REMARK    1  A    between atoms: C_1  and  C_2
REMARK    2  A    between atoms: C_4  and  N_5
REMARK    3  A    between atoms: N_8  and  C_9
REMARK    4  A    between atoms: C_9  and  C_10
REMARK    5  A    between atoms: C_11  and  C_12
REMARK    6  A    between atoms: C_14  and  C_15
REMARK    7  A    between atoms: C_15  and  O_16
REMARK    8  A    between atoms: C_18  and  C_19
REMARK    9  A    between atoms: C_21  and  C_22
REMARK                            x       y       z     vdW  Elec       q    Type
REMARK                         _______ _______ _______ _____ _____    ______ ____
ROOT
ATOM      1  N   UNL     1       2.535   7.632  20.499  0.00  0.00    +0.000 N 
ATOM      2  C   UNL     1       2.527   6.365  19.948  0.00  0.00    +0.000 C 
ATOM      3  O   UNL     1       1.561   5.816  19.428  0.00  0.00    +0.000 OA
ATOM      4  N   UNL     1       3.749   5.732  20.043  0.00  0.00    +0.000 N 
ATOM      5  H   UNL     1       3.386   7.931  20.942  0.00  0.00    +0.000 HD
ATOM      6  H   UNL     1       4.565   6.320  20.094  0.00  0.00    +0.000 HD
ENDROOT
BRANCH   1  10
ATOM      7  C   UNL     1      -0.896  10.162  23.074  0.00  0.00    +0.000 C 
ATOM      8  C   UNL     1      -0.252   9.758  21.782  0.00  0.00    +0.000 A 
ATOM      9  C   UNL     1       0.815   8.868  21.776  0.00  0.00    +0.000 A 
ATOM     10  C   UNL     1       1.424   8.519  20.577  0.00  0.00    +0.000 A 
ATOM     11  C   UNL     1       0.921   9.078  19.401  0.00  0.00    +0.000 A 
ATOM     12  C   UNL     1      -0.163   9.957  19.476  0.00  0.00    +0.000 A 
ATOM     13  C   UNL     1      -0.754  10.586  18.253  0.00  0.00    +0.000 C 
ATOM     14  N   UNL     1      -0.746  10.299  20.649  0.00  0.00    +0.000 NA
ENDBRANCH   1  10
BRANCH   4  15
ATOM     15  C   UNL     1       3.946   4.413  19.455  0.00  0.00    +0.000 C 
BRANCH  15  16
ATOM     16  C   UNL     1       4.685   4.443  18.126  0.00  0.00    +0.000 A 
ATOM     17  C   UNL     1       6.017   4.918  18.039  0.00  0.00    +0.000 A 
ATOM     18  C   UNL     1       6.809   5.465  19.199  0.00  0.00    +0.000 C 
ATOM     19  C   UNL     1       6.698   4.886  16.802  0.00  0.00    +0.000 A 
ATOM     20  C   UNL     1       6.101   4.389  15.645  0.00  0.00    +0.000 A 
ATOM     21  C   UNL     1       4.779   3.950  15.725  0.00  0.00    +0.000 A 
ATOM     22  C   UNL     1       4.068   3.958  16.943  0.00  0.00    +0.000 A 
ATOM     23  C   UNL     1       2.669   3.398  16.931  0.00  0.00    +0.000 C 
BRANCH  20  24
ATOM     24  C   UNL     1       6.858   4.400  14.341  0.00  0.00    +0.000 C 
BRANCH  24  25
ATOM     25  O   UNL     1       7.808   5.458  14.287  0.00  0.00    +0.000 OA
ATOM     26  H   UNL     1       8.524   5.157  13.703  0.00  0.00    +0.000 HD
ENDBRANCH  24  25
ENDBRANCH  20  24
ENDBRANCH  15  16
ENDBRANCH   4  15
TORSDOF 5
ENDMDL
MODEL 4
REMARK VINA RESULT:      -7.2      0.100      2.516
REMARK  Name = 
REMARK  9 active torsions:
REMARK  status: ('A' for Active; 'I' for Inactive)
REMARK    1  A    between atoms: C_1  and  C_2
REMARK    2  A    between atoms: C_4  and  N_5
REMARK    3  A    between atoms: N_8  and  C_9
REMARK    4  A    between atoms: C_9  and  C_10
REMARK    5  A    between atoms: C_11  and  C_12
REMARK    6  A    between atoms: C_14  and  C_15
REMARK    7  A    between atoms: C_15  and  O_16
REMARK    8  A    between atoms: C_18  and  C_19
REMARK    9  A    between atoms: C_21  and  C_22
REMARK                            x       y       z     vdW  Elec       q    Type
REMARK                         _______ _______ _______ _____ _____    ______ ____
ROOT
ATOM      1  N   UNL     1       2.585   7.546  20.492  0.00  0.00    +0.000 N 
ATOM      2  C   UNL     1       2.587   6.287  19.924  0.00  0.00    +0.000 C 
ATOM      3  O   UNL     1       1.632   5.749  19.371  0.00  0.00    +0.000 OA
ATOM      4  N   UNL     1       3.802   5.647  20.044  0.00  0.00    +0.000 N 
ATOM      5  H   UNL     1       3.426   7.835  20.960  0.00  0.00    +0.000 HD
ATOM      6  H   UNL     1       4.620   6.230  20.123  0.00  0.00    +0.000 HD
ENDROOT
BRANCH   1  10
ATOM      7  C   UNL     1      -0.831  10.148  23.015  0.00  0.00    +0.000 C 
ATOM      8  C   UNL     1      -0.193   9.711  21.730  0.00  0.00    +0.000 A 
ATOM      9  C   UNL     1       0.873   8.818  21.743  0.00  0.00    +0.000 A 
ATOM     10  C   UNL     1       1.477   8.437  20.551  0.00  0.00    +0.000 A 
ATOM     11  C   UNL     1       0.970   8.968  19.363  0.00  0.00    +0.000 A 
ATOM     12  C   UNL     1      -0.112   9.850  19.420  0.00  0.00    +0.000 A 
ATOM     13  C   UNL     1      -0.705  10.450  18.183  0.00  0.00    +0.000 C 
ATOM     14  N   UNL     1      -0.690  10.224  20.586  0.00  0.00    +0.000 NA
ENDBRANCH   1  10
BRANCH   4  15
ATOM     15  C   UNL     1       4.009   4.335  19.444  0.00  0.00    +0.000 C 
BRANCH  15  16
ATOM     16  C   UNL     1       4.754   4.381  18.119  0.00  0.00    +0.000 A 
ATOM     17  C   UNL     1       4.134   3.965  16.914  0.00  0.00    +0.000 A 
ATOM     18  C   UNL     1       2.735   3.412  16.818  0.00  0.00    +0.000 C 
ATOM     19  C   UNL     1       4.830   4.067  15.690  0.00  0.00    +0.000 A 
ATOM     20  C   UNL     1       6.125   4.579  15.619  0.00  0.00    +0.000 A 
ATOM     21  C   UNL     1       6.746   4.960  16.810  0.00  0.00    +0.000 A 
ATOM     22  C   UNL     1       6.082   4.880  18.051  0.00  0.00    +0.000 A 
ATOM     23  C   UNL     1       6.821   5.382  19.265  0.00  0.00    +0.000 C 
BRANCH  20  24
ATOM     24  C   UNL     1       6.839   4.644  14.293  0.00  0.00    +0.000 C 
BRANCH  24  25
ATOM     25  O   UNL     1       7.931   5.555  14.323  0.00  0.00    +0.000 OA
ATOM     26  H   UNL     1       8.711   5.062  14.015  0.00  0.00    +0.000 HD
ENDBRANCH  24  25
ENDBRANCH  20  24
ENDBRANCH  15  16
ENDBRANCH   4  15
TORSDOF 5
ENDMDL
MODEL 5
REMARK VINA RESULT:      -7.1      2.850      4.225
REMARK  Name = 
REMARK  9 active torsions:
REMARK  status: ('A' for Active; 'I' for Inactive)
REMARK    1  A    between atoms: C_1  and  C_2
REMARK    2  A    between atoms: C_4  and  N_5
REMARK    3  A    between atoms: N_8  and  C_9
REMARK    4  A    between atoms: C_9  and  C_10
REMARK    5  A    between atoms: C_11  and  C_12
REMARK    6  A    between atoms: C_14  and  C_15
REMARK    7  A    between atoms: C_15  and  O_16
REMARK    8  A    between atoms: C_18  and  C_19
REMARK    9  A    between atoms: C_21  and  C_22
REMARK                            x       y       z     vdW  Elec       q    Type
REMARK                         _______ _______ _______ _____ _____    ______ ____
ROOT
ATOM      1  N   UNL     1       0.226   9.580  17.643  0.00  0.00    +0.000 N 
ATOM      2  C   UNL     1       1.213   9.071  18.465  0.00  0.00    +0.000 C 
ATOM      3  O   UNL     1       1.282   9.222  19.681  0.00  0.00    +0.000 OA
ATOM      4  N   UNL     1       2.168   8.354  17.774  0.00  0.00    +0.000 N 
ATOM      5  H   UNL     1       0.329   9.422  16.656  0.00  0.00    +0.000 HD
ATOM      6  H   UNL     1       1.881   7.928  16.908  0.00  0.00    +0.000 HD
ENDROOT
BRANCH   1  10
ATOM      7  C   UNL     1      -1.904  12.890  20.696  0.00  0.00    +0.000 C 
ATOM      8  C   UNL     1      -1.946  11.978  19.506  0.00  0.00    +0.000 A 
ATOM      9  C   UNL     1      -0.840  11.204  19.174  0.00  0.00    +0.000 A 
ATOM     10  C   UNL     1      -0.876  10.382  18.055  0.00  0.00    +0.000 A 
ATOM     11  C   UNL     1      -2.050  10.357  17.300  0.00  0.00    +0.000 A 
ATOM     12  C   UNL     1      -3.130  11.151  17.696  0.00  0.00    +0.000 A 
ATOM     13  C   UNL     1      -4.418  11.166  16.934  0.00  0.00    +0.000 C 
ATOM     14  N   UNL     1      -3.085  11.956  18.783  0.00  0.00    +0.000 NA
ENDBRANCH   1  10
BRANCH   4  15
ATOM     15  C   UNL     1       3.250   7.687  18.487  0.00  0.00    +0.000 C 
BRANCH  15  16
ATOM     16  C   UNL     1       3.252   6.176  18.314  0.00  0.00    +0.000 A 
ATOM     17  C   UNL     1       4.016   5.556  17.293  0.00  0.00    +0.000 A 
ATOM     18  C   UNL     1       4.846   6.296  16.275  0.00  0.00    +0.000 C 
ATOM     19  C   UNL     1       4.042   4.148  17.187  0.00  0.00    +0.000 A 
ATOM     20  C   UNL     1       3.339   3.330  18.070  0.00  0.00    +0.000 A 
ATOM     21  C   UNL     1       2.564   3.941  19.057  0.00  0.00    +0.000 A 
ATOM     22  C   UNL     1       2.518   5.344  19.200  0.00  0.00    +0.000 A 
ATOM     23  C   UNL     1       1.703   5.896  20.341  0.00  0.00    +0.000 C 
BRANCH  20  24
ATOM     24  C   UNL     1       3.376   1.832  17.902  0.00  0.00    +0.000 C 
BRANCH  24  25
ATOM     25  O   UNL     1       4.341   1.226  18.752  0.00  0.00    +0.000 OA
ATOM     26  H   UNL     1       4.694   0.460  18.269  0.00  0.00    +0.000 HD
ENDBRANCH  24  25
ENDBRANCH  20  24
ENDBRANCH  15  16
ENDBRANCH   4  15
TORSDOF 5
ENDMDL
MODEL 6
REMARK VINA RESULT:      -7.1      3.020      4.352
REMARK  Name = 
REMARK  9 active torsions:
REMARK  status: ('A' for Active; 'I' for Inactive)
REMARK    1  A    between atoms: C_1  and  C_2
REMARK    2  A    between atoms: C_4  and  N_5
REMARK    3  A    between atoms: N_8  and  C_9
REMARK    4  A    between atoms: C_9  and  C_10
REMARK    5  A    between atoms: C_11  and  C_12
REMARK    6  A    between atoms: C_14  and  C_15
REMARK    7  A    between atoms: C_15  and  O_16
REMARK    8  A    between atoms: C_18  and  C_19
REMARK    9  A    between atoms: C_21  and  C_22
REMARK                            x       y       z     vdW  Elec       q    Type
REMARK                         _______ _______ _______ _____ _____    ______ ____
ROOT
ATOM      1  N   UNL     1       0.239   9.667  17.653  0.00  0.00    +0.000 N 
ATOM      2  C   UNL     1       1.274   9.189  18.433  0.00  0.00    +0.000 C 
ATOM      3  O   UNL     1       1.396   9.357  19.642  0.00  0.00    +0.000 OA
ATOM      4  N   UNL     1       2.211   8.485  17.706  0.00  0.00    +0.000 N 
ATOM      5  H   UNL     1       0.299   9.500  16.664  0.00  0.00    +0.000 HD
ATOM      6  H   UNL     1       1.893   8.042  16.859  0.00  0.00    +0.000 HD
ENDROOT
BRANCH   1  10
ATOM      7  C   UNL     1      -1.747  13.175  20.577  0.00  0.00    +0.000 C 
ATOM      8  C   UNL     1      -1.862  12.138  19.501  0.00  0.00    +0.000 A 
ATOM      9  C   UNL     1      -0.753  11.391  19.123  0.00  0.00    +0.000 A 
ATOM     10  C   UNL     1      -0.860  10.450  18.107  0.00  0.00    +0.000 A 
ATOM     11  C   UNL     1      -2.107  10.280  17.502  0.00  0.00    +0.000 A 
ATOM     12  C   UNL     1      -3.185  11.054  17.939  0.00  0.00    +0.000 A 
ATOM     13  C   UNL     1      -4.549  10.918  17.337  0.00  0.00    +0.000 C 
ATOM     14  N   UNL     1      -3.071  11.976  18.924  0.00  0.00    +0.000 NA
ENDBRANCH   1  10
BRANCH   4  15
ATOM     15  C   UNL     1       3.340   7.849  18.375  0.00  0.00    +0.000 C 
BRANCH  15  16
ATOM     16  C   UNL     1       3.340   6.333  18.261  0.00  0.00    +0.000 A 
ATOM     17  C   UNL     1       2.590   5.530  19.156  0.00  0.00    +0.000 A 
ATOM     18  C   UNL     1       1.771   6.063  20.304  0.00  0.00    +0.000 C 
ATOM     19  C   UNL     1       2.566   4.127  18.996  0.00  0.00    +0.000 A 
ATOM     20  C   UNL     1       3.259   3.491  17.967  0.00  0.00    +0.000 A 
ATOM     21  C   UNL     1       4.022   4.280  17.104  0.00  0.00    +0.000 A 
ATOM     22  C   UNL     1       4.065   5.684  17.226  0.00  0.00    +0.000 A 
ATOM     23  C   UNL     1       4.865   6.444  16.200  0.00  0.00    +0.000 C 
BRANCH  20  24
ATOM     24  C   UNL     1       3.227   1.988  17.852  0.00  0.00    +0.000 C 
BRANCH  24  25
ATOM     25  O   UNL     1       2.125   1.426  18.555  0.00  0.00    +0.000 OA
ATOM     26  H   UNL     1       2.129   1.828  19.441  0.00  0.00    +0.000 HD
ENDBRANCH  24  25
ENDBRANCH  20  24
ENDBRANCH  15  16
ENDBRANCH   4  15
TORSDOF 5
ENDMDL
MODEL 7
REMARK VINA RESULT:      -7.0      2.903      4.017
REMARK  Name = 
REMARK  9 active torsions:
REMARK  status: ('A' for Active; 'I' for Inactive)
REMARK    1  A    between atoms: C_1  and  C_2
REMARK    2  A    between atoms: C_4  and  N_5
REMARK    3  A    between atoms: N_8  and  C_9
REMARK    4  A    between atoms: C_9  and  C_10
REMARK    5  A    between atoms: C_11  and  C_12
REMARK    6  A    between atoms: C_14  and  C_15
REMARK    7  A    between atoms: C_15  and  O_16
REMARK    8  A    between atoms: C_18  and  C_19
REMARK    9  A    between atoms: C_21  and  C_22
REMARK                            x       y       z     vdW  Elec       q    Type
REMARK                         _______ _______ _______ _____ _____    ______ ____
ROOT
ATOM      1  N   UNL     1       0.532   9.638  17.622  0.00  0.00    +0.000 N 
ATOM      2  C   UNL     1       1.449   9.055  18.475  0.00  0.00    +0.000 C 
ATOM      3  O   UNL     1       1.438   9.133  19.700  0.00  0.00    +0.000 OA
ATOM      4  N   UNL     1       2.433   8.356  17.808  0.00  0.00    +0.000 N 
ATOM      5  H   UNL     1       0.699   9.537  16.636  0.00  0.00    +0.000 HD
ATOM      6  H   UNL     1       2.196   7.990  16.899  0.00  0.00    +0.000 HD
ENDROOT
BRANCH   1  10
ATOM      7  C   UNL     1      -4.351  10.605  17.782  0.00  0.00    +0.000 C 
ATOM      8  C   UNL     1      -2.929  10.950  18.108  0.00  0.00    +0.000 A 
ATOM      9  C   UNL     1      -1.890  10.131  17.679  0.00  0.00    +0.000 A 
ATOM     10  C   UNL     1      -0.577  10.443  18.007  0.00  0.00    +0.000 A 
ATOM     11  C   UNL     1      -0.347  11.597  18.759  0.00  0.00    +0.000 A 
ATOM     12  C   UNL     1      -1.435  12.383  19.147  0.00  0.00    +0.000 A 
ATOM     13  C   UNL     1      -1.257  13.634  19.949  0.00  0.00    +0.000 C 
ATOM     14  N   UNL     1      -2.714  12.068  18.831  0.00  0.00    +0.000 NA
ENDBRANCH   1  10
BRANCH   4  15
ATOM     15  C   UNL     1       3.448   7.619  18.549  0.00  0.00    +0.000 C 
BRANCH  15  16
ATOM     16  C   UNL     1       3.351   6.111  18.381  0.00  0.00    +0.000 A 
ATOM     17  C   UNL     1       2.556   5.326  19.253  0.00  0.00    +0.000 A 
ATOM     18  C   UNL     1       1.778   5.869  20.425  0.00  0.00    +0.000 C 
ATOM     19  C   UNL     1       2.441   3.934  19.043  0.00  0.00    +0.000 A 
ATOM     20  C   UNL     1       3.087   3.293  17.987  0.00  0.00    +0.000 A 
ATOM     21  C   UNL     1       3.894   4.061  17.147  0.00  0.00    +0.000 A 
ATOM     22  C   UNL     1       4.027   5.455  17.319  0.00  0.00    +0.000 A 
ATOM     23  C   UNL     1       4.870   6.198  16.314  0.00  0.00    +0.000 C 
BRANCH  20  24
ATOM     24  C   UNL     1       2.957   1.800  17.818  0.00  0.00    +0.000 C 
BRANCH  24  25
ATOM     25  O   UNL     1       4.087   1.108  18.333  0.00  0.00    +0.000 OA
ATOM     26  H   UNL     1       4.012   0.188  18.026  0.00  0.00    +0.000 HD
ENDBRANCH  24  25
ENDBRANCH  20  24
ENDBRANCH  15  16
ENDBRANCH   4  15
TORSDOF 5
ENDMDL
MODEL 8
REMARK VINA RESULT:      -7.0      2.972      4.033
REMARK  Name = 
REMARK  9 active torsions:
REMARK  status: ('A' for Active; 'I' for Inactive)
REMARK    1  A    between atoms: C_1  and  C_2
REMARK    2  A    between atoms: C_4  and  N_5
REMARK    3  A    between atoms: N_8  and  C_9
REMARK    4  A    between atoms: C_9  and  C_10
REMARK    5  A    between atoms: C_11  and  C_12
REMARK    6  A    between atoms: C_14  and  C_15
REMARK    7  A    between atoms: C_15  and  O_16
REMARK    8  A    between atoms: C_18  and  C_19
REMARK    9  A    between atoms: C_21  and  C_22
REMARK                            x       y       z     vdW  Elec       q    Type
REMARK                         _______ _______ _______ _____ _____    ______ ____
ROOT
ATOM      1  N   UNL     1       0.200   9.654  17.602  0.00  0.00    +0.000 N 
ATOM      2  C   UNL     1       1.186   9.152  18.429  0.00  0.00    +0.000 C 
ATOM      3  O   UNL     1       1.230   9.279  19.649  0.00  0.00    +0.000 OA
ATOM      4  N   UNL     1       2.170   8.475  17.741  0.00  0.00    +0.000 N 
ATOM      5  H   UNL     1       0.324   9.520  16.613  0.00  0.00    +0.000 HD
ATOM      6  H   UNL     1       1.909   8.061  16.861  0.00  0.00    +0.000 HD
ENDROOT
BRANCH   1  10
ATOM      7  C   UNL     1      -4.521  11.151  17.072  0.00  0.00    +0.000 C 
ATOM      8  C   UNL     1      -3.206  11.170  17.792  0.00  0.00    +0.000 A 
ATOM      9  C   UNL     1      -2.136  10.417  17.323  0.00  0.00    +0.000 A 
ATOM     10  C   UNL     1      -0.929  10.418  18.011  0.00  0.00    +0.000 A 
ATOM     11  C   UNL     1      -0.834  11.203  19.162  0.00  0.00    +0.000 A 
ATOM     12  C   UNL     1      -1.944  11.946  19.572  0.00  0.00    +0.000 A 
ATOM     13  C   UNL     1      -1.906  12.810  20.794  0.00  0.00    +0.000 C 
ATOM     14  N   UNL     1      -3.120  11.933  18.902  0.00  0.00    +0.000 NA
ENDBRANCH   1  10
BRANCH   4  15
ATOM     15  C   UNL     1       3.256   7.820  18.458  0.00  0.00    +0.000 C 
BRANCH  15  16
ATOM     16  C   UNL     1       3.287   6.311  18.271  0.00  0.00    +0.000 A 
ATOM     17  C   UNL     1       4.058   5.715  17.240  0.00  0.00    +0.000 A 
ATOM     18  C   UNL     1       4.871   6.481  16.227  0.00  0.00    +0.000 C 
ATOM     19  C   UNL     1       4.111   4.309  17.121  0.00  0.00    +0.000 A 
ATOM     20  C   UNL     1       3.428   3.469  17.999  0.00  0.00    +0.000 A 
ATOM     21  C   UNL     1       2.644   4.056  18.994  0.00  0.00    +0.000 A 
ATOM     22  C   UNL     1       2.572   5.456  19.151  0.00  0.00    +0.000 A 
ATOM     23  C   UNL     1       1.751   5.982  20.300  0.00  0.00    +0.000 C 
BRANCH  20  24
ATOM     24  C   UNL     1       3.492   1.974  17.816  0.00  0.00    +0.000 C 
BRANCH  24  25
ATOM     25  O   UNL     1       2.485   1.304  18.565  0.00  0.00    +0.000 OA
ATOM     26  H   UNL     1       2.586   0.355  18.378  0.00  0.00    +0.000 HD
ENDBRANCH  24  25
ENDBRANCH  20  24
ENDBRANCH  15  16
ENDBRANCH   4  15
TORSDOF 5
ENDMDL
MODEL 9
REMARK VINA RESULT:      -6.9      3.011      8.843
REMARK  Name = 
REMARK  9 active torsions:
REMARK  status: ('A' for Active; 'I' for Inactive)
REMARK    1  A    between atoms: C_1  and  C_2
REMARK    2  A    between atoms: C_4  and  N_5
REMARK    3  A    between atoms: N_8  and  C_9
REMARK    4  A    between atoms: C_9  and  C_10
REMARK    5  A    between atoms: C_11  and  C_12
REMARK    6  A    between atoms: C_14  and  C_15
REMARK    7  A    between atoms: C_15  and  O_16
REMARK    8  A    between atoms: C_18  and  C_19
REMARK    9  A    between atoms: C_21  and  C_22
REMARK                            x       y       z     vdW  Elec       q    Type
REMARK                         _______ _______ _______ _____ _____    ______ ____
ROOT
ATOM      1  N   UNL     1       2.332   7.064  19.074  0.00  0.00    +0.000 N 
ATOM      2  C   UNL     1       2.162   8.223  18.342  0.00  0.00    +0.000 C 
ATOM      3  O   UNL     1       2.606   8.431  17.217  0.00  0.00    +0.000 OA
ATOM      4  N   UNL     1       1.427   9.177  19.013  0.00  0.00    +0.000 N 
ATOM      5  H   UNL     1       1.958   7.056  20.007  0.00  0.00    +0.000 HD
ATOM      6  H   UNL     1       0.775   8.848  19.706  0.00  0.00    +0.000 HD
ENDROOT
BRANCH   1  10
ATOM      7  C   UNL     1       6.592   4.714  18.009  0.00  0.00    +0.000 C 
ATOM      8  C   UNL     1       5.099   4.739  18.139  0.00  0.00    +0.000 A 
ATOM      9  C   UNL     1       4.446   5.905  18.520  0.00  0.00    +0.000 A 
ATOM     10  C   UNL     1       3.064   5.914  18.665  0.00  0.00    +0.000 A 
ATOM     11  C   UNL     1       2.372   4.729  18.403  0.00  0.00    +0.000 A 
ATOM     12  C   UNL     1       3.089   3.596  18.010  0.00  0.00    +0.000 A 
ATOM     13  C   UNL     1       2.407   2.297  17.710  0.00  0.00    +0.000 C 
ATOM     14  N   UNL     1       4.436   3.592  17.880  0.00  0.00    +0.000 NA
ENDBRANCH   1  10
BRANCH   4  15
ATOM     15  C   UNL     1       1.090  10.440  18.367  0.00  0.00    +0.000 C 
BRANCH  15  16
ATOM     16  C   UNL     1      -0.164  11.094  18.926  0.00  0.00    +0.000 A 
ATOM     17  C   UNL     1      -0.095  12.003  20.012  0.00  0.00    +0.000 A 
ATOM     18  C   UNL     1       1.173  12.378  20.735  0.00  0.00    +0.000 C 
ATOM     19  C   UNL     1      -1.268  12.637  20.476  0.00  0.00    +0.000 A 
ATOM     20  C   UNL     1      -2.513  12.404  19.893  0.00  0.00    +0.000 A 
ATOM     21  C   UNL     1      -2.584  11.486  18.843  0.00  0.00    +0.000 A 
ATOM     22  C   UNL     1      -1.434  10.839  18.345  0.00  0.00    +0.000 A 
ATOM     23  C   UNL     1      -1.615   9.919  17.165  0.00  0.00    +0.000 C 
BRANCH  20  24
ATOM     24  C   UNL     1      -3.742  13.083  20.440  0.00  0.00    +0.000 C 
BRANCH  24  25
ATOM     25  O   UNL     1      -4.794  13.127  19.484  0.00  0.00    +0.000 OA
ATOM     26  H   UNL     1      -4.372  13.194  18.611  0.00  0.00    +0.000 HD
ENDBRANCH  24  25
ENDBRANCH  20  24
ENDBRANCH  15  16
ENDBRANCH   4  15
TORSDOF 5
ENDMDL
