MODEL 1
REMARK VINA RESULT:      -8.1      0.000      0.000
REMARK  Name = 
REMARK  5 active torsions:
REMARK  status: ('A' for Active; 'I' for Inactive)
REMARK    1  A    between atoms: C_1  and  C_2
REMARK    2  A    between atoms: C_2  and  N_3
REMARK    3  A    between atoms: N_3  and  C_4
REMARK    4  A    between atoms: C_4  and  C_5
REMARK    5  A    between atoms: N_13  and  C_14
REMARK                            x       y       z     vdW  Elec       q    Type
REMARK                         _______ _______ _______ _____ _____    ______ ____
ROOT
ATOM      1  N   UNL     1       6.513   4.837  17.439  0.00  0.00    +0.000 N 
ATOM      2  C   UNL     1       5.488   4.263  18.189  0.00  0.00    +0.000 C 
ATOM      3  O   UNL     1       5.711   3.890  19.342  0.00  0.00    +0.000 OA
ATOM      4  N   UNL     1       4.259   4.145  17.583  0.00  0.00    +0.000 N 
ATOM      5  H   UNL     1       4.219   4.156  16.572  0.00  0.00    +0.000 HD
ENDROOT
BRANCH   4   6
ATOM      6  C   UNL     1       3.097   3.617  18.220  0.00  0.00    +0.000 A 
ATOM      7  C   UNL     1       2.550   2.357  17.922  0.00  0.00    +0.000 A 
ATOM      8  C   UNL     1       1.359   1.902  18.503  0.00  0.00    +0.000 A 
ATOM      9  C   UNL     1       0.669   2.673  19.434  0.00  0.00    +0.000 A 
ATOM     10  C   UNL     1       1.248   3.898  19.763  0.00  0.00    +0.000 A 
ATOM     11  N   UNL     1       0.880   4.898  20.617  0.00  0.00    +0.000 N 
ATOM     12  N   UNL     1       1.757   5.913  20.609  0.00  0.00    +0.000 NA
ATOM     13  N   UNL     1       2.709   5.611  19.734  0.00  0.00    +0.000 NA
ATOM     14  C   UNL     1       2.425   4.378  19.198  0.00  0.00    +0.000 A 
ATOM     15  H   UNL     1       0.070   4.956  21.215  0.00  0.00    +0.000 HD
ENDBRANCH   4   6
BRANCH   1  17
ATOM     16  C   UNL     1       8.029   6.344  18.768  0.00  0.00    +0.000 C 
ATOM     17  C   UNL     1       7.805   4.976  18.125  0.00  0.00    +0.000 C 
ENDBRANCH   1  17
BRANCH   1  18
ATOM     18  C   UNL     1       6.354   5.537  16.153  0.00  0.00    +0.000 C 
BRANCH  18  19
ATOM     19  C   UNL     1       6.788   4.741  14.900  0.00  0.00    +0.000 C 
ATOM     20  C   UNL     1       5.614   4.195  14.079  0.00  0.00    +0.000 C 
ATOM     21  C   UNL     1       6.133   3.460  12.843  0.00  0.00    +0.000 C 
ATOM     22  C   UNL     1       7.068   4.354  12.038  0.00  0.00    +0.000 C 
ATOM     23  C   UNL     1       8.132   4.975  12.934  0.00  0.00    +0.000 C 
ATOM     24  O   UNL     1       7.552   5.631  14.064  0.00  0.00    +0.000 OA
ENDBRANCH  18  19
ENDBRANCH   1  18
TORSDOF 4
ENDMDL
MODEL 2
REMARK VINA RESULT:      -7.5      3.317      4.997
REMARK  Name = 
REMARK  5 active torsions:
REMARK  status: ('A' for Active; 'I' for Inactive)
REMARK    1  A    between atoms: C_1  and  C_2
REMARK    2  A    between atoms: C_2  and  N_3
REMARK    3  A    between atoms: N_3  and  C_4
REMARK    4  A    between atoms: C_4  and  C_5
REMARK    5  A    between atoms: N_13  and  C_14
REMARK                            x       y       z     vdW  Elec       q    Type
REMARK                         _______ _______ _______ _____ _____    ______ ____
ROOT
ATOM      1  N   UNL     1       3.278   4.103  19.700  0.00  0.00    +0.000 N 
ATOM      2  C   UNL     1       2.323   5.090  19.930  0.00  0.00    +0.000 C 
ATOM      3  O   UNL     1       1.156   4.768  20.160  0.00  0.00    +0.000 OA
ATOM      4  N   UNL     1       2.749   6.397  19.885  0.00  0.00    +0.000 N 
ATOM      5  H   UNL     1       3.602   6.607  19.383  0.00  0.00    +0.000 HD
ENDROOT
BRANCH   4   6
ATOM      6  C   UNL     1       1.911   7.524  20.134  0.00  0.00    +0.000 A 
ATOM      7  C   UNL     1       1.144   7.683  21.301  0.00  0.00    +0.000 A 
ATOM      8  C   UNL     1       0.265   8.759  21.478  0.00  0.00    +0.000 A 
ATOM      9  C   UNL     1       0.128   9.748  20.508  0.00  0.00    +0.000 A 
ATOM     10  C   UNL     1       0.932   9.609  19.377  0.00  0.00    +0.000 A 
ATOM     11  N   UNL     1       1.080  10.362  18.247  0.00  0.00    +0.000 N 
ATOM     12  N   UNL     1       1.984   9.835  17.408  0.00  0.00    +0.000 NA
ATOM     13  N   UNL     1       2.435   8.714  17.960  0.00  0.00    +0.000 NA
ATOM     14  C   UNL     1       1.808   8.549  19.172  0.00  0.00    +0.000 A 
ATOM     15  H   UNL     1       0.610  11.216  17.987  0.00  0.00    +0.000 HD
ENDBRANCH   4   6
BRANCH   1  17
ATOM     16  C   UNL     1       2.404   2.106  18.440  0.00  0.00    +0.000 C 
ATOM     17  C   UNL     1       2.798   2.716  19.784  0.00  0.00    +0.000 C 
ENDBRANCH   1  17
BRANCH   1  18
ATOM     18  C   UNL     1       4.736   4.308  19.645  0.00  0.00    +0.000 C 
BRANCH  18  19
ATOM     19  C   UNL     1       5.377   4.185  18.242  0.00  0.00    +0.000 C 
ATOM     20  C   UNL     1       4.651   4.993  17.160  0.00  0.00    +0.000 C 
ATOM     21  C   UNL     1       5.372   4.845  15.820  0.00  0.00    +0.000 C 
ATOM     22  C   UNL     1       6.844   5.210  15.959  0.00  0.00    +0.000 C 
ATOM     23  C   UNL     1       7.477   4.478  17.136  0.00  0.00    +0.000 C 
ATOM     24  O   UNL     1       6.730   4.668  18.339  0.00  0.00    +0.000 OA
ENDBRANCH  18  19
ENDBRANCH   1  18
TORSDOF 4
ENDMDL
MODEL 3
REMARK VINA RESULT:      -7.5      1.790      2.154
REMARK  Name = 
REMARK  5 active torsions:
REMARK  status: ('A' for Active; 'I' for Inactive)
REMARK    1  A    between atoms: C_1  and  C_2
REMARK    2  A    between atoms: C_2  and  N_3
REMARK    3  A    between atoms: N_3  and  C_4
REMARK    4  A    between atoms: C_4  and  C_5
REMARK    5  A    between atoms: N_13  and  C_14
REMARK                            x       y       z     vdW  Elec       q    Type
REMARK                         _______ _______ _______ _____ _____    ______ ____
ROOT
ATOM      1  N   UNL     1       6.007   5.507  17.026  0.00  0.00    +0.000 N 
ATOM      2  C   UNL     1       5.293   5.121  18.157  0.00  0.00    +0.000 C 
ATOM      3  O   UNL     1       5.773   5.308  19.276  0.00  0.00    +0.000 OA
ATOM      4  N   UNL     1       4.062   4.541  17.953  0.00  0.00    +0.000 N 
ATOM      5  H   UNL     1       3.872   4.123  17.051  0.00  0.00    +0.000 HD
ENDROOT
BRANCH   4   6
ATOM      6  C   UNL     1       3.188   4.123  19.000  0.00  0.00    +0.000 A 
ATOM      7  C   UNL     1       1.898   4.647  19.193  0.00  0.00    +0.000 A 
ATOM      8  C   UNL     1       1.095   4.279  20.281  0.00  0.00    +0.000 A 
ATOM      9  C   UNL     1       1.532   3.345  21.217  0.00  0.00    +0.000 A 
ATOM     10  C   UNL     1       2.791   2.791  20.987  0.00  0.00    +0.000 A 
ATOM     11  N   UNL     1       3.533   1.864  21.661  0.00  0.00    +0.000 N 
ATOM     12  N   UNL     1       4.711   1.634  21.063  0.00  0.00    +0.000 NA
ATOM     13  N   UNL     1       4.777   2.420  19.995  0.00  0.00    +0.000 NA
ATOM     14  C   UNL     1       3.611   3.142  19.920  0.00  0.00    +0.000 A 
ATOM     15  H   UNL     1       3.309   1.365  22.508  0.00  0.00    +0.000 HD
ENDBRANCH   4   6
BRANCH   1  17
ATOM     16  C   UNL     1       7.249   7.678  17.318  0.00  0.00    +0.000 C 
ATOM     17  C   UNL     1       7.304   6.151  17.278  0.00  0.00    +0.000 C 
ENDBRANCH   1  17
BRANCH   1  18
ATOM     18  C   UNL     1       5.482   5.568  15.651  0.00  0.00    +0.000 C 
BRANCH  18  19
ATOM     19  C   UNL     1       6.259   4.740  14.600  0.00  0.00    +0.000 C 
ATOM     20  C   UNL     1       5.355   4.009  13.601  0.00  0.00    +0.000 C 
ATOM     21  C   UNL     1       6.204   3.251  12.580  0.00  0.00    +0.000 C 
ATOM     22  C   UNL     1       7.207   4.187  11.915  0.00  0.00    +0.000 C 
ATOM     23  C   UNL     1       7.980   4.985  12.957  0.00  0.00    +0.000 C 
ATOM     24  O   UNL     1       7.103   5.650  13.870  0.00  0.00    +0.000 OA
ENDBRANCH  18  19
ENDBRANCH   1  18
TORSDOF 4
ENDMDL
MODEL 4
REMARK VINA RESULT:      -7.4      3.157      5.159
REMARK  Name = 
REMARK  5 active torsions:
REMARK  status: ('A' for Active; 'I' for Inactive)
REMARK    1  A    between atoms: C_1  and  C_2
REMARK    2  A    between atoms: C_2  and  N_3
REMARK    3  A    between atoms: N_3  and  C_4
REMARK    4  A    between atoms: C_4  and  C_5
REMARK    5  A    between atoms: N_13  and  C_14
REMARK                            x       y       z     vdW  Elec       q    Type
REMARK                         _______ _______ _______ _____ _____    ______ ____
ROOT
ATOM      1  N   UNL     1       3.675   4.205  18.669  0.00  0.00    +0.000 N 
ATOM      2  C   UNL     1       2.698   5.182  18.850  0.00  0.00    +0.000 C 
ATOM      3  O   UNL     1       1.600   5.055  18.306  0.00  0.00    +0.000 OA
ATOM      4  N   UNL     1       3.025   6.255  19.646  0.00  0.00    +0.000 N 
ATOM      5  H   UNL     1       4.004   6.467  19.786  0.00  0.00    +0.000 HD
ENDROOT
BRANCH   4   6
ATOM      6  C   UNL     1       2.132   7.321  19.964  0.00  0.00    +0.000 A 
ATOM      7  C   UNL     1       1.358   7.365  21.136  0.00  0.00    +0.000 A 
ATOM      8  C   UNL     1       0.426   8.383  21.380  0.00  0.00    +0.000 A 
ATOM      9  C   UNL     1       0.242   9.425  20.475  0.00  0.00    +0.000 A 
ATOM     10  C   UNL     1       1.053   9.401  19.341  0.00  0.00    +0.000 A 
ATOM     11  N   UNL     1       1.165  10.232  18.263  0.00  0.00    +0.000 N 
ATOM     12  N   UNL     1       2.095   9.806  17.396  0.00  0.00    +0.000 NA
ATOM     13  N   UNL     1       2.600   8.675  17.875  0.00  0.00    +0.000 NA
ATOM     14  C   UNL     1       1.981   8.401  19.071  0.00  0.00    +0.000 A 
ATOM     15  H   UNL     1       0.655  11.077  18.058  0.00  0.00    +0.000 HD
ENDBRANCH   4   6
BRANCH   1  17
ATOM     16  C   UNL     1       2.911   1.806  18.634  0.00  0.00    +0.000 C 
ATOM     17  C   UNL     1       3.284   3.057  17.839  0.00  0.00    +0.000 C 
ENDBRANCH   1  17
BRANCH   1  18
ATOM     18  C   UNL     1       4.933   4.091  19.427  0.00  0.00    +0.000 C 
BRANCH  18  19
ATOM     19  C   UNL     1       6.169   4.752  18.773  0.00  0.00    +0.000 C 
ATOM     20  C   UNL     1       5.821   5.726  17.641  0.00  0.00    +0.000 C 
ATOM     21  C   UNL     1       7.095   6.360  17.083  0.00  0.00    +0.000 C 
ATOM     22  C   UNL     1       7.911   7.000  18.199  0.00  0.00    +0.000 C 
ATOM     23  C   UNL     1       8.108   6.027  19.355  0.00  0.00    +0.000 C 
ATOM     24  O   UNL     1       6.865   5.481  19.802  0.00  0.00    +0.000 OA
ENDBRANCH  18  19
ENDBRANCH   1  18
TORSDOF 4
ENDMDL
MODEL 5
REMARK VINA RESULT:      -7.4      1.364      1.995
REMARK  Name = 
REMARK  5 active torsions:
REMARK  status: ('A' for Active; 'I' for Inactive)
REMARK    1  A    between atoms: C_1  and  C_2
REMARK    2  A    between atoms: C_2  and  N_3
REMARK    3  A    between atoms: N_3  and  C_4
REMARK    4  A    between atoms: C_4  and  C_5
REMARK    5  A    between atoms: N_13  and  C_14
REMARK                            x       y       z     vdW  Elec       q    Type
REMARK                         _______ _______ _______ _____ _____    ______ ____
ROOT
ATOM      1  N   UNL     1       6.524   4.910  17.486  0.00  0.00    +0.000 N 
ATOM      2  C   UNL     1       5.494   4.673  18.394  0.00  0.00    +0.000 C 
ATOM      3  O   UNL     1       5.760   4.270  19.527  0.00  0.00    +0.000 OA
ATOM      4  N   UNL     1       4.210   4.910  17.960  0.00  0.00    +0.000 N 
ATOM      5  H   UNL     1       4.033   4.915  16.964  0.00  0.00    +0.000 HD
ENDROOT
BRANCH   4   6
ATOM      6  C   UNL     1       3.047   4.754  18.771  0.00  0.00    +0.000 A 
ATOM      7  C   UNL     1       2.691   5.642  19.802  0.00  0.00    +0.000 A 
ATOM      8  C   UNL     1       1.590   5.416  20.637  0.00  0.00    +0.000 A 
ATOM      9  C   UNL     1       0.770   4.304  20.466  0.00  0.00    +0.000 A 
ATOM     10  C   UNL     1       1.099   3.458  19.408  0.00  0.00    +0.000 A 
ATOM     11  N   UNL     1       0.542   2.304  18.934  0.00  0.00    +0.000 N 
ATOM     12  N   UNL     1       1.209   1.823  17.875  0.00  0.00    +0.000 NA
ATOM     13  N   UNL     1       2.231   2.638  17.643  0.00  0.00    +0.000 NA
ATOM     14  C   UNL     1       2.190   3.654  18.567  0.00  0.00    +0.000 A 
ATOM     15  H   UNL     1      -0.265   1.803  19.274  0.00  0.00    +0.000 HD
ENDBRANCH   4   6
BRANCH   1  17
ATOM     16  C   UNL     1       8.318   5.638  19.095  0.00  0.00    +0.000 C 
ATOM     17  C   UNL     1       7.885   4.677  17.989  0.00  0.00    +0.000 C 
ENDBRANCH   1  17
BRANCH   1  18
ATOM     18  C   UNL     1       6.394   5.606  16.194  0.00  0.00    +0.000 C 
BRANCH  18  19
ATOM     19  C   UNL     1       6.797   4.782  14.948  0.00  0.00    +0.000 C 
ATOM     20  C   UNL     1       5.602   4.217  14.170  0.00  0.00    +0.000 C 
ATOM     21  C   UNL     1       6.090   3.455  12.938  0.00  0.00    +0.000 C 
ATOM     22  C   UNL     1       7.002   4.333  12.089  0.00  0.00    +0.000 C 
ATOM     23  C   UNL     1       8.088   4.974  12.943  0.00  0.00    +0.000 C 
ATOM     24  O   UNL     1       7.537   5.655  14.073  0.00  0.00    +0.000 OA
ENDBRANCH  18  19
ENDBRANCH   1  18
TORSDOF 4
ENDMDL
MODEL 6
REMARK VINA RESULT:      -7.3      4.853      7.314
REMARK  Name = 
REMARK  5 active torsions:
REMARK  status: ('A' for Active; 'I' for Inactive)
REMARK    1  A    between atoms: C_1  and  C_2
REMARK    2  A    between atoms: C_2  and  N_3
REMARK    3  A    between atoms: N_3  and  C_4
REMARK    4  A    between atoms: C_4  and  C_5
REMARK    5  A    between atoms: N_13  and  C_14
REMARK                            x       y       z     vdW  Elec       q    Type
REMARK                         _______ _______ _______ _____ _____    ______ ____
ROOT
ATOM      1  N   UNL     1       1.589   8.444  20.159  0.00  0.00    +0.000 N 
ATOM      2  C   UNL     1       1.936   7.106  19.984  0.00  0.00    +0.000 C 
ATOM      3  O   UNL     1       1.843   6.323  20.930  0.00  0.00    +0.000 OA
ATOM      4  N   UNL     1       2.372   6.731  18.735  0.00  0.00    +0.000 N 
ATOM      5  H   UNL     1       2.734   7.446  18.117  0.00  0.00    +0.000 HD
ENDROOT
BRANCH   4   6
ATOM      6  C   UNL     1       2.731   5.397  18.376  0.00  0.00    +0.000 A 
ATOM      7  C   UNL     1       1.850   4.492  17.759  0.00  0.00    +0.000 A 
ATOM      8  C   UNL     1       2.205   3.162  17.498  0.00  0.00    +0.000 A 
ATOM      9  C   UNL     1       3.471   2.677  17.814  0.00  0.00    +0.000 A 
ATOM     10  C   UNL     1       4.355   3.597  18.377  0.00  0.00    +0.000 A 
ATOM     11  N   UNL     1       5.649   3.499  18.801  0.00  0.00    +0.000 N 
ATOM     12  N   UNL     1       6.108   4.662  19.286  0.00  0.00    +0.000 NA
ATOM     13  N   UNL     1       5.119   5.544  19.209  0.00  0.00    +0.000 NA
ATOM     14  C   UNL     1       4.028   4.920  18.653  0.00  0.00    +0.000 A 
ATOM     15  H   UNL     1       6.261   2.696  18.794  0.00  0.00    +0.000 HD
ENDBRANCH   4   6
BRANCH   1  17
ATOM     16  C   UNL     1      -0.381   8.498  21.726  0.00  0.00    +0.000 C 
ATOM     17  C   UNL     1       1.098   8.807  21.496  0.00  0.00    +0.000 C 
ENDBRANCH   1  17
BRANCH   1  18
ATOM     18  C   UNL     1       1.421   9.440  19.087  0.00  0.00    +0.000 C 
BRANCH  18  19
ATOM     19  C   UNL     1      -0.002  10.032  18.941  0.00  0.00    +0.000 C 
ATOM     20  C   UNL     1      -0.059  11.552  19.136  0.00  0.00    +0.000 C 
ATOM     21  C   UNL     1      -1.489  12.054  18.936  0.00  0.00    +0.000 C 
ATOM     22  C   UNL     1      -2.036  11.598  17.589  0.00  0.00    +0.000 C 
ATOM     23  C   UNL     1      -1.827  10.101  17.397  0.00  0.00    +0.000 C 
ATOM     24  O   UNL     1      -0.464   9.726  17.612  0.00  0.00    +0.000 OA
ENDBRANCH  18  19
ENDBRANCH   1  18
TORSDOF 4
ENDMDL
MODEL 7
REMARK VINA RESULT:      -7.3      1.801      2.098
REMARK  Name = 
REMARK  5 active torsions:
REMARK  status: ('A' for Active; 'I' for Inactive)
REMARK    1  A    between atoms: C_1  and  C_2
REMARK    2  A    between atoms: C_2  and  N_3
REMARK    3  A    between atoms: N_3  and  C_4
REMARK    4  A    between atoms: C_4  and  C_5
REMARK    5  A    between atoms: N_13  and  C_14
REMARK                            x       y       z     vdW  Elec       q    Type
REMARK                         _______ _______ _______ _____ _____    ______ ____
ROOT
ATOM      1  N   UNL     1       6.097   5.495  16.986  0.00  0.00    +0.000 N 
ATOM      2  C   UNL     1       4.889   5.274  17.642  0.00  0.00    +0.000 C 
ATOM      3  O   UNL     1       4.288   6.221  18.151  0.00  0.00    +0.000 OA
ATOM      4  N   UNL     1       4.426   3.979  17.683  0.00  0.00    +0.000 N 
ATOM      5  H   UNL     1       5.091   3.228  17.551  0.00  0.00    +0.000 HD
ENDROOT
BRANCH   4   6
ATOM      6  C   UNL     1       3.192   3.585  18.280  0.00  0.00    +0.000 A 
ATOM      7  C   UNL     1       1.941   3.747  17.662  0.00  0.00    +0.000 A 
ATOM      8  C   UNL     1       0.739   3.429  18.309  0.00  0.00    +0.000 A 
ATOM      9  C   UNL     1       0.730   2.906  19.599  0.00  0.00    +0.000 A 
ATOM     10  C   UNL     1       1.979   2.699  20.184  0.00  0.00    +0.000 A 
ATOM     11  N   UNL     1       2.365   2.209  21.399  0.00  0.00    +0.000 N 
ATOM     12  N   UNL     1       3.700   2.193  21.533  0.00  0.00    +0.000 NA
ATOM     13  N   UNL     1       4.219   2.692  20.417  0.00  0.00    +0.000 NA
ATOM     14  C   UNL     1       3.187   3.011  19.568  0.00  0.00    +0.000 A 
ATOM     15  H   UNL     1       1.792   1.880  22.161  0.00  0.00    +0.000 HD
ENDBRANCH   4   6
BRANCH   1  17
ATOM     16  C   UNL     1       7.713   7.212  17.870  0.00  0.00    +0.000 C 
ATOM     17  C   UNL     1       6.549   6.893  16.933  0.00  0.00    +0.000 C 
ENDBRANCH   1  17
BRANCH   1  18
ATOM     18  C   UNL     1       6.809   4.526  16.135  0.00  0.00    +0.000 C 
BRANCH  18  19
ATOM     19  C   UNL     1       6.607   4.699  14.611  0.00  0.00    +0.000 C 
ATOM     20  C   UNL     1       7.867   5.164  13.871  0.00  0.00    +0.000 C 
ATOM     21  C   UNL     1       7.587   5.270  12.372  0.00  0.00    +0.000 C 
ATOM     22  C   UNL     1       7.023   3.959  11.837  0.00  0.00    +0.000 C 
ATOM     23  C   UNL     1       5.860   3.479  12.694  0.00  0.00    +0.000 C 
ATOM     24  O   UNL     1       6.213   3.420  14.078  0.00  0.00    +0.000 OA
ENDBRANCH  18  19
ENDBRANCH   1  18
TORSDOF 4
ENDMDL
MODEL 8
REMARK VINA RESULT:      -7.3      2.778      6.780
REMARK  Name = 
REMARK  5 active torsions:
REMARK  status: ('A' for Active; 'I' for Inactive)
REMARK    1  A    between atoms: C_1  and  C_2
REMARK    2  A    between atoms: C_2  and  N_3
REMARK    3  A    between atoms: N_3  and  C_4
REMARK    4  A    between atoms: C_4  and  C_5
REMARK    5  A    between atoms: N_13  and  C_14
REMARK                            x       y       z     vdW  Elec       q    Type
REMARK                         _______ _______ _______ _____ _____    ______ ____
ROOT
ATOM      1  N   UNL     1       2.165   4.403  20.225  0.00  0.00    +0.000 N 
ATOM      2  C   UNL     1       2.924   4.076  19.104  0.00  0.00    +0.000 C 
ATOM      3  O   UNL     1       2.668   3.050  18.471  0.00  0.00    +0.000 OA
ATOM      4  N   UNL     1       3.939   4.940  18.761  0.00  0.00    +0.000 N 
ATOM      5  H   UNL     1       4.304   5.558  19.474  0.00  0.00    +0.000 HD
ENDROOT
BRANCH   4   6
ATOM      6  C   UNL     1       4.785   4.774  17.624  0.00  0.00    +0.000 A 
ATOM      7  C   UNL     1       4.310   4.704  16.303  0.00  0.00    +0.000 A 
ATOM      8  C   UNL     1       5.157   4.455  15.216  0.00  0.00    +0.000 A 
ATOM      9  C   UNL     1       6.529   4.292  15.391  0.00  0.00    +0.000 A 
ATOM     10  C   UNL     1       6.997   4.416  16.699  0.00  0.00    +0.000 A 
ATOM     11  N   UNL     1       8.244   4.330  17.249  0.00  0.00    +0.000 N 
ATOM     12  N   UNL     1       8.220   4.519  18.577  0.00  0.00    +0.000 NA
ATOM     13  N   UNL     1       6.955   4.712  18.930  0.00  0.00    +0.000 NA
ATOM     14  C   UNL     1       6.179   4.656  17.797  0.00  0.00    +0.000 A 
ATOM     15  H   UNL     1       9.127   4.149  16.796  0.00  0.00    +0.000 HD
ENDBRANCH   4   6
BRANCH   1  17
ATOM     16  C   UNL     1       1.355   2.557  21.733  0.00  0.00    +0.000 C 
ATOM     17  C   UNL     1       1.070   3.477  20.547  0.00  0.00    +0.000 C 
ENDBRANCH   1  17
BRANCH   1  18
ATOM     18  C   UNL     1       2.188   5.691  20.938  0.00  0.00    +0.000 C 
BRANCH  18  19
ATOM     19  C   UNL     1       1.523   6.877  20.200  0.00  0.00    +0.000 C 
ATOM     20  C   UNL     1       1.138   8.039  21.123  0.00  0.00    +0.000 C 
ATOM     21  C   UNL     1       0.525   9.178  20.307  0.00  0.00    +0.000 C 
ATOM     22  C   UNL     1       1.459   9.591  19.176  0.00  0.00    +0.000 C 
ATOM     23  C   UNL     1       1.915   8.376  18.378  0.00  0.00    +0.000 C 
ATOM     24  O   UNL     1       2.464   7.364  19.225  0.00  0.00    +0.000 OA
ENDBRANCH  18  19
ENDBRANCH   1  18
TORSDOF 4
ENDMDL
MODEL 9
REMARK VINA RESULT:      -7.2      5.110      7.349
REMARK  Name = 
REMARK  5 active torsions:
REMARK  status: ('A' for Active; 'I' for Inactive)
REMARK    1  A    between atoms: C_1  and  C_2
REMARK    2  A    between atoms: C_2  and  N_3
REMARK    3  A    between atoms: N_3  and  C_4
REMARK    4  A    between atoms: C_4  and  C_5
REMARK    5  A    between atoms: N_13  and  C_14
REMARK                            x       y       z     vdW  Elec       q    Type
REMARK                         _______ _______ _______ _____ _____    ______ ____
ROOT
ATOM      1  N   UNL     1       1.629   8.474  19.880  0.00  0.00    +0.000 N 
ATOM      2  C   UNL     1       1.971   7.126  19.800  0.00  0.00    +0.000 C 
ATOM      3  O   UNL     1       1.875   6.412  20.800  0.00  0.00    +0.000 OA
ATOM      4  N   UNL     1       2.403   6.660  18.581  0.00  0.00    +0.000 N 
ATOM      5  H   UNL     1       2.767   7.328  17.913  0.00  0.00    +0.000 HD
ENDROOT
BRANCH   4   6
ATOM      6  C   UNL     1       2.755   5.303  18.318  0.00  0.00    +0.000 A 
ATOM      7  C   UNL     1       1.873   4.363  17.758  0.00  0.00    +0.000 A 
ATOM      8  C   UNL     1       2.221   3.016  17.592  0.00  0.00    +0.000 A 
ATOM      9  C   UNL     1       3.481   2.546  17.950  0.00  0.00    +0.000 A 
ATOM     10  C   UNL     1       4.368   3.497  18.454  0.00  0.00    +0.000 A 
ATOM     11  N   UNL     1       5.658   3.421  18.894  0.00  0.00    +0.000 N 
ATOM     12  N   UNL     1       6.121   4.612  19.301  0.00  0.00    +0.000 NA
ATOM     13  N   UNL     1       5.138   5.493  19.156  0.00  0.00    +0.000 NA
ATOM     14  C   UNL     1       4.048   4.838  18.636  0.00  0.00    +0.000 A 
ATOM     15  H   UNL     1       6.264   2.616  18.947  0.00  0.00    +0.000 HD
ENDBRANCH   4   6
BRANCH   1  17
ATOM     16  C   UNL     1      -0.324   8.602  21.463  0.00  0.00    +0.000 C 
ATOM     17  C   UNL     1       1.142   8.934  21.188  0.00  0.00    +0.000 C 
ENDBRANCH   1  17
BRANCH   1  18
ATOM     18  C   UNL     1       1.464   9.392  18.740  0.00  0.00    +0.000 C 
BRANCH  18  19
ATOM     19  C   UNL     1       0.914  10.797  19.087  0.00  0.00    +0.000 C 
ATOM     20  C   UNL     1       1.783  11.945  18.560  0.00  0.00    +0.000 C 
ATOM     21  C   UNL     1       1.147  13.290  18.913  0.00  0.00    +0.000 C 
ATOM     22  C   UNL     1      -0.294  13.349  18.420  0.00  0.00    +0.000 C 
ATOM     23  C   UNL     1      -1.070  12.114  18.862  0.00  0.00    +0.000 C 
ATOM     24  O   UNL     1      -0.394  10.908  18.496  0.00  0.00    +0.000 OA
ENDBRANCH  18  19
ENDBRANCH   1  18
TORSDOF 4
ENDMDL
