MODEL 1
REMARK VINA RESULT:      -6.4      0.000      0.000
REMARK  Name = 
REMARK  2 active torsions:
REMARK  status: ('A' for Active; 'I' for Inactive)
REMARK    1  A    between atoms: C_2  and  C_3
REMARK    2  A    between atoms: N_17  and  C_18
REMARK                            x       y       z     vdW  Elec       q    Type
REMARK                         _______ _______ _______ _____ _____    ______ ____
ROOT
ATOM      1  C   UNL     1      10.703  17.691  19.190  0.00  0.00    +0.000 C 
ATOM      2  O   UNL     1       9.703  18.319  18.855  0.00  0.00    +0.000 OA
ATOM      3  N   UNL     1      10.690  16.617  20.084  0.00  0.00    +0.000 N 
ATOM      4  C   UNL     1       9.401  16.409  20.790  0.00  0.00    +0.000 C 
ATOM      5  C   UNL     1       9.403  15.930  22.283  0.00  0.00    +0.000 C 
ATOM      6  O   UNL     1       8.251  15.077  22.504  0.00  0.00    +0.000 OA
ATOM      7  C   UNL     1       8.279  14.258  23.609  0.00  0.00    +0.000 A 
ATOM      8  C   UNL     1       7.914  14.900  24.814  0.00  0.00    +0.000 A 
ATOM      9  C   UNL     1       7.717  14.185  26.000  0.00  0.00    +0.000 A 
ATOM     10  C   UNL     1       7.874  12.812  25.987  0.00  0.00    +0.000 A 
ATOM     11  F   UNL     1       7.675  12.101  27.103  0.00  0.00    +0.000 F 
ATOM     12  C   UNL     1       8.208  12.163  24.808  0.00  0.00    +0.000 A 
ATOM     13  C   UNL     1       8.404  12.844  23.565  0.00  0.00    +0.000 A 
ATOM     14  C   UNL     1       8.790  11.833  22.476  0.00  0.00    +0.000 C 
ATOM     15  N   UNL     1       8.754  12.022  21.024  0.00  0.00    +0.000 N 
ATOM     16  C   UNL     1       8.269  13.296  20.556  0.00  0.00    +0.000 C 
ATOM     17  C   UNL     1       9.895  11.704  20.301  0.00  0.00    +0.000 A 
ATOM     18  C   UNL     1       9.745  10.812  19.096  0.00  0.00    +0.000 A 
ATOM     19  C   UNL     1      10.303  11.308  17.974  0.00  0.00    +0.000 A 
ATOM     20  N   UNL     1      10.993  12.519  18.040  0.00  0.00    +0.000 N 
ATOM     21  N   UNL     1      11.396  13.311  17.015  0.00  0.00    +0.000 NA
ATOM     22  C   UNL     1      11.646  14.497  17.599  0.00  0.00    +0.000 A 
ATOM     23  C   UNL     1      11.518  14.464  19.013  0.00  0.00    +0.000 A 
ATOM     24  C   UNL     1      11.237  13.133  19.266  0.00  0.00    +0.000 A 
ATOM     25  N   UNL     1      10.917  12.522  20.445  0.00  0.00    +0.000 NA
ATOM     26  C   UNL     1      11.731  15.549  20.036  0.00  0.00    +0.000 C 
ENDROOT
BRANCH   1  28
ATOM     27  C   UNL     1      12.194  18.560  17.458  0.00  0.00    +0.000 C 
ATOM     28  C   UNL     1      12.034  18.133  18.712  0.00  0.00    +0.000 C 
ENDBRANCH   1  28
TORSDOF 1
ENDMDL
MODEL 2
REMARK VINA RESULT:      -6.4     10.362     12.395
REMARK  Name = 
REMARK  2 active torsions:
REMARK  status: ('A' for Active; 'I' for Inactive)
REMARK    1  A    between atoms: C_2  and  C_3
REMARK    2  A    between atoms: N_17  and  C_18
REMARK                            x       y       z     vdW  Elec       q    Type
REMARK                         _______ _______ _______ _____ _____    ______ ____
ROOT
ATOM      1  C   UNL     1      -0.034   9.754  22.418  0.00  0.00    +0.000 C 
ATOM      2  O   UNL     1       0.486   9.743  23.530  0.00  0.00    +0.000 OA
ATOM      3  N   UNL     1      -0.848  10.786  21.946  0.00  0.00    +0.000 N 
ATOM      4  C   UNL     1      -1.236  11.792  22.966  0.00  0.00    +0.000 C 
ATOM      5  C   UNL     1      -2.665  12.433  22.920  0.00  0.00    +0.000 C 
ATOM      6  O   UNL     1      -2.580  13.806  23.383  0.00  0.00    +0.000 OA
ATOM      7  C   UNL     1      -3.621  14.644  23.057  0.00  0.00    +0.000 A 
ATOM      8  C   UNL     1      -4.743  14.528  23.909  0.00  0.00    +0.000 A 
ATOM      9  C   UNL     1      -5.819  15.420  23.837  0.00  0.00    +0.000 A 
ATOM     10  C   UNL     1      -5.774  16.448  22.915  0.00  0.00    +0.000 A 
ATOM     11  F   UNL     1      -6.780  17.326  22.836  0.00  0.00    +0.000 F 
ATOM     12  C   UNL     1      -4.670  16.591  22.088  0.00  0.00    +0.000 A 
ATOM     13  C   UNL     1      -3.538  15.717  22.132  0.00  0.00    +0.000 A 
ATOM     14  C   UNL     1      -2.515  16.141  21.068  0.00  0.00    +0.000 C 
ATOM     15  N   UNL     1      -1.103  15.761  20.980  0.00  0.00    +0.000 N 
ATOM     16  C   UNL     1      -0.601  14.915  22.033  0.00  0.00    +0.000 C 
ATOM     17  C   UNL     1      -0.640  15.263  19.770  0.00  0.00    +0.000 A 
ATOM     18  C   UNL     1       0.610  15.869  19.186  0.00  0.00    +0.000 A 
ATOM     19  C   UNL     1       1.552  14.965  18.852  0.00  0.00    +0.000 A 
ATOM     20  N   UNL     1       1.274  13.607  19.012  0.00  0.00    +0.000 N 
ATOM     21  N   UNL     1       2.142  12.565  18.988  0.00  0.00    +0.000 NA
ATOM     22  C   UNL     1       1.459  11.559  19.566  0.00  0.00    +0.000 A 
ATOM     23  C   UNL     1       0.114  11.897  19.869  0.00  0.00    +0.000 A 
ATOM     24  C   UNL     1      -0.004  13.179  19.362  0.00  0.00    +0.000 A 
ATOM     25  N   UNL     1      -1.050  14.053  19.448  0.00  0.00    +0.000 NA
ATOM     26  C   UNL     1      -0.983  11.069  20.487  0.00  0.00    +0.000 C 
ENDROOT
BRANCH   1  28
ATOM     27  C   UNL     1       1.320   8.168  21.139  0.00  0.00    +0.000 C 
ATOM     28  C   UNL     1       0.111   8.573  21.534  0.00  0.00    +0.000 C 
ENDBRANCH   1  28
TORSDOF 1
ENDMDL
MODEL 3
REMARK VINA RESULT:      -6.3      9.576     11.440
REMARK  Name = 
REMARK  2 active torsions:
REMARK  status: ('A' for Active; 'I' for Inactive)
REMARK    1  A    between atoms: C_2  and  C_3
REMARK    2  A    between atoms: N_17  and  C_18
REMARK                            x       y       z     vdW  Elec       q    Type
REMARK                         _______ _______ _______ _____ _____    ______ ____
ROOT
ATOM      1  C   UNL     1       0.950   9.802  19.523  0.00  0.00    +0.000 C 
ATOM      2  O   UNL     1       1.496   9.182  20.432  0.00  0.00    +0.000 OA
ATOM      3  N   UNL     1       0.106  10.896  19.719  0.00  0.00    +0.000 N 
ATOM      4  C   UNL     1      -0.278  11.143  21.131  0.00  0.00    +0.000 C 
ATOM      5  C   UNL     1      -1.720  11.658  21.465  0.00  0.00    +0.000 C 
ATOM      6  O   UNL     1      -1.652  12.535  22.619  0.00  0.00    +0.000 OA
ATOM      7  C   UNL     1      -2.716  13.381  22.829  0.00  0.00    +0.000 A 
ATOM      8  C   UNL     1      -3.816  12.775  23.477  0.00  0.00    +0.000 A 
ATOM      9  C   UNL     1      -4.910  13.521  23.928  0.00  0.00    +0.000 A 
ATOM     10  C   UNL     1      -4.906  14.890  23.743  0.00  0.00    +0.000 A 
ATOM     11  F   UNL     1      -5.931  15.631  24.179  0.00  0.00    +0.000 F 
ATOM     12  C   UNL     1      -3.824  15.505  23.130  0.00  0.00    +0.000 A 
ATOM     13  C   UNL     1      -2.675  14.791  22.667  0.00  0.00    +0.000 A 
ATOM     14  C   UNL     1      -1.685  15.768  22.017  0.00  0.00    +0.000 C 
ATOM     15  N   UNL     1      -0.268  15.545  21.719  0.00  0.00    +0.000 N 
ATOM     16  C   UNL     1       0.274  14.268  22.110  0.00  0.00    +0.000 C 
ATOM     17  C   UNL     1       0.177  15.826  20.435  0.00  0.00    +0.000 A 
ATOM     18  C   UNL     1       1.401  16.691  20.282  0.00  0.00    +0.000 A 
ATOM     19  C   UNL     1       2.352  16.158  19.491  0.00  0.00    +0.000 A 
ATOM     20  N   UNL     1       2.105  14.938  18.862  0.00  0.00    +0.000 N 
ATOM     21  N   UNL     1       2.992  14.115  18.249  0.00  0.00    +0.000 NA
ATOM     22  C   UNL     1       2.342  12.939  18.167  0.00  0.00    +0.000 A 
ATOM     23  C   UNL     1       0.998  13.009  18.619  0.00  0.00    +0.000 A 
ATOM     24  C   UNL     1       0.843  14.351  18.921  0.00  0.00    +0.000 A 
ATOM     25  N   UNL     1      -0.217  14.995  19.492  0.00  0.00    +0.000 NA
ATOM     26  C   UNL     1      -0.068  11.946  18.672  0.00  0.00    +0.000 C 
ENDROOT
BRANCH   1  28
ATOM     27  C   UNL     1       2.184   8.645  17.756  0.00  0.00    +0.000 C 
ATOM     28  C   UNL     1       1.098   9.326  18.127  0.00  0.00    +0.000 C 
ENDBRANCH   1  28
TORSDOF 1
ENDMDL
MODEL 4
REMARK VINA RESULT:      -6.3      4.499      7.178
REMARK  Name = 
REMARK  2 active torsions:
REMARK  status: ('A' for Active; 'I' for Inactive)
REMARK    1  A    between atoms: C_2  and  C_3
REMARK    2  A    between atoms: N_17  and  C_18
REMARK                            x       y       z     vdW  Elec       q    Type
REMARK                         _______ _______ _______ _____ _____    ______ ____
ROOT
ATOM      1  C   UNL     1       3.346  16.119  18.412  0.00  0.00    +0.000 C 
ATOM      2  O   UNL     1       3.639  17.194  17.897  0.00  0.00    +0.000 OA
ATOM      3  N   UNL     1       4.282  15.212  18.914  0.00  0.00    +0.000 N 
ATOM      4  C   UNL     1       5.695  15.529  18.588  0.00  0.00    +0.000 C 
ATOM      5  C   UNL     1       6.702  14.366  18.289  0.00  0.00    +0.000 C 
ATOM      6  O   UNL     1       8.017  14.745  18.773  0.00  0.00    +0.000 OA
ATOM      7  C   UNL     1       8.932  13.736  18.959  0.00  0.00    +0.000 A 
ATOM      8  C   UNL     1       9.592  13.329  17.777  0.00  0.00    +0.000 A 
ATOM      9  C   UNL     1      10.675  12.444  17.803  0.00  0.00    +0.000 A 
ATOM     10  C   UNL     1      11.116  11.965  19.021  0.00  0.00    +0.000 A 
ATOM     11  F   UNL     1      12.160  11.130  19.078  0.00  0.00    +0.000 F 
ATOM     12  C   UNL     1      10.496  12.371  20.194  0.00  0.00    +0.000 A 
ATOM     13  C   UNL     1       9.397  13.287  20.223  0.00  0.00    +0.000 A 
ATOM     14  C   UNL     1       8.937  13.496  21.673  0.00  0.00    +0.000 C 
ATOM     15  N   UNL     1       8.096  14.573  22.200  0.00  0.00    +0.000 N 
ATOM     16  C   UNL     1       7.673  15.577  21.255  0.00  0.00    +0.000 C 
ATOM     17  C   UNL     1       6.998  14.220  22.971  0.00  0.00    +0.000 A 
ATOM     18  C   UNL     1       6.818  14.900  24.303  0.00  0.00    +0.000 A 
ATOM     19  C   UNL     1       5.596  15.439  24.483  0.00  0.00    +0.000 A 
ATOM     20  N   UNL     1       4.630  15.272  23.491  0.00  0.00    +0.000 N 
ATOM     21  N   UNL     1       3.453  15.929  23.347  0.00  0.00    +0.000 NA
ATOM     22  C   UNL     1       3.101  15.691  22.069  0.00  0.00    +0.000 A 
ATOM     23  C   UNL     1       3.977  14.794  21.404  0.00  0.00    +0.000 A 
ATOM     24  C   UNL     1       4.866  14.435  22.402  0.00  0.00    +0.000 A 
ATOM     25  N   UNL     1       5.992  13.666  22.325  0.00  0.00    +0.000 NA
ATOM     26  C   UNL     1       3.933  14.250  20.000  0.00  0.00    +0.000 C 
ENDROOT
BRANCH   1  28
ATOM     27  C   UNL     1       0.983  16.479  18.932  0.00  0.00    +0.000 C 
ATOM     28  C   UNL     1       1.930  15.682  18.431  0.00  0.00    +0.000 C 
ENDBRANCH   1  28
TORSDOF 1
ENDMDL
MODEL 5
REMARK VINA RESULT:      -6.3      2.418      4.426
REMARK  Name = 
REMARK  2 active torsions:
REMARK  status: ('A' for Active; 'I' for Inactive)
REMARK    1  A    between atoms: C_2  and  C_3
REMARK    2  A    between atoms: N_17  and  C_18
REMARK                            x       y       z     vdW  Elec       q    Type
REMARK                         _______ _______ _______ _____ _____    ______ ____
ROOT
ATOM      1  C   UNL     1      11.202  12.699  19.003  0.00  0.00    +0.000 C 
ATOM      2  O   UNL     1      12.305  12.688  19.541  0.00  0.00    +0.000 OA
ATOM      3  N   UNL     1       9.999  12.884  19.689  0.00  0.00    +0.000 N 
ATOM      4  C   UNL     1      10.113  12.849  21.168  0.00  0.00    +0.000 C 
ATOM      5  C   UNL     1       8.964  12.209  22.020  0.00  0.00    +0.000 C 
ATOM      6  O   UNL     1       8.852  12.928  23.275  0.00  0.00    +0.000 OA
ATOM      7  C   UNL     1       7.679  12.782  23.980  0.00  0.00    +0.000 A 
ATOM      8  C   UNL     1       7.617  11.605  24.760  0.00  0.00    +0.000 A 
ATOM      9  C   UNL     1       6.582  11.379  25.673  0.00  0.00    +0.000 A 
ATOM     10  C   UNL     1       5.600  12.340  25.822  0.00  0.00    +0.000 A 
ATOM     11  F   UNL     1       4.607  12.159  26.700  0.00  0.00    +0.000 F 
ATOM     12  C   UNL     1       5.658  13.512  25.081  0.00  0.00    +0.000 A 
ATOM     13  C   UNL     1       6.703  13.799  24.148  0.00  0.00    +0.000 A 
ATOM     14  C   UNL     1       6.445  15.160  23.485  0.00  0.00    +0.000 C 
ATOM     15  N   UNL     1       7.396  15.990  22.742  0.00  0.00    +0.000 N 
ATOM     16  C   UNL     1       8.745  15.490  22.646  0.00  0.00    +0.000 C 
ATOM     17  C   UNL     1       7.017  16.446  21.487  0.00  0.00    +0.000 A 
ATOM     18  C   UNL     1       7.170  17.915  21.190  0.00  0.00    +0.000 A 
ATOM     19  C   UNL     1       7.845  18.176  20.053  0.00  0.00    +0.000 A 
ATOM     20  N   UNL     1       8.266  17.112  19.256  0.00  0.00    +0.000 N 
ATOM     21  N   UNL     1       9.160  17.130  18.236  0.00  0.00    +0.000 NA
ATOM     22  C   UNL     1       9.497  15.837  18.075  0.00  0.00    +0.000 A 
ATOM     23  C   UNL     1       8.752  14.956  18.903  0.00  0.00    +0.000 A 
ATOM     24  C   UNL     1       7.869  15.808  19.543  0.00  0.00    +0.000 A 
ATOM     25  N   UNL     1       6.968  15.539  20.533  0.00  0.00    +0.000 NA
ATOM     26  C   UNL     1       8.796  13.455  19.015  0.00  0.00    +0.000 C 
ENDROOT
BRANCH   1  28
ATOM     27  C   UNL     1      11.699  13.189  16.659  0.00  0.00    +0.000 C 
ATOM     28  C   UNL     1      11.095  12.405  17.554  0.00  0.00    +0.000 C 
ENDBRANCH   1  28
TORSDOF 1
ENDMDL
MODEL 6
REMARK VINA RESULT:      -6.2      4.027      6.814
REMARK  Name = 
REMARK  2 active torsions:
REMARK  status: ('A' for Active; 'I' for Inactive)
REMARK    1  A    between atoms: C_2  and  C_3
REMARK    2  A    between atoms: N_17  and  C_18
REMARK                            x       y       z     vdW  Elec       q    Type
REMARK                         _______ _______ _______ _____ _____    ______ ____
ROOT
ATOM      1  C   UNL     1       4.276  16.909  20.073  0.00  0.00    +0.000 C 
ATOM      2  O   UNL     1       4.678  18.048  19.855  0.00  0.00    +0.000 OA
ATOM      3  N   UNL     1       5.107  15.789  20.158  0.00  0.00    +0.000 N 
ATOM      4  C   UNL     1       6.514  16.024  19.748  0.00  0.00    +0.000 C 
ATOM      5  C   UNL     1       7.299  14.898  18.991  0.00  0.00    +0.000 C 
ATOM      6  O   UNL     1       8.696  14.956  19.379  0.00  0.00    +0.000 OA
ATOM      7  C   UNL     1       9.461  13.838  19.138  0.00  0.00    +0.000 A 
ATOM      8  C   UNL     1       9.935  13.738  17.811  0.00  0.00    +0.000 A 
ATOM      9  C   UNL     1      10.868  12.767  17.432  0.00  0.00    +0.000 A 
ATOM     10  C   UNL     1      11.345  11.891  18.387  0.00  0.00    +0.000 A 
ATOM     11  F   UNL     1      12.251  10.963  18.057  0.00  0.00    +0.000 F 
ATOM     12  C   UNL     1      10.910  11.990  19.700  0.00  0.00    +0.000 A 
ATOM     13  C   UNL     1       9.971  12.974  20.143  0.00  0.00    +0.000 A 
ATOM     14  C   UNL     1       9.689  12.784  21.640  0.00  0.00    +0.000 C 
ATOM     15  N   UNL     1       9.075  13.739  22.566  0.00  0.00    +0.000 N 
ATOM     16  C   UNL     1       8.722  15.025  22.018  0.00  0.00    +0.000 C 
ATOM     17  C   UNL     1       8.015  13.298  23.345  0.00  0.00    +0.000 A 
ATOM     18  C   UNL     1       8.069  13.555  24.828  0.00  0.00    +0.000 A 
ATOM     19  C   UNL     1       6.966  14.152  25.320  0.00  0.00    +0.000 A 
ATOM     20  N   UNL     1       5.895  14.409  24.464  0.00  0.00    +0.000 N 
ATOM     21  N   UNL     1       4.823  15.212  24.679  0.00  0.00    +0.000 NA
ATOM     22  C   UNL     1       4.319  15.418  23.448  0.00  0.00    +0.000 A 
ATOM     23  C   UNL     1       4.981  14.670  22.439  0.00  0.00    +0.000 A 
ATOM     24  C   UNL     1       5.896  13.923  23.159  0.00  0.00    +0.000 A 
ATOM     25  N   UNL     1       6.880  13.088  22.710  0.00  0.00    +0.000 NA
ATOM     26  C   UNL     1       4.721  14.590  20.957  0.00  0.00    +0.000 C 
ENDROOT
BRANCH   1  28
ATOM     27  C   UNL     1       2.018  16.964  19.136  0.00  0.00    +0.000 C 
ATOM     28  C   UNL     1       2.818  16.655  20.158  0.00  0.00    +0.000 C 
ENDBRANCH   1  28
TORSDOF 1
ENDMDL
MODEL 7
REMARK VINA RESULT:      -6.1     12.934     15.148
REMARK  Name = 
REMARK  2 active torsions:
REMARK  status: ('A' for Active; 'I' for Inactive)
REMARK    1  A    between atoms: C_2  and  C_3
REMARK    2  A    between atoms: N_17  and  C_18
REMARK                            x       y       z     vdW  Elec       q    Type
REMARK                         _______ _______ _______ _____ _____    ______ ____
ROOT
ATOM      1  C   UNL     1      -1.213  15.029  23.274  0.00  0.00    +0.000 C 
ATOM      2  O   UNL     1      -0.843  14.128  24.022  0.00  0.00    +0.000 OA
ATOM      3  N   UNL     1      -1.905  14.819  22.079  0.00  0.00    +0.000 N 
ATOM      4  C   UNL     1      -1.983  13.402  21.644  0.00  0.00    +0.000 C 
ATOM      5  C   UNL     1      -1.912  13.054  20.117  0.00  0.00    +0.000 C 
ATOM      6  O   UNL     1      -2.746  11.895  19.859  0.00  0.00    +0.000 OA
ATOM      7  C   UNL     1      -3.124  11.672  18.555  0.00  0.00    +0.000 A 
ATOM      8  C   UNL     1      -2.144  11.020  17.773  0.00  0.00    +0.000 A 
ATOM      9  C   UNL     1      -2.419  10.557  16.482  0.00  0.00    +0.000 A 
ATOM     10  C   UNL     1      -3.688  10.732  15.965  0.00  0.00    +0.000 A 
ATOM     11  F   UNL     1      -3.984  10.284  14.740  0.00  0.00    +0.000 F 
ATOM     12  C   UNL     1      -4.669  11.349  16.727  0.00  0.00    +0.000 A 
ATOM     13  C   UNL     1      -4.445  11.825  18.058  0.00  0.00    +0.000 A 
ATOM     14  C   UNL     1      -5.727  12.475  18.597  0.00  0.00    +0.000 C 
ATOM     15  N   UNL     1      -6.058  12.785  19.990  0.00  0.00    +0.000 N 
ATOM     16  C   UNL     1      -5.081  12.406  20.980  0.00  0.00    +0.000 C 
ATOM     17  C   UNL     1      -6.491  14.070  20.284  0.00  0.00    +0.000 A 
ATOM     18  C   UNL     1      -7.756  14.226  21.087  0.00  0.00    +0.000 A 
ATOM     19  C   UNL     1      -7.627  15.028  22.162  0.00  0.00    +0.000 A 
ATOM     20  N   UNL     1      -6.406  15.663  22.390  0.00  0.00    +0.000 N 
ATOM     21  N   UNL     1      -5.983  16.287  23.517  0.00  0.00    +0.000 NA
ATOM     22  C   UNL     1      -4.648  16.373  23.360  0.00  0.00    +0.000 A 
ATOM     23  C   UNL     1      -4.202  15.911  22.094  0.00  0.00    +0.000 A 
ATOM     24  C   UNL     1      -5.384  15.599  21.446  0.00  0.00    +0.000 A 
ATOM     25  N   UNL     1      -5.576  15.016  20.226  0.00  0.00    +0.000 NA
ATOM     26  C   UNL     1      -2.814  15.857  21.511  0.00  0.00    +0.000 C 
ENDROOT
BRANCH   1  28
ATOM     27  C   UNL     1      -1.156  16.977  24.751  0.00  0.00    +0.000 C 
ATOM     28  C   UNL     1      -0.833  16.429  23.578  0.00  0.00    +0.000 C 
ENDBRANCH   1  28
TORSDOF 1
ENDMDL
MODEL 8
REMARK VINA RESULT:      -6.1     10.551     12.389
REMARK  Name = 
REMARK  2 active torsions:
REMARK  status: ('A' for Active; 'I' for Inactive)
REMARK    1  A    between atoms: C_2  and  C_3
REMARK    2  A    between atoms: N_17  and  C_18
REMARK                            x       y       z     vdW  Elec       q    Type
REMARK                         _______ _______ _______ _____ _____    ______ ____
ROOT
ATOM      1  C   UNL     1       2.455  14.385  18.890  0.00  0.00    +0.000 C 
ATOM      2  O   UNL     1       3.131  13.361  18.871  0.00  0.00    +0.000 OA
ATOM      3  N   UNL     1       1.064  14.402  19.019  0.00  0.00    +0.000 N 
ATOM      4  C   UNL     1       0.412  13.073  18.913  0.00  0.00    +0.000 C 
ATOM      5  C   UNL     1      -0.984  12.949  18.210  0.00  0.00    +0.000 C 
ATOM      6  O   UNL     1      -1.748  11.902  18.863  0.00  0.00    +0.000 OA
ATOM      7  C   UNL     1      -3.108  11.899  18.662  0.00  0.00    +0.000 A 
ATOM      8  C   UNL     1      -3.511  11.300  17.447  0.00  0.00    +0.000 A 
ATOM      9  C   UNL     1      -4.857  11.051  17.157  0.00  0.00    +0.000 A 
ATOM     10  C   UNL     1      -5.815  11.391  18.093  0.00  0.00    +0.000 A 
ATOM     11  F   UNL     1      -7.108  11.148  17.851  0.00  0.00    +0.000 F 
ATOM     12  C   UNL     1      -5.437  11.957  19.301  0.00  0.00    +0.000 A 
ATOM     13  C   UNL     1      -4.074  12.217  19.653  0.00  0.00    +0.000 A 
ATOM     14  C   UNL     1      -4.014  12.871  21.041  0.00  0.00    +0.000 C 
ATOM     15  N   UNL     1      -2.852  12.996  21.924  0.00  0.00    +0.000 N 
ATOM     16  C   UNL     1      -1.623  12.409  21.451  0.00  0.00    +0.000 C 
ATOM     17  C   UNL     1      -2.559  14.252  22.435  0.00  0.00    +0.000 A 
ATOM     18  C   UNL     1      -2.335  14.379  23.920  0.00  0.00    +0.000 A 
ATOM     19  C   UNL     1      -1.188  15.004  24.249  0.00  0.00    +0.000 A 
ATOM     20  N   UNL     1      -0.377  15.511  23.234  0.00  0.00    +0.000 N 
ATOM     21  N   UNL     1       0.910  15.932  23.319  0.00  0.00    +0.000 NA
ATOM     22  C   UNL     1       1.334  15.944  22.041  0.00  0.00    +0.000 A 
ATOM     23  C   UNL     1       0.308  15.642  21.107  0.00  0.00    +0.000 A 
ATOM     24  C   UNL     1      -0.812  15.512  21.911  0.00  0.00    +0.000 A 
ATOM     25  N   UNL     1      -2.079  15.129  21.577  0.00  0.00    +0.000 NA
ATOM     26  C   UNL     1       0.349  15.574  19.603  0.00  0.00    +0.000 C 
ENDROOT
BRANCH   1  28
ATOM     27  C   UNL     1       3.362  16.124  17.428  0.00  0.00    +0.000 C 
ATOM     28  C   UNL     1       3.112  15.695  18.667  0.00  0.00    +0.000 C 
ENDBRANCH   1  28
TORSDOF 1
ENDMDL
MODEL 9
REMARK VINA RESULT:      -6.1     11.177     13.286
REMARK  Name = 
REMARK  2 active torsions:
REMARK  status: ('A' for Active; 'I' for Inactive)
REMARK    1  A    between atoms: C_2  and  C_3
REMARK    2  A    between atoms: N_17  and  C_18
REMARK                            x       y       z     vdW  Elec       q    Type
REMARK                         _______ _______ _______ _____ _____    ______ ____
ROOT
ATOM      1  C   UNL     1      -5.267  12.998  22.489  0.00  0.00    +0.000 C 
ATOM      2  O   UNL     1      -5.161  12.382  23.545  0.00  0.00    +0.000 OA
ATOM      3  N   UNL     1      -4.202  13.251  21.621  0.00  0.00    +0.000 N 
ATOM      4  C   UNL     1      -2.862  12.912  22.162  0.00  0.00    +0.000 C 
ATOM      5  C   UNL     1      -1.631  13.815  21.805  0.00  0.00    +0.000 C 
ATOM      6  O   UNL     1      -0.447  12.981  21.714  0.00  0.00    +0.000 OA
ATOM      7  C   UNL     1       0.636  13.500  21.044  0.00  0.00    +0.000 A 
ATOM      8  C   UNL     1       1.430  14.375  21.820  0.00  0.00    +0.000 A 
ATOM      9  C   UNL     1       2.662  14.855  21.363  0.00  0.00    +0.000 A 
ATOM     10  C   UNL     1       3.117  14.451  20.122  0.00  0.00    +0.000 A 
ATOM     11  F   UNL     1       4.299  14.881  19.666  0.00  0.00    +0.000 F 
ATOM     12  C   UNL     1       2.362  13.575  19.357  0.00  0.00    +0.000 A 
ATOM     13  C   UNL     1       1.105  13.042  19.785  0.00  0.00    +0.000 A 
ATOM     14  C   UNL     1       0.529  12.132  18.691  0.00  0.00    +0.000 C 
ATOM     15  N   UNL     1      -0.536  11.135  18.822  0.00  0.00    +0.000 N 
ATOM     16  C   UNL     1      -1.091  10.961  20.141  0.00  0.00    +0.000 C 
ATOM     17  C   UNL     1      -1.587  11.186  17.917  0.00  0.00    +0.000 A 
ATOM     18  C   UNL     1      -1.974   9.914  17.208  0.00  0.00    +0.000 A 
ATOM     19  C   UNL     1      -3.286   9.619  17.289  0.00  0.00    +0.000 A 
ATOM     20  N   UNL     1      -4.141  10.509  17.940  0.00  0.00    +0.000 N 
ATOM     21  N   UNL     1      -5.414  10.296  18.357  0.00  0.00    +0.000 NA
ATOM     22  C   UNL     1      -5.637  11.287  19.241  0.00  0.00    +0.000 A 
ATOM     23  C   UNL     1      -4.565  12.213  19.327  0.00  0.00    +0.000 A 
ATOM     24  C   UNL     1      -3.682  11.754  18.365  0.00  0.00    +0.000 A 
ATOM     25  N   UNL     1      -2.425  12.192  18.061  0.00  0.00    +0.000 NA
ATOM     26  C   UNL     1      -4.420  13.460  20.159  0.00  0.00    +0.000 C 
ENDROOT
BRANCH   1  28
ATOM     27  C   UNL     1      -7.655  12.847  21.981  0.00  0.00    +0.000 C 
ATOM     28  C   UNL     1      -6.569  13.609  22.130  0.00  0.00    +0.000 C 
ENDBRANCH   1  28
TORSDOF 1
ENDMDL
