MODEL 1
REMARK VINA RESULT:      -8.5      0.000      0.000
REMARK  Name = 
REMARK  1 active torsions:
REMARK  status: ('A' for Active; 'I' for Inactive)
REMARK    1  A    between atoms: C_15  and  C_16
REMARK                            x       y       z     vdW  Elec       q    Type
REMARK                         _______ _______ _______ _____ _____    ______ ____
ROOT
ATOM      1  O   UNL     1       2.517   7.820  19.407  0.00  0.00    +0.000 OA
ATOM      2  C   UNL     1       2.652   6.647  19.084  0.00  0.00    +0.000 C 
ATOM      3  C   UNL     1       1.881   5.555  19.806  0.00  0.00    +0.000 C 
ATOM      4  O   UNL     1       1.152   5.832  20.749  0.00  0.00    +0.000 OA
ATOM      5  C   UNL     1       2.036   4.166  19.339  0.00  0.00    +0.000 A 
ATOM      6  C   UNL     1       1.304   3.147  19.968  0.00  0.00    +0.000 A 
ATOM      7  C   UNL     1       1.437   1.828  19.539  0.00  0.00    +0.000 A 
ATOM      8  C   UNL     1       2.297   1.530  18.487  0.00  0.00    +0.000 A 
ATOM      9  C   UNL     1       3.026   2.548  17.865  0.00  0.00    +0.000 A 
ATOM     10  C   UNL     1       2.908   3.886  18.281  0.00  0.00    +0.000 A 
ATOM     11  C   UNL     1       3.680   4.960  17.628  0.00  0.00    +0.000 C 
ATOM     12  C   UNL     1       3.565   6.249  17.985  0.00  0.00    +0.000 C 
ATOM     13  C   UNL     1       4.302   7.349  17.283  0.00  0.00    +0.000 C 
ATOM     14  C   UNL     1       4.863   6.867  15.950  0.00  0.00    +0.000 C 
ATOM     15  C   UNL     1       5.475   5.477  16.126  0.00  0.00    +0.000 C 
ATOM     16  O   UNL     1       4.511   4.531  16.614  0.00  0.00    +0.000 OA
ENDROOT
BRANCH  15  17
ATOM     17  C   UNL     1       6.012   4.922  14.820  0.00  0.00    +0.000 A 
ATOM     18  C   UNL     1       5.278   3.971  14.094  0.00  0.00    +0.000 A 
ATOM     19  C   UNL     1       5.760   3.485  12.876  0.00  0.00    +0.000 A 
ATOM     20  C   UNL     1       6.975   3.946  12.383  0.00  0.00    +0.000 A 
ATOM     21  F   UNL     1       7.430   3.484  11.211  0.00  0.00    +0.000 F 
ATOM     22  C   UNL     1       7.721   4.883  13.084  0.00  0.00    +0.000 A 
ATOM     23  C   UNL     1       7.239   5.374  14.298  0.00  0.00    +0.000 A 
ENDBRANCH  15  17
TORSDOF 1
ENDMDL
MODEL 2
REMARK VINA RESULT:      -8.5      0.041      1.009
REMARK  Name = 
REMARK  1 active torsions:
REMARK  status: ('A' for Active; 'I' for Inactive)
REMARK    1  A    between atoms: C_15  and  C_16
REMARK                            x       y       z     vdW  Elec       q    Type
REMARK                         _______ _______ _______ _____ _____    ______ ____
ROOT
ATOM      1  O   UNL     1       2.533   7.805  19.428  0.00  0.00    +0.000 OA
ATOM      2  C   UNL     1       2.661   6.636  19.091  0.00  0.00    +0.000 C 
ATOM      3  C   UNL     1       1.890   5.539  19.806  0.00  0.00    +0.000 C 
ATOM      4  O   UNL     1       1.169   5.808  20.757  0.00  0.00    +0.000 OA
ATOM      5  C   UNL     1       2.035   4.155  19.322  0.00  0.00    +0.000 A 
ATOM      6  C   UNL     1       1.303   3.131  19.944  0.00  0.00    +0.000 A 
ATOM      7  C   UNL     1       1.428   1.817  19.500  0.00  0.00    +0.000 A 
ATOM      8  C   UNL     1       2.280   1.527  18.438  0.00  0.00    +0.000 A 
ATOM      9  C   UNL     1       3.008   2.549  17.823  0.00  0.00    +0.000 A 
ATOM     10  C   UNL     1       2.899   3.883  18.255  0.00  0.00    +0.000 A 
ATOM     11  C   UNL     1       3.671   4.961  17.609  0.00  0.00    +0.000 C 
ATOM     12  C   UNL     1       3.565   6.246  17.981  0.00  0.00    +0.000 C 
ATOM     13  C   UNL     1       4.302   7.351  17.287  0.00  0.00    +0.000 C 
ATOM     14  C   UNL     1       4.852   6.882  15.944  0.00  0.00    +0.000 C 
ATOM     15  C   UNL     1       5.459   5.487  16.100  0.00  0.00    +0.000 C 
ATOM     16  O   UNL     1       4.493   4.540  16.584  0.00  0.00    +0.000 OA
ENDROOT
BRANCH  15  17
ATOM     17  C   UNL     1       5.984   4.945  14.784  0.00  0.00    +0.000 A 
ATOM     18  C   UNL     1       7.235   5.354  14.294  0.00  0.00    +0.000 A 
ATOM     19  C   UNL     1       7.731   4.829  13.098  0.00  0.00    +0.000 A 
ATOM     20  C   UNL     1       6.979   3.900  12.390  0.00  0.00    +0.000 A 
ATOM     21  F   UNL     1       7.461   3.393  11.248  0.00  0.00    +0.000 F 
ATOM     22  C   UNL     1       5.738   3.483  12.852  0.00  0.00    +0.000 A 
ATOM     23  C   UNL     1       5.244   4.001  14.049  0.00  0.00    +0.000 A 
ENDBRANCH  15  17
TORSDOF 1
ENDMDL
MODEL 3
REMARK VINA RESULT:      -8.5      4.546      7.252
REMARK  Name = 
REMARK  1 active torsions:
REMARK  status: ('A' for Active; 'I' for Inactive)
REMARK    1  A    between atoms: C_15  and  C_16
REMARK                            x       y       z     vdW  Elec       q    Type
REMARK                         _______ _______ _______ _____ _____    ______ ____
ROOT
ATOM      1  O   UNL     1       1.782  12.081  17.906  0.00  0.00    +0.000 OA
ATOM      2  C   UNL     1       1.383  11.435  18.866  0.00  0.00    +0.000 C 
ATOM      3  C   UNL     1       0.616  12.114  19.988  0.00  0.00    +0.000 C 
ATOM      4  O   UNL     1       0.429  13.323  19.966  0.00  0.00    +0.000 OA
ATOM      5  C   UNL     1       0.108  11.280  21.091  0.00  0.00    +0.000 A 
ATOM      6  C   UNL     1      -0.636  11.881  22.118  0.00  0.00    +0.000 A 
ATOM      7  C   UNL     1      -1.124  11.108  23.168  0.00  0.00    +0.000 A 
ATOM      8  C   UNL     1      -0.872   9.740  23.191  0.00  0.00    +0.000 A 
ATOM      9  C   UNL     1      -0.129   9.145  22.167  0.00  0.00    +0.000 A 
ATOM     10  C   UNL     1       0.375   9.906  21.097  0.00  0.00    +0.000 A 
ATOM     11  C   UNL     1       1.163   9.279  20.019  0.00  0.00    +0.000 C 
ATOM     12  C   UNL     1       1.631   9.976  18.971  0.00  0.00    +0.000 C 
ATOM     13  C   UNL     1       2.379   9.331  17.843  0.00  0.00    +0.000 C 
ATOM     14  C   UNL     1       2.207   7.817  17.868  0.00  0.00    +0.000 C 
ATOM     15  C   UNL     1       2.332   7.312  19.306  0.00  0.00    +0.000 C 
ATOM     16  O   UNL     1       1.360   7.922  20.169  0.00  0.00    +0.000 OA
ENDROOT
BRANCH  15  17
ATOM     17  C   UNL     1       2.125   5.812  19.402  0.00  0.00    +0.000 A 
ATOM     18  C   UNL     1       1.853   5.208  20.641  0.00  0.00    +0.000 A 
ATOM     19  C   UNL     1       1.632   3.831  20.722  0.00  0.00    +0.000 A 
ATOM     20  C   UNL     1       1.683   3.057  19.570  0.00  0.00    +0.000 A 
ATOM     21  F   UNL     1       1.461   1.738  19.650  0.00  0.00    +0.000 F 
ATOM     22  C   UNL     1       1.953   3.629  18.335  0.00  0.00    +0.000 A 
ATOM     23  C   UNL     1       2.169   5.005  18.250  0.00  0.00    +0.000 A 
ENDBRANCH  15  17
TORSDOF 1
ENDMDL
MODEL 4
REMARK VINA RESULT:      -8.4      4.532      7.246
REMARK  Name = 
REMARK  1 active torsions:
REMARK  status: ('A' for Active; 'I' for Inactive)
REMARK    1  A    between atoms: C_15  and  C_16
REMARK                            x       y       z     vdW  Elec       q    Type
REMARK                         _______ _______ _______ _____ _____    ______ ____
ROOT
ATOM      1  O   UNL     1       1.858  12.064  17.906  0.00  0.00    +0.000 OA
ATOM      2  C   UNL     1       1.441  11.423  18.862  0.00  0.00    +0.000 C 
ATOM      3  C   UNL     1       0.679  12.114  19.980  0.00  0.00    +0.000 C 
ATOM      4  O   UNL     1       0.514  13.326  19.960  0.00  0.00    +0.000 OA
ATOM      5  C   UNL     1       0.150  11.287  21.078  0.00  0.00    +0.000 A 
ATOM      6  C   UNL     1      -0.590  11.900  22.103  0.00  0.00    +0.000 A 
ATOM      7  C   UNL     1      -1.099  11.133  23.148  0.00  0.00    +0.000 A 
ATOM      8  C   UNL     1      -0.870   9.760  23.170  0.00  0.00    +0.000 A 
ATOM      9  C   UNL     1      -0.132   9.155  22.149  0.00  0.00    +0.000 A 
ATOM     10  C   UNL     1       0.392   9.908  21.084  0.00  0.00    +0.000 A 
ATOM     11  C   UNL     1       1.175   9.270  20.009  0.00  0.00    +0.000 C 
ATOM     12  C   UNL     1       1.663   9.960  18.966  0.00  0.00    +0.000 C 
ATOM     13  C   UNL     1       2.406   9.305  17.842  0.00  0.00    +0.000 C 
ATOM     14  C   UNL     1       2.207   7.793  17.862  0.00  0.00    +0.000 C 
ATOM     15  C   UNL     1       2.315   7.284  19.300  0.00  0.00    +0.000 C 
ATOM     16  O   UNL     1       1.348   7.909  20.158  0.00  0.00    +0.000 OA
ENDROOT
BRANCH  15  17
ATOM     17  C   UNL     1       2.080   5.788  19.392  0.00  0.00    +0.000 A 
ATOM     18  C   UNL     1       2.172   4.980  18.247  0.00  0.00    +0.000 A 
ATOM     19  C   UNL     1       1.986   3.598  18.340  0.00  0.00    +0.000 A 
ATOM     20  C   UNL     1       1.707   3.023  19.574  0.00  0.00    +0.000 A 
ATOM     21  F   UNL     1       1.539   1.697  19.661  0.00  0.00    +0.000 F 
ATOM     22  C   UNL     1       1.607   3.801  20.719  0.00  0.00    +0.000 A 
ATOM     23  C   UNL     1       1.799   5.179  20.630  0.00  0.00    +0.000 A 
ENDBRANCH  15  17
TORSDOF 1
ENDMDL
MODEL 5
REMARK VINA RESULT:      -8.3      4.653      7.703
REMARK  Name = 
REMARK  1 active torsions:
REMARK  status: ('A' for Active; 'I' for Inactive)
REMARK    1  A    between atoms: C_15  and  C_16
REMARK                            x       y       z     vdW  Elec       q    Type
REMARK                         _______ _______ _______ _____ _____    ______ ____
ROOT
ATOM      1  O   UNL     1       4.559   6.359  16.480  0.00  0.00    +0.000 OA
ATOM      2  C   UNL     1       3.974   5.993  17.490  0.00  0.00    +0.000 C 
ATOM      3  C   UNL     1       4.169   4.585  18.027  0.00  0.00    +0.000 C 
ATOM      4  O   UNL     1       4.877   3.786  17.428  0.00  0.00    +0.000 OA
ATOM      5  C   UNL     1       3.487   4.214  19.279  0.00  0.00    +0.000 A 
ATOM      6  C   UNL     1       3.683   2.931  19.812  0.00  0.00    +0.000 A 
ATOM      7  C   UNL     1       3.047   2.564  20.996  0.00  0.00    +0.000 A 
ATOM      8  C   UNL     1       2.219   3.476  21.643  0.00  0.00    +0.000 A 
ATOM      9  C   UNL     1       2.024   4.752  21.108  0.00  0.00    +0.000 A 
ATOM     10  C   UNL     1       2.656   5.145  19.914  0.00  0.00    +0.000 A 
ATOM     11  C   UNL     1       2.447   6.490  19.346  0.00  0.00    +0.000 C 
ATOM     12  C   UNL     1       3.060   6.901  18.225  0.00  0.00    +0.000 C 
ATOM     13  C   UNL     1       2.897   8.288  17.679  0.00  0.00    +0.000 C 
ATOM     14  C   UNL     1       2.285   9.217  18.721  0.00  0.00    +0.000 C 
ATOM     15  C   UNL     1       1.141   8.498  19.437  0.00  0.00    +0.000 C 
ATOM     16  O   UNL     1       1.589   7.290  20.072  0.00  0.00    +0.000 OA
ENDROOT
BRANCH  15  17
ATOM     17  C   UNL     1       0.518   9.358  20.520  0.00  0.00    +0.000 A 
ATOM     18  C   UNL     1      -0.106  10.573  20.195  0.00  0.00    +0.000 A 
ATOM     19  C   UNL     1      -0.706  11.348  21.191  0.00  0.00    +0.000 A 
ATOM     20  C   UNL     1      -0.683  10.913  22.509  0.00  0.00    +0.000 A 
ATOM     21  F   UNL     1      -1.267  11.654  23.460  0.00  0.00    +0.000 F 
ATOM     22  C   UNL     1      -0.068   9.718  22.857  0.00  0.00    +0.000 A 
ATOM     23  C   UNL     1       0.526   8.939  21.864  0.00  0.00    +0.000 A 
ENDBRANCH  15  17
TORSDOF 1
ENDMDL
MODEL 6
REMARK VINA RESULT:      -8.3      4.661      7.704
REMARK  Name = 
REMARK  1 active torsions:
REMARK  status: ('A' for Active; 'I' for Inactive)
REMARK    1  A    between atoms: C_15  and  C_16
REMARK                            x       y       z     vdW  Elec       q    Type
REMARK                         _______ _______ _______ _____ _____    ______ ____
ROOT
ATOM      1  O   UNL     1       4.601   6.408  16.526  0.00  0.00    +0.000 OA
ATOM      2  C   UNL     1       4.004   6.030  17.526  0.00  0.00    +0.000 C 
ATOM      3  C   UNL     1       4.207   4.623  18.060  0.00  0.00    +0.000 C 
ATOM      4  O   UNL     1       4.934   3.835  17.469  0.00  0.00    +0.000 OA
ATOM      5  C   UNL     1       3.509   4.239  19.299  0.00  0.00    +0.000 A 
ATOM      6  C   UNL     1       3.712   2.955  19.830  0.00  0.00    +0.000 A 
ATOM      7  C   UNL     1       3.061   2.576  21.001  0.00  0.00    +0.000 A 
ATOM      8  C   UNL     1       2.212   3.474  21.639  0.00  0.00    +0.000 A 
ATOM      9  C   UNL     1       2.011   4.751  21.106  0.00  0.00    +0.000 A 
ATOM     10  C   UNL     1       2.657   5.156  19.925  0.00  0.00    +0.000 A 
ATOM     11  C   UNL     1       2.442   6.501  19.359  0.00  0.00    +0.000 C 
ATOM     12  C   UNL     1       3.067   6.924  18.249  0.00  0.00    +0.000 C 
ATOM     13  C   UNL     1       2.897   8.312  17.707  0.00  0.00    +0.000 C 
ATOM     14  C   UNL     1       2.257   9.229  18.742  0.00  0.00    +0.000 C 
ATOM     15  C   UNL     1       1.110   8.493  19.437  0.00  0.00    +0.000 C 
ATOM     16  O   UNL     1       1.562   7.288  20.074  0.00  0.00    +0.000 OA
ENDROOT
BRANCH  15  17
ATOM     17  C   UNL     1       0.460   9.341  20.514  0.00  0.00    +0.000 A 
ATOM     18  C   UNL     1       0.500   8.940  21.859  0.00  0.00    +0.000 A 
ATOM     19  C   UNL     1      -0.073   9.738  22.852  0.00  0.00    +0.000 A 
ATOM     20  C   UNL     1      -0.687  10.935  22.504  0.00  0.00    +0.000 A 
ATOM     21  F   UNL     1      -1.227  11.702  23.460  0.00  0.00    +0.000 F 
ATOM     22  C   UNL     1      -0.743  11.351  21.181  0.00  0.00    +0.000 A 
ATOM     23  C   UNL     1      -0.167  10.559  20.188  0.00  0.00    +0.000 A 
ENDBRANCH  15  17
TORSDOF 1
ENDMDL
MODEL 7
REMARK VINA RESULT:      -8.2      3.932      7.319
REMARK  Name = 
REMARK  1 active torsions:
REMARK  status: ('A' for Active; 'I' for Inactive)
REMARK    1  A    between atoms: C_15  and  C_16
REMARK                            x       y       z     vdW  Elec       q    Type
REMARK                         _______ _______ _______ _____ _____    ______ ____
ROOT
ATOM      1  O   UNL     1       2.273   2.131  19.702  0.00  0.00    +0.000 OA
ATOM      2  C   UNL     1       2.751   3.091  19.112  0.00  0.00    +0.000 C 
ATOM      3  C   UNL     1       3.716   2.885  17.957  0.00  0.00    +0.000 C 
ATOM      4  O   UNL     1       4.063   1.757  17.634  0.00  0.00    +0.000 OA
ATOM      5  C   UNL     1       4.217   4.074  17.245  0.00  0.00    +0.000 A 
ATOM      6  C   UNL     1       5.080   3.904  16.151  0.00  0.00    +0.000 A 
ATOM      7  C   UNL     1       5.561   5.017  15.466  0.00  0.00    +0.000 A 
ATOM      8  C   UNL     1       5.182   6.293  15.871  0.00  0.00    +0.000 A 
ATOM      9  C   UNL     1       4.324   6.457  16.963  0.00  0.00    +0.000 A 
ATOM     10  C   UNL     1       3.826   5.349  17.670  0.00  0.00    +0.000 A 
ATOM     11  C   UNL     1       2.924   5.522  18.824  0.00  0.00    +0.000 C 
ATOM     12  C   UNL     1       2.410   4.482  19.499  0.00  0.00    +0.000 C 
ATOM     13  C   UNL     1       1.446   4.654  20.634  0.00  0.00    +0.000 C 
ATOM     14  C   UNL     1       0.874   6.067  20.657  0.00  0.00    +0.000 C 
ATOM     15  C   UNL     1       1.995   7.075  20.397  0.00  0.00    +0.000 C 
ATOM     16  O   UNL     1       2.641   6.836  19.137  0.00  0.00    +0.000 OA
ENDROOT
BRANCH  15  17
ATOM     17  C   UNL     1       1.480   8.502  20.363  0.00  0.00    +0.000 A 
ATOM     18  C   UNL     1       1.453   9.221  19.157  0.00  0.00    +0.000 A 
ATOM     19  C   UNL     1       0.949  10.524  19.122  0.00  0.00    +0.000 A 
ATOM     20  C   UNL     1       0.475  11.109  20.289  0.00  0.00    +0.000 A 
ATOM     21  F   UNL     1      -0.015  12.355  20.251  0.00  0.00    +0.000 F 
ATOM     22  C   UNL     1       0.495  10.421  21.494  0.00  0.00    +0.000 A 
ATOM     23  C   UNL     1       0.991   9.118  21.530  0.00  0.00    +0.000 A 
ENDBRANCH  15  17
TORSDOF 1
ENDMDL
MODEL 8
REMARK VINA RESULT:      -8.2      3.921      7.292
REMARK  Name = 
REMARK  1 active torsions:
REMARK  status: ('A' for Active; 'I' for Inactive)
REMARK    1  A    between atoms: C_15  and  C_16
REMARK                            x       y       z     vdW  Elec       q    Type
REMARK                         _______ _______ _______ _____ _____    ______ ____
ROOT
ATOM      1  O   UNL     1       2.272   2.131  19.736  0.00  0.00    +0.000 OA
ATOM      2  C   UNL     1       2.750   3.086  19.139  0.00  0.00    +0.000 C 
ATOM      3  C   UNL     1       3.721   2.871  17.990  0.00  0.00    +0.000 C 
ATOM      4  O   UNL     1       4.072   1.740  17.679  0.00  0.00    +0.000 OA
ATOM      5  C   UNL     1       4.222   4.053  17.268  0.00  0.00    +0.000 A 
ATOM      6  C   UNL     1       5.090   3.875  16.180  0.00  0.00    +0.000 A 
ATOM      7  C   UNL     1       5.572   4.981  15.485  0.00  0.00    +0.000 A 
ATOM      8  C   UNL     1       5.189   6.260  15.876  0.00  0.00    +0.000 A 
ATOM      9  C   UNL     1       4.326   6.434  16.962  0.00  0.00    +0.000 A 
ATOM     10  C   UNL     1       3.827   5.332  17.678  0.00  0.00    +0.000 A 
ATOM     11  C   UNL     1       2.919   5.515  18.827  0.00  0.00    +0.000 C 
ATOM     12  C   UNL     1       2.405   4.480  19.510  0.00  0.00    +0.000 C 
ATOM     13  C   UNL     1       1.435   4.661  20.639  0.00  0.00    +0.000 C 
ATOM     14  C   UNL     1       0.861   6.073  20.645  0.00  0.00    +0.000 C 
ATOM     15  C   UNL     1       1.980   7.081  20.380  0.00  0.00    +0.000 C 
ATOM     16  O   UNL     1       2.633   6.831  19.125  0.00  0.00    +0.000 OA
ENDROOT
BRANCH  15  17
ATOM     17  C   UNL     1       1.462   8.506  20.329  0.00  0.00    +0.000 A 
ATOM     18  C   UNL     1       1.017   9.145  21.498  0.00  0.00    +0.000 A 
ATOM     19  C   UNL     1       0.570  10.468  21.453  0.00  0.00    +0.000 A 
ATOM     20  C   UNL     1       0.565  11.152  20.245  0.00  0.00    +0.000 A 
ATOM     21  F   UNL     1       0.144  12.423  20.207  0.00  0.00    +0.000 F 
ATOM     22  C   UNL     1       0.996  10.542  19.075  0.00  0.00    +0.000 A 
ATOM     23  C   UNL     1       1.449   9.223  19.118  0.00  0.00    +0.000 A 
ENDBRANCH  15  17
TORSDOF 1
ENDMDL
MODEL 9
REMARK VINA RESULT:      -7.5      3.975      6.614
REMARK  Name = 
REMARK  1 active torsions:
REMARK  status: ('A' for Active; 'I' for Inactive)
REMARK    1  A    between atoms: C_15  and  C_16
REMARK                            x       y       z     vdW  Elec       q    Type
REMARK                         _______ _______ _______ _____ _____    ______ ____
ROOT
ATOM      1  O   UNL     1       5.177   4.339  16.296  0.00  0.00    +0.000 OA
ATOM      2  C   UNL     1       4.319   4.405  17.166  0.00  0.00    +0.000 C 
ATOM      3  C   UNL     1       3.900   3.161  17.932  0.00  0.00    +0.000 C 
ATOM      4  O   UNL     1       4.383   2.071  17.655  0.00  0.00    +0.000 OA
ATOM      5  C   UNL     1       2.905   3.306  19.008  0.00  0.00    +0.000 A 
ATOM      6  C   UNL     1       2.532   2.176  19.753  0.00  0.00    +0.000 A 
ATOM      7  C   UNL     1       1.594   2.295  20.775  0.00  0.00    +0.000 A 
ATOM      8  C   UNL     1       1.030   3.537  21.052  0.00  0.00    +0.000 A 
ATOM      9  C   UNL     1       1.403   4.660  20.306  0.00  0.00    +0.000 A 
ATOM     10  C   UNL     1       2.348   4.563  19.269  0.00  0.00    +0.000 A 
ATOM     11  C   UNL     1       2.738   5.746  18.479  0.00  0.00    +0.000 C 
ATOM     12  C   UNL     1       3.659   5.689  17.504  0.00  0.00    +0.000 C 
ATOM     13  C   UNL     1       4.102   6.901  16.741  0.00  0.00    +0.000 C 
ATOM     14  C   UNL     1       3.667   8.181  17.447  0.00  0.00    +0.000 C 
ATOM     15  C   UNL     1       2.229   8.027  17.944  0.00  0.00    +0.000 C 
ATOM     16  O   UNL     1       2.093   6.912  18.839  0.00  0.00    +0.000 OA
ENDROOT
BRANCH  15  17
ATOM     17  C   UNL     1       1.752   9.255  18.696  0.00  0.00    +0.000 A 
ATOM     18  C   UNL     1       1.906  10.535  18.141  0.00  0.00    +0.000 A 
ATOM     19  C   UNL     1       1.438  11.662  18.822  0.00  0.00    +0.000 A 
ATOM     20  C   UNL     1       0.819  11.511  20.057  0.00  0.00    +0.000 A 
ATOM     21  F   UNL     1       0.364  12.592  20.704  0.00  0.00    +0.000 F 
ATOM     22  C   UNL     1       0.660  10.257  20.629  0.00  0.00    +0.000 A 
ATOM     23  C   UNL     1       1.121   9.130  19.948  0.00  0.00    +0.000 A 
ENDBRANCH  15  17
TORSDOF 1
ENDMDL
