MODEL 1
REMARK VINA RESULT:      -7.7      0.000      0.000
REMARK  Name = 
REMARK  4 active torsions:
REMARK  status: ('A' for Active; 'I' for Inactive)
REMARK    1  A    between atoms: N_1  and  C_2
REMARK    2  A    between atoms: C_2  and  C_3
REMARK    3  A    between atoms: C_3  and  N_4
REMARK    4  A    between atoms: C_11  and  C_12
REMARK                            x       y       z     vdW  Elec       q    Type
REMARK                         _______ _______ _______ _____ _____    ______ ____
ROOT
ATOM      1  N   UNL     1       7.505   6.448  17.021  0.00  0.00    +0.000 N 
ATOM      2  C   UNL     1       6.317   5.747  16.987  0.00  0.00    +0.000 A 
ATOM      3  C   UNL     1       6.306   4.413  16.288  0.00  0.00    +0.000 A 
ATOM      4  C   UNL     1       5.158   3.723  16.327  0.00  0.00    +0.000 A 
ATOM      5  N   UNL     1       4.043   4.254  16.956  0.00  0.00    +0.000 N 
ATOM      6  N   UNL     1       2.827   3.673  17.086  0.00  0.00    +0.000 NA
ATOM      7  C   UNL     1       2.097   4.589  17.722  0.00  0.00    +0.000 A 
ATOM      8  C   UNL     1       2.813   5.769  18.016  0.00  0.00    +0.000 A 
ATOM      9  C   UNL     1       4.092   5.519  17.544  0.00  0.00    +0.000 A 
ATOM     10  N   UNL     1       5.252   6.251  17.563  0.00  0.00    +0.000 NA
ATOM     11  H   UNL     1       8.339   5.923  16.767  0.00  0.00    +0.000 HD
ENDROOT
BRANCH   8  12
ATOM     12  C   UNL     1       2.348   6.982  18.677  0.00  0.00    +0.000 A 
ATOM     13  C   UNL     1       2.034   8.111  17.901  0.00  0.00    +0.000 A 
ATOM     14  C   UNL     1       1.534   9.287  18.482  0.00  0.00    +0.000 A 
ATOM     15  C   UNL     1       1.353   9.324  19.872  0.00  0.00    +0.000 A 
ATOM     16  C   UNL     1       0.888  10.264  20.818  0.00  0.00    +0.000 A 
ATOM     17  N   UNL     1       0.908   9.794  22.068  0.00  0.00    +0.000 NA
ATOM     18  N   UNL     1       1.391   8.548  21.923  0.00  0.00    +0.000 N 
ATOM     19  C   UNL     1       1.677   8.205  20.627  0.00  0.00    +0.000 A 
ATOM     20  C   UNL     1       2.176   7.023  20.069  0.00  0.00    +0.000 A 
ATOM     21  H   UNL     1       1.499   7.972  22.749  0.00  0.00    +0.000 HD
ENDBRANCH   8  12
BRANCH   1  22
ATOM     22  C   UNL     1       7.800   7.381  18.105  0.00  0.00    +0.000 C 
BRANCH  22  23
ATOM     23  C   UNL     1       7.887   8.819  17.558  0.00  0.00    +0.000 C 
BRANCH  23  24
ATOM     24  N   UNL     1       8.667   9.699  18.444  0.00  0.00    +0.000 NA
ATOM     25  H   UNL     1       8.292  10.647  18.371  0.00  0.00    +0.000 HD
ATOM     26  H   UNL     1       9.625   9.758  18.097  0.00  0.00    +0.000 HD
ENDBRANCH  23  24
ENDBRANCH  22  23
ENDBRANCH   1  22
TORSDOF 4
ENDMDL
MODEL 2
REMARK VINA RESULT:      -7.7      1.037      1.212
REMARK  Name = 
REMARK  4 active torsions:
REMARK  status: ('A' for Active; 'I' for Inactive)
REMARK    1  A    between atoms: N_1  and  C_2
REMARK    2  A    between atoms: C_2  and  C_3
REMARK    3  A    between atoms: C_3  and  N_4
REMARK    4  A    between atoms: C_11  and  C_12
REMARK                            x       y       z     vdW  Elec       q    Type
REMARK                         _______ _______ _______ _____ _____    ______ ____
ROOT
ATOM      1  N   UNL     1       7.198   6.097  16.753  0.00  0.00    +0.000 N 
ATOM      2  C   UNL     1       5.979   5.452  16.802  0.00  0.00    +0.000 A 
ATOM      3  C   UNL     1       5.869   4.103  16.140  0.00  0.00    +0.000 A 
ATOM      4  C   UNL     1       4.695   3.469  16.260  0.00  0.00    +0.000 A 
ATOM      5  N   UNL     1       3.642   4.066  16.935  0.00  0.00    +0.000 N 
ATOM      6  N   UNL     1       2.411   3.545  17.147  0.00  0.00    +0.000 NA
ATOM      7  C   UNL     1       1.760   4.509  17.798  0.00  0.00    +0.000 A 
ATOM      8  C   UNL     1       2.544   5.661  18.021  0.00  0.00    +0.000 A 
ATOM      9  C   UNL     1       3.781   5.341  17.487  0.00  0.00    +0.000 A 
ATOM     10  N   UNL     1       4.972   6.018  17.422  0.00  0.00    +0.000 NA
ATOM     11  H   UNL     1       7.992   5.527  16.467  0.00  0.00    +0.000 HD
ENDROOT
BRANCH   8  12
ATOM     12  C   UNL     1       2.171   6.910  18.674  0.00  0.00    +0.000 A 
ATOM     13  C   UNL     1       1.894   8.042  17.889  0.00  0.00    +0.000 A 
ATOM     14  C   UNL     1       1.482   9.254  18.464  0.00  0.00    +0.000 A 
ATOM     15  C   UNL     1       1.353   9.325  19.859  0.00  0.00    +0.000 A 
ATOM     16  C   UNL     1       0.976  10.305  20.803  0.00  0.00    +0.000 A 
ATOM     17  N   UNL     1       1.014   9.857  22.060  0.00  0.00    +0.000 NA
ATOM     18  N   UNL     1       1.421   8.582  21.922  0.00  0.00    +0.000 N 
ATOM     19  C   UNL     1       1.641   8.201  20.624  0.00  0.00    +0.000 A 
ATOM     20  C   UNL     1       2.051   6.984  20.071  0.00  0.00    +0.000 A 
ATOM     21  H   UNL     1       1.526   8.015  22.754  0.00  0.00    +0.000 HD
ENDBRANCH   8  12
BRANCH   1  22
ATOM     22  C   UNL     1       7.595   7.041  17.794  0.00  0.00    +0.000 C 
BRANCH  22  23
ATOM     23  C   UNL     1       8.156   6.281  19.011  0.00  0.00    +0.000 C 
BRANCH  23  24
ATOM     24  N   UNL     1       7.103   5.555  19.740  0.00  0.00    +0.000 NA
ATOM     25  H   UNL     1       6.355   6.212  19.970  0.00  0.00    +0.000 HD
ATOM     26  H   UNL     1       7.474   5.241  20.638  0.00  0.00    +0.000 HD
ENDBRANCH  23  24
ENDBRANCH  22  23
ENDBRANCH   1  22
TORSDOF 4
ENDMDL
MODEL 3
REMARK VINA RESULT:      -7.6      1.165      1.577
REMARK  Name = 
REMARK  4 active torsions:
REMARK  status: ('A' for Active; 'I' for Inactive)
REMARK    1  A    between atoms: N_1  and  C_2
REMARK    2  A    between atoms: C_2  and  C_3
REMARK    3  A    between atoms: C_3  and  N_4
REMARK    4  A    between atoms: C_11  and  C_12
REMARK                            x       y       z     vdW  Elec       q    Type
REMARK                         _______ _______ _______ _____ _____    ______ ____
ROOT
ATOM      1  N   UNL     1       7.624   6.552  17.041  0.00  0.00    +0.000 N 
ATOM      2  C   UNL     1       6.482   5.780  16.977  0.00  0.00    +0.000 A 
ATOM      3  C   UNL     1       6.574   4.440  16.294  0.00  0.00    +0.000 A 
ATOM      4  C   UNL     1       5.469   3.683  16.304  0.00  0.00    +0.000 A 
ATOM      5  N   UNL     1       4.304   4.152  16.890  0.00  0.00    +0.000 N 
ATOM      6  N   UNL     1       3.122   3.500  16.987  0.00  0.00    +0.000 NA
ATOM      7  C   UNL     1       2.317   4.377  17.588  0.00  0.00    +0.000 A 
ATOM      8  C   UNL     1       2.951   5.601  17.891  0.00  0.00    +0.000 A 
ATOM      9  C   UNL     1       4.258   5.424  17.464  0.00  0.00    +0.000 A 
ATOM     10  N   UNL     1       5.370   6.224  17.511  0.00  0.00    +0.000 NA
ATOM     11  H   UNL     1       8.497   6.075  16.821  0.00  0.00    +0.000 HD
ENDROOT
BRANCH   8  12
ATOM     12  C   UNL     1       2.392   6.790  18.521  0.00  0.00    +0.000 A 
ATOM     13  C   UNL     1       2.134   6.781  19.902  0.00  0.00    +0.000 A 
ATOM     14  C   UNL     1       1.644   7.916  20.567  0.00  0.00    +0.000 A 
ATOM     15  C   UNL     1       1.406   9.080  19.822  0.00  0.00    +0.000 A 
ATOM     16  C   UNL     1       0.942  10.386  20.086  0.00  0.00    +0.000 A 
ATOM     17  N   UNL     1       0.897  11.153  18.993  0.00  0.00    +0.000 NA
ATOM     18  N   UNL     1       1.333  10.331  18.022  0.00  0.00    +0.000 N 
ATOM     19  C   UNL     1       1.656   9.072  18.455  0.00  0.00    +0.000 A 
ATOM     20  C   UNL     1       2.145   7.952  17.774  0.00  0.00    +0.000 A 
ATOM     21  H   UNL     1       1.395  10.689  17.077  0.00  0.00    +0.000 HD
ENDBRANCH   8  12
BRANCH   1  22
ATOM     22  C   UNL     1       7.826   7.512  18.122  0.00  0.00    +0.000 C 
BRANCH  22  23
ATOM     23  C   UNL     1       7.914   8.941  17.552  0.00  0.00    +0.000 C 
BRANCH  23  24
ATOM     24  N   UNL     1       8.734   9.822  18.400  0.00  0.00    +0.000 NA
ATOM     25  H   UNL     1       8.904   9.351  19.290  0.00  0.00    +0.000 HD
ATOM     26  H   UNL     1       8.196  10.657  18.632  0.00  0.00    +0.000 HD
ENDBRANCH  23  24
ENDBRANCH  22  23
ENDBRANCH   1  22
TORSDOF 4
ENDMDL
MODEL 4
REMARK VINA RESULT:      -7.5      3.722      6.243
REMARK  Name = 
REMARK  4 active torsions:
REMARK  status: ('A' for Active; 'I' for Inactive)
REMARK    1  A    between atoms: N_1  and  C_2
REMARK    2  A    between atoms: C_2  and  C_3
REMARK    3  A    between atoms: C_3  and  N_4
REMARK    4  A    between atoms: C_11  and  C_12
REMARK                            x       y       z     vdW  Elec       q    Type
REMARK                         _______ _______ _______ _____ _____    ______ ____
ROOT
ATOM      1  N   UNL     1       5.122   3.166  11.703  0.00  0.00    +0.000 N 
ATOM      2  C   UNL     1       5.794   3.822  12.714  0.00  0.00    +0.000 A 
ATOM      3  C   UNL     1       7.182   4.329  12.425  0.00  0.00    +0.000 A 
ATOM      4  C   UNL     1       7.786   5.020  13.401  0.00  0.00    +0.000 A 
ATOM      5  N   UNL     1       7.152   5.211  14.618  0.00  0.00    +0.000 N 
ATOM      6  N   UNL     1       7.628   5.893  15.686  0.00  0.00    +0.000 NA
ATOM      7  C   UNL     1       6.677   5.754  16.610  0.00  0.00    +0.000 A 
ATOM      8  C   UNL     1       5.577   4.989  16.168  0.00  0.00    +0.000 A 
ATOM      9  C   UNL     1       5.884   4.675  14.853  0.00  0.00    +0.000 A 
ATOM     10  N   UNL     1       5.209   3.990  13.876  0.00  0.00    +0.000 NA
ATOM     11  H   UNL     1       5.519   3.261  10.770  0.00  0.00    +0.000 HD
ENDROOT
BRANCH   8  12
ATOM     12  C   UNL     1       4.372   4.612  16.896  0.00  0.00    +0.000 A 
ATOM     13  C   UNL     1       3.536   5.618  17.412  0.00  0.00    +0.000 A 
ATOM     14  C   UNL     1       2.339   5.310  18.077  0.00  0.00    +0.000 A 
ATOM     15  C   UNL     1       1.982   3.962  18.227  0.00  0.00    +0.000 A 
ATOM     16  C   UNL     1       0.908   3.246  18.799  0.00  0.00    +0.000 A 
ATOM     17  N   UNL     1       1.040   1.923  18.673  0.00  0.00    +0.000 NA
ATOM     18  N   UNL     1       2.207   1.790  18.019  0.00  0.00    +0.000 N 
ATOM     19  C   UNL     1       2.822   2.979  17.721  0.00  0.00    +0.000 A 
ATOM     20  C   UNL     1       4.019   3.263  17.055  0.00  0.00    +0.000 A 
ATOM     21  H   UNL     1       2.533   0.858  17.796  0.00  0.00    +0.000 HD
ENDBRANCH   8  12
BRANCH   1  22
ATOM     22  C   UNL     1       3.663   3.169  11.640  0.00  0.00    +0.000 C 
BRANCH  22  23
ATOM     23  C   UNL     1       3.196   3.115  10.173  0.00  0.00    +0.000 C 
BRANCH  23  24
ATOM     24  N   UNL     1       2.851   4.449   9.655  0.00  0.00    +0.000 NA
ATOM     25  H   UNL     1       2.528   4.350   8.691  0.00  0.00    +0.000 HD
ATOM     26  H   UNL     1       3.698   5.016   9.601  0.00  0.00    +0.000 HD
ENDBRANCH  23  24
ENDBRANCH  22  23
ENDBRANCH   1  22
TORSDOF 4
ENDMDL
MODEL 5
REMARK VINA RESULT:      -7.4      1.480      1.929
REMARK  Name = 
REMARK  4 active torsions:
REMARK  status: ('A' for Active; 'I' for Inactive)
REMARK    1  A    between atoms: N_1  and  C_2
REMARK    2  A    between atoms: C_2  and  C_3
REMARK    3  A    between atoms: C_3  and  N_4
REMARK    4  A    between atoms: C_11  and  C_12
REMARK                            x       y       z     vdW  Elec       q    Type
REMARK                         _______ _______ _______ _____ _____    ______ ____
ROOT
ATOM      1  N   UNL     1       7.300   6.296  16.734  0.00  0.00    +0.000 N 
ATOM      2  C   UNL     1       6.130   5.566  16.779  0.00  0.00    +0.000 A 
ATOM      3  C   UNL     1       6.125   4.201  16.142  0.00  0.00    +0.000 A 
ATOM      4  C   UNL     1       4.998   3.486  16.258  0.00  0.00    +0.000 A 
ATOM      5  N   UNL     1       3.896   4.019  16.907  0.00  0.00    +0.000 N 
ATOM      6  N   UNL     1       2.701   3.415  17.112  0.00  0.00    +0.000 NA
ATOM      7  C   UNL     1       1.973   4.343  17.735  0.00  0.00    +0.000 A 
ATOM      8  C   UNL     1       2.670   5.551  17.947  0.00  0.00    +0.000 A 
ATOM      9  C   UNL     1       3.935   5.311  17.436  0.00  0.00    +0.000 A 
ATOM     10  N   UNL     1       5.075   6.070  17.374  0.00  0.00    +0.000 NA
ATOM     11  H   UNL     1       8.137   5.779  16.470  0.00  0.00    +0.000 HD
ENDROOT
BRANCH   8  12
ATOM     12  C   UNL     1       2.200   6.782  18.571  0.00  0.00    +0.000 A 
ATOM     13  C   UNL     1       1.980   6.810  19.958  0.00  0.00    +0.000 A 
ATOM     14  C   UNL     1       1.576   7.983  20.616  0.00  0.00    +0.000 A 
ATOM     15  C   UNL     1       1.386   9.147  19.856  0.00  0.00    +0.000 A 
ATOM     16  C   UNL     1       1.008  10.483  20.110  0.00  0.00    +0.000 A 
ATOM     17  N   UNL     1       0.979  11.233  19.005  0.00  0.00    +0.000 NA
ATOM     18  N   UNL     1       1.338  10.371  18.037  0.00  0.00    +0.000 N 
ATOM     19  C   UNL     1       1.598   9.102  18.484  0.00  0.00    +0.000 A 
ATOM     20  C   UNL     1       2.001   7.944  17.810  0.00  0.00    +0.000 A 
ATOM     21  H   UNL     1       1.396  10.710  17.085  0.00  0.00    +0.000 HD
ENDBRANCH   8  12
BRANCH   1  22
ATOM     22  C   UNL     1       7.613   7.284  17.762  0.00  0.00    +0.000 C 
BRANCH  22  23
ATOM     23  C   UNL     1       8.236   6.593  18.989  0.00  0.00    +0.000 C 
BRANCH  23  24
ATOM     24  N   UNL     1       7.288   5.675  19.644  0.00  0.00    +0.000 NA
ATOM     25  H   UNL     1       7.669   5.412  20.555  0.00  0.00    +0.000 HD
ATOM     26  H   UNL     1       7.239   4.808  19.109  0.00  0.00    +0.000 HD
ENDBRANCH  23  24
ENDBRANCH  22  23
ENDBRANCH   1  22
TORSDOF 4
ENDMDL
MODEL 6
REMARK VINA RESULT:      -7.4      2.126      2.623
REMARK  Name = 
REMARK  4 active torsions:
REMARK  status: ('A' for Active; 'I' for Inactive)
REMARK    1  A    between atoms: N_1  and  C_2
REMARK    2  A    between atoms: C_2  and  C_3
REMARK    3  A    between atoms: C_3  and  N_4
REMARK    4  A    between atoms: C_11  and  C_12
REMARK                            x       y       z     vdW  Elec       q    Type
REMARK                         _______ _______ _______ _____ _____    ______ ____
ROOT
ATOM      1  N   UNL     1       6.456   4.231  18.430  0.00  0.00    +0.000 N 
ATOM      2  C   UNL     1       5.225   4.047  19.025  0.00  0.00    +0.000 A 
ATOM      3  C   UNL     1       4.885   2.670  19.533  0.00  0.00    +0.000 A 
ATOM      4  C   UNL     1       3.712   2.535  20.165  0.00  0.00    +0.000 A 
ATOM      5  N   UNL     1       2.859   3.619  20.298  0.00  0.00    +0.000 N 
ATOM      6  N   UNL     1       1.656   3.638  20.918  0.00  0.00    +0.000 NA
ATOM      7  C   UNL     1       1.219   4.885  20.740  0.00  0.00    +0.000 A 
ATOM      8  C   UNL     1       2.117   5.693  20.010  0.00  0.00    +0.000 A 
ATOM      9  C   UNL     1       3.200   4.863  19.763  0.00  0.00    +0.000 A 
ATOM     10  N   UNL     1       4.403   5.063  19.137  0.00  0.00    +0.000 NA
ATOM     11  H   UNL     1       7.134   3.484  18.570  0.00  0.00    +0.000 HD
ENDROOT
BRANCH   8  12
ATOM     12  C   UNL     1       1.975   7.086  19.607  0.00  0.00    +0.000 A 
ATOM     13  C   UNL     1       2.333   7.465  18.302  0.00  0.00    +0.000 A 
ATOM     14  C   UNL     1       2.169   8.783  17.848  0.00  0.00    +0.000 A 
ATOM     15  C   UNL     1       1.638   9.736  18.729  0.00  0.00    +0.000 A 
ATOM     16  C   UNL     1       1.315  11.109  18.677  0.00  0.00    +0.000 A 
ATOM     17  N   UNL     1       0.811  11.568  19.827  0.00  0.00    +0.000 NA
ATOM     18  N   UNL     1       0.814  10.482  20.620  0.00  0.00    +0.000 N 
ATOM     19  C   UNL     1       1.298   9.349  20.019  0.00  0.00    +0.000 A 
ATOM     20  C   UNL     1       1.453   8.042  20.492  0.00  0.00    +0.000 A 
ATOM     21  H   UNL     1       0.466  10.574  21.567  0.00  0.00    +0.000 HD
ENDBRANCH   8  12
BRANCH   1  22
ATOM     22  C   UNL     1       7.119   5.532  18.451  0.00  0.00    +0.000 C 
BRANCH  22  23
ATOM     23  C   UNL     1       7.131   6.143  17.036  0.00  0.00    +0.000 C 
BRANCH  23  24
ATOM     24  N   UNL     1       7.559   7.552  17.049  0.00  0.00    +0.000 NA
ATOM     25  H   UNL     1       6.868   8.105  16.540  0.00  0.00    +0.000 HD
ATOM     26  H   UNL     1       8.425   7.642  16.516  0.00  0.00    +0.000 HD
ENDBRANCH  23  24
ENDBRANCH  22  23
ENDBRANCH   1  22
TORSDOF 4
ENDMDL
MODEL 7
REMARK VINA RESULT:      -7.4      2.281      2.825
REMARK  Name = 
REMARK  4 active torsions:
REMARK  status: ('A' for Active; 'I' for Inactive)
REMARK    1  A    between atoms: N_1  and  C_2
REMARK    2  A    between atoms: C_2  and  C_3
REMARK    3  A    between atoms: C_3  and  N_4
REMARK    4  A    between atoms: C_11  and  C_12
REMARK                            x       y       z     vdW  Elec       q    Type
REMARK                         _______ _______ _______ _____ _____    ______ ____
ROOT
ATOM      1  N   UNL     1       6.321   4.176  18.246  0.00  0.00    +0.000 N 
ATOM      2  C   UNL     1       5.119   4.033  18.909  0.00  0.00    +0.000 A 
ATOM      3  C   UNL     1       4.778   2.676  19.467  0.00  0.00    +0.000 A 
ATOM      4  C   UNL     1       3.637   2.581  20.163  0.00  0.00    +0.000 A 
ATOM      5  N   UNL     1       2.816   3.687  20.313  0.00  0.00    +0.000 N 
ATOM      6  N   UNL     1       1.647   3.746  20.995  0.00  0.00    +0.000 NA
ATOM      7  C   UNL     1       1.227   4.998  20.809  0.00  0.00    +0.000 A 
ATOM      8  C   UNL     1       2.102   5.769  20.015  0.00  0.00    +0.000 A 
ATOM      9  C   UNL     1       3.153   4.910  19.731  0.00  0.00    +0.000 A 
ATOM     10  N   UNL     1       4.326   5.070  19.039  0.00  0.00    +0.000 NA
ATOM     11  H   UNL     1       6.990   3.418  18.369  0.00  0.00    +0.000 HD
ENDROOT
BRANCH   8  12
ATOM     12  C   UNL     1       1.968   7.155  19.586  0.00  0.00    +0.000 A 
ATOM     13  C   UNL     1       2.320   7.507  18.272  0.00  0.00    +0.000 A 
ATOM     14  C   UNL     1       2.162   8.817  17.793  0.00  0.00    +0.000 A 
ATOM     15  C   UNL     1       1.645   9.790  18.660  0.00  0.00    +0.000 A 
ATOM     16  C   UNL     1       1.332  11.165  18.584  0.00  0.00    +0.000 A 
ATOM     17  N   UNL     1       0.841  11.649  19.728  0.00  0.00    +0.000 NA
ATOM     18  N   UNL     1       0.841  10.579  20.542  0.00  0.00    +0.000 N 
ATOM     19  C   UNL     1       1.311   9.431  19.960  0.00  0.00    +0.000 A 
ATOM     20  C   UNL     1       1.460   8.132  20.456  0.00  0.00    +0.000 A 
ATOM     21  H   UNL     1       0.501  10.692  21.489  0.00  0.00    +0.000 HD
ENDBRANCH   8  12
BRANCH   1  22
ATOM     22  C   UNL     1       7.010   5.462  18.201  0.00  0.00    +0.000 C 
BRANCH  22  23
ATOM     23  C   UNL     1       8.266   5.422  19.093  0.00  0.00    +0.000 C 
BRANCH  23  24
ATOM     24  N   UNL     1       7.927   5.511  20.524  0.00  0.00    +0.000 NA
ATOM     25  H   UNL     1       8.738   5.877  21.027  0.00  0.00    +0.000 HD
ATOM     26  H   UNL     1       7.781   4.570  20.892  0.00  0.00    +0.000 HD
ENDBRANCH  23  24
ENDBRANCH  22  23
ENDBRANCH   1  22
TORSDOF 4
ENDMDL
MODEL 8
REMARK VINA RESULT:      -7.4      2.634      6.638
REMARK  Name = 
REMARK  4 active torsions:
REMARK  status: ('A' for Active; 'I' for Inactive)
REMARK    1  A    between atoms: N_1  and  C_2
REMARK    2  A    between atoms: C_2  and  C_3
REMARK    3  A    between atoms: C_3  and  N_4
REMARK    4  A    between atoms: C_11  and  C_12
REMARK                            x       y       z     vdW  Elec       q    Type
REMARK                         _______ _______ _______ _____ _____    ______ ____
ROOT
ATOM      1  N   UNL     1       1.925   7.930  19.550  0.00  0.00    +0.000 N 
ATOM      2  C   UNL     1       2.336   6.624  19.727  0.00  0.00    +0.000 A 
ATOM      3  C   UNL     1       1.787   5.865  20.906  0.00  0.00    +0.000 A 
ATOM      4  C   UNL     1       2.150   4.581  21.017  0.00  0.00    +0.000 A 
ATOM      5  N   UNL     1       3.018   4.017  20.096  0.00  0.00    +0.000 N 
ATOM      6  N   UNL     1       3.461   2.738  20.072  0.00  0.00    +0.000 NA
ATOM      7  C   UNL     1       4.294   2.704  19.031  0.00  0.00    +0.000 A 
ATOM      8  C   UNL     1       4.409   3.943  18.366  0.00  0.00    +0.000 A 
ATOM      9  C   UNL     1       3.540   4.779  19.049  0.00  0.00    +0.000 A 
ATOM     10  N   UNL     1       3.173   6.088  18.871  0.00  0.00    +0.000 NA
ATOM     11  H   UNL     1       1.116   8.219  20.096  0.00  0.00    +0.000 HD
ENDROOT
BRANCH   8  12
ATOM     12  C   UNL     1       5.230   4.291  17.214  0.00  0.00    +0.000 A 
ATOM     13  C   UNL     1       6.256   5.241  17.361  0.00  0.00    +0.000 A 
ATOM     14  C   UNL     1       7.108   5.575  16.297  0.00  0.00    +0.000 A 
ATOM     15  C   UNL     1       6.917   4.941  15.060  0.00  0.00    +0.000 A 
ATOM     16  C   UNL     1       7.528   4.978  13.788  0.00  0.00    +0.000 A 
ATOM     17  N   UNL     1       6.954   4.147  12.913  0.00  0.00    +0.000 NA
ATOM     18  N   UNL     1       5.968   3.578  13.628  0.00  0.00    +0.000 N 
ATOM     19  C   UNL     1       5.894   4.012  14.926  0.00  0.00    +0.000 A 
ATOM     20  C   UNL     1       5.034   3.664  15.974  0.00  0.00    +0.000 A 
ATOM     21  H   UNL     1       5.377   2.892  13.176  0.00  0.00    +0.000 HD
ENDBRANCH   8  12
BRANCH   1  22
ATOM     22  C   UNL     1       1.888   8.536  18.222  0.00  0.00    +0.000 C 
BRANCH  22  23
ATOM     23  C   UNL     1       1.390   9.991  18.318  0.00  0.00    +0.000 C 
BRANCH  23  24
ATOM     24  N   UNL     1       2.220  10.911  17.521  0.00  0.00    +0.000 NA
ATOM     25  H   UNL     1       1.696  11.774  17.373  0.00  0.00    +0.000 HD
ATOM     26  H   UNL     1       2.359  10.513  16.591  0.00  0.00    +0.000 HD
ENDBRANCH  23  24
ENDBRANCH  22  23
ENDBRANCH   1  22
TORSDOF 4
ENDMDL
MODEL 9
REMARK VINA RESULT:      -7.3      2.331      4.416
REMARK  Name = 
REMARK  4 active torsions:
REMARK  status: ('A' for Active; 'I' for Inactive)
REMARK    1  A    between atoms: N_1  and  C_2
REMARK    2  A    between atoms: C_2  and  C_3
REMARK    3  A    between atoms: C_3  and  N_4
REMARK    4  A    between atoms: C_11  and  C_12
REMARK                            x       y       z     vdW  Elec       q    Type
REMARK                         _______ _______ _______ _____ _____    ______ ____
ROOT
ATOM      1  N   UNL     1       2.672   2.460  19.409  0.00  0.00    +0.000 N 
ATOM      2  C   UNL     1       3.295   3.418  18.635  0.00  0.00    +0.000 A 
ATOM      3  C   UNL     1       4.420   2.976  17.737  0.00  0.00    +0.000 A 
ATOM      4  C   UNL     1       4.963   3.913  16.948  0.00  0.00    +0.000 A 
ATOM      5  N   UNL     1       4.514   5.222  17.005  0.00  0.00    +0.000 N 
ATOM      6  N   UNL     1       4.954   6.267  16.265  0.00  0.00    +0.000 NA
ATOM      7  C   UNL     1       4.247   7.304  16.716  0.00  0.00    +0.000 A 
ATOM      8  C   UNL     1       3.343   6.959  17.744  0.00  0.00    +0.000 A 
ATOM      9  C   UNL     1       3.502   5.590  17.894  0.00  0.00    +0.000 A 
ATOM     10  N   UNL     1       2.889   4.664  18.698  0.00  0.00    +0.000 NA
ATOM     11  H   UNL     1       2.865   1.492  19.159  0.00  0.00    +0.000 HD
ENDROOT
BRANCH   8  12
ATOM     12  C   UNL     1       2.429   7.818  18.486  0.00  0.00    +0.000 A 
ATOM     13  C   UNL     1       2.175   7.545  19.841  0.00  0.00    +0.000 A 
ATOM     14  C   UNL     1       1.343   8.370  20.615  0.00  0.00    +0.000 A 
ATOM     15  C   UNL     1       0.754   9.488  20.006  0.00  0.00    +0.000 A 
ATOM     16  C   UNL     1      -0.104  10.536  20.406  0.00  0.00    +0.000 A 
ATOM     17  N   UNL     1      -0.379  11.387  19.414  0.00  0.00    +0.000 NA
ATOM     18  N   UNL     1       0.304  10.880  18.373  0.00  0.00    +0.000 N 
ATOM     19  C   UNL     1       1.007   9.740  18.664  0.00  0.00    +0.000 A 
ATOM     20  C   UNL     1       1.832   8.932  17.876  0.00  0.00    +0.000 A 
ATOM     21  H   UNL     1       0.258  11.362  17.483  0.00  0.00    +0.000 HD
ENDBRANCH   8  12
BRANCH   1  22
ATOM     22  C   UNL     1       1.280   2.612  19.823  0.00  0.00    +0.000 C 
BRANCH  22  23
ATOM     23  C   UNL     1       1.202   2.835  21.346  0.00  0.00    +0.000 C 
BRANCH  23  24
ATOM     24  N   UNL     1       2.510   2.650  21.997  0.00  0.00    +0.000 NA
ATOM     25  H   UNL     1       3.116   3.430  21.736  0.00  0.00    +0.000 HD
ATOM     26  H   UNL     1       2.959   1.817  21.615  0.00  0.00    +0.000 HD
ENDBRANCH  23  24
ENDBRANCH  22  23
ENDBRANCH   1  22
TORSDOF 4
ENDMDL
