MODEL 1
REMARK VINA RESULT:      -6.9      0.000      0.000
REMARK  Name = 
REMARK  11 active torsions:
REMARK  status: ('A' for Active; 'I' for Inactive)
REMARK    1  A    between atoms: C_1  and  O_2
REMARK    2  A    between atoms: O_2  and  C_3
REMARK    3  A    between atoms: C_4  and  C_5
REMARK    4  A    between atoms: C_8  and  C_9
REMARK    5  A    between atoms: C_9  and  N_10
REMARK    6  A    between atoms: N_19  and  C_20
REMARK    7  A    between atoms: C_20  and  C_21
REMARK    8  A    between atoms: C_21  and  C_22
REMARK    9  A    between atoms: C_21  and  C_23
REMARK   10  A    between atoms: C_26  and  C_27
REMARK   11  A    between atoms: C_28  and  C_29
REMARK                            x       y       z     vdW  Elec       q    Type
REMARK                         _______ _______ _______ _____ _____    ______ ____
ROOT
ATOM      1  N   UNL     1      -1.572  12.031  21.779  0.00  0.00    +0.000 N 
ATOM      2  C   UNL     1      -0.746  11.052  21.250  0.00  0.00    +0.000 A 
ATOM      3  N   UNL     1       0.079  10.443  22.130  0.00  0.00    +0.000 NA
ATOM      4  C   UNL     1       0.987   9.595  21.666  0.00  0.00    +0.000 A 
ATOM      5  N   UNL     1       1.837   9.002  22.575  0.00  0.00    +0.000 N 
ATOM      6  N   UNL     1       1.182   9.342  20.386  0.00  0.00    +0.000 NA
ATOM      7  C   UNL     1       0.339   9.941  19.518  0.00  0.00    +0.000 A 
ATOM      8 CL   UNL     1       0.783   9.461  17.922  0.00  0.00    +0.000 Cl
ATOM      9  C   UNL     1      -0.695  10.807  19.863  0.00  0.00    +0.000 A 
ATOM     10  N   UNL     1      -1.687  11.412  18.996  0.00  0.00    +0.000 N 
ATOM     11  C   UNL     1      -2.692  12.214  19.562  0.00  0.00    +0.000 C 
ATOM     12  O   UNL     1      -3.719  12.540  18.962  0.00  0.00    +0.000 OA
ATOM     13  C   UNL     1      -2.294  12.907  20.862  0.00  0.00    +0.000 C 
ATOM     14  C   UNL     1      -1.396  14.092  20.482  0.00  0.00    +0.000 C 
ATOM     15  H   UNL     1       1.898   9.567  23.411  0.00  0.00    +0.000 HD
ATOM     16  H   UNL     1       2.703   8.749  22.122  0.00  0.00    +0.000 HD
ENDROOT
BRANCH   1  17
ATOM     17  C   UNL     1      -2.049  11.923  23.166  0.00  0.00    +0.000 C 
BRANCH  17  23
ATOM     18  C   UNL     1      -4.272  14.901  24.188  0.00  0.00    +0.000 A 
ATOM     19  C   UNL     1      -5.524  14.391  23.830  0.00  0.00    +0.000 A 
ATOM     20  C   UNL     1      -6.843  15.104  23.886  0.00  0.00    +0.000 C 
ATOM     21  C   UNL     1      -5.556  13.080  23.373  0.00  0.00    +0.000 A 
ATOM     22  N   UNL     1      -4.475  12.297  23.199  0.00  0.00    +0.000 NA
ATOM     23  C   UNL     1      -3.253  12.811  23.485  0.00  0.00    +0.000 A 
ATOM     24  C   UNL     1      -3.103  14.115  23.990  0.00  0.00    +0.000 A 
ATOM     25  C   UNL     1      -1.756  14.699  24.335  0.00  0.00    +0.000 C 
BRANCH  18  27
ATOM     26  C   UNL     1      -4.073  17.267  23.750  0.00  0.00    +0.000 C 
ATOM     27  O   UNL     1      -4.017  16.169  24.655  0.00  0.00    +0.000 OA
ENDBRANCH  18  27
ENDBRANCH  17  23
ENDBRANCH   1  17
BRANCH  10  28
ATOM     28  C   UNL     1      -1.633  11.411  17.540  0.00  0.00    +0.000 C 
BRANCH  28  29
ATOM     29  C   UNL     1      -2.246  10.212  16.794  0.00  0.00    +0.000 C 
ATOM     30  C   UNL     1      -3.315   9.472  17.599  0.00  0.00    +0.000 C 
ATOM     31  C   UNL     1      -2.868  10.727  15.487  0.00  0.00    +0.000 C 
ENDBRANCH  28  29
ENDBRANCH  10  28
TORSDOF 5
ENDMDL
MODEL 2
REMARK VINA RESULT:      -6.4      3.467      8.065
REMARK  Name = 
REMARK  11 active torsions:
REMARK  status: ('A' for Active; 'I' for Inactive)
REMARK    1  A    between atoms: C_1  and  O_2
REMARK    2  A    between atoms: O_2  and  C_3
REMARK    3  A    between atoms: C_4  and  C_5
REMARK    4  A    between atoms: C_8  and  C_9
REMARK    5  A    between atoms: C_9  and  N_10
REMARK    6  A    between atoms: N_19  and  C_20
REMARK    7  A    between atoms: C_20  and  C_21
REMARK    8  A    between atoms: C_21  and  C_22
REMARK    9  A    between atoms: C_21  and  C_23
REMARK   10  A    between atoms: C_26  and  C_27
REMARK   11  A    between atoms: C_28  and  C_29
REMARK                            x       y       z     vdW  Elec       q    Type
REMARK                         _______ _______ _______ _____ _____    ______ ____
ROOT
ATOM      1  N   UNL     1       0.646  10.977  19.403  0.00  0.00    +0.000 N 
ATOM      2  C   UNL     1      -0.685  11.179  19.070  0.00  0.00    +0.000 A 
ATOM      3  N   UNL     1      -0.975  11.112  17.751  0.00  0.00    +0.000 NA
ATOM      4  C   UNL     1      -2.199  11.428  17.355  0.00  0.00    +0.000 A 
ATOM      5  N   UNL     1      -2.471  11.380  16.004  0.00  0.00    +0.000 N 
ATOM      6  N   UNL     1      -3.152  11.863  18.158  0.00  0.00    +0.000 NA
ATOM      7  C   UNL     1      -2.856  11.906  19.475  0.00  0.00    +0.000 A 
ATOM      8 CL   UNL     1      -4.242  12.496  20.316  0.00  0.00    +0.000 Cl
ATOM      9  C   UNL     1      -1.636  11.550  20.041  0.00  0.00    +0.000 A 
ATOM     10  N   UNL     1      -1.280  11.488  21.445  0.00  0.00    +0.000 N 
ATOM     11  C   UNL     1      -0.000  11.039  21.808  0.00  0.00    +0.000 C 
ATOM     12  O   UNL     1       0.300  10.693  22.953  0.00  0.00    +0.000 OA
ATOM     13  C   UNL     1       1.081  11.290  20.761  0.00  0.00    +0.000 C 
ATOM     14  C   UNL     1       1.449  12.778  20.843  0.00  0.00    +0.000 C 
ATOM     15  H   UNL     1      -1.614  11.471  15.476  0.00  0.00    +0.000 HD
ATOM     16  H   UNL     1      -3.223  12.016  15.781  0.00  0.00    +0.000 HD
ENDROOT
BRANCH   1  17
ATOM     17  C   UNL     1       1.484  10.087  18.587  0.00  0.00    +0.000 C 
BRANCH  17  23
ATOM     18  C   UNL     1       2.563   6.429  19.146  0.00  0.00    +0.000 A 
ATOM     19  C   UNL     1       1.961   6.196  20.387  0.00  0.00    +0.000 A 
ATOM     20  C   UNL     1       2.073   4.960  21.230  0.00  0.00    +0.000 C 
ATOM     21  C   UNL     1       1.171   7.217  20.899  0.00  0.00    +0.000 A 
ATOM     22  N   UNL     1       0.994   8.419  20.320  0.00  0.00    +0.000 NA
ATOM     23  C   UNL     1       1.627   8.671  19.148  0.00  0.00    +0.000 A 
ATOM     24  C   UNL     1       2.422   7.698  18.518  0.00  0.00    +0.000 A 
ATOM     25  C   UNL     1       3.119   7.949  17.204  0.00  0.00    +0.000 C 
BRANCH  18  27
ATOM     26  C   UNL     1       2.809   4.460  17.771  0.00  0.00    +0.000 C 
ATOM     27  O   UNL     1       3.384   5.561  18.468  0.00  0.00    +0.000 OA
ENDBRANCH  18  27
ENDBRANCH  17  23
ENDBRANCH   1  17
BRANCH  10  28
ATOM     28  C   UNL     1      -2.085  12.031  22.532  0.00  0.00    +0.000 C 
BRANCH  28  29
ATOM     29  C   UNL     1      -1.735  13.434  23.062  0.00  0.00    +0.000 C 
ATOM     30  C   UNL     1      -1.640  14.495  21.966  0.00  0.00    +0.000 C 
ATOM     31  C   UNL     1      -2.815  13.849  24.072  0.00  0.00    +0.000 C 
ENDBRANCH  28  29
ENDBRANCH  10  28
TORSDOF 5
ENDMDL
MODEL 3
REMARK VINA RESULT:      -6.3      4.571      8.679
REMARK  Name = 
REMARK  11 active torsions:
REMARK  status: ('A' for Active; 'I' for Inactive)
REMARK    1  A    between atoms: C_1  and  O_2
REMARK    2  A    between atoms: O_2  and  C_3
REMARK    3  A    between atoms: C_4  and  C_5
REMARK    4  A    between atoms: C_8  and  C_9
REMARK    5  A    between atoms: C_9  and  N_10
REMARK    6  A    between atoms: N_19  and  C_20
REMARK    7  A    between atoms: C_20  and  C_21
REMARK    8  A    between atoms: C_21  and  C_22
REMARK    9  A    between atoms: C_21  and  C_23
REMARK   10  A    between atoms: C_26  and  C_27
REMARK   11  A    between atoms: C_28  and  C_29
REMARK                            x       y       z     vdW  Elec       q    Type
REMARK                         _______ _______ _______ _____ _____    ______ ____
ROOT
ATOM      1  N   UNL     1       1.665   8.827  19.757  0.00  0.00    +0.000 N 
ATOM      2  C   UNL     1       1.060   9.653  20.692  0.00  0.00    +0.000 A 
ATOM      3  N   UNL     1       0.771   9.078  21.881  0.00  0.00    +0.000 NA
ATOM      4  C   UNL     1       0.073   9.773  22.768  0.00  0.00    +0.000 A 
ATOM      5  N   UNL     1      -0.235   9.162  23.965  0.00  0.00    +0.000 N 
ATOM      6  N   UNL     1      -0.416  10.979  22.550  0.00  0.00    +0.000 NA
ATOM      7  C   UNL     1      -0.104  11.550  21.367  0.00  0.00    +0.000 A 
ATOM      8 CL   UNL     1      -0.843  13.108  21.313  0.00  0.00    +0.000 Cl
ATOM      9  C   UNL     1       0.667  10.966  20.366  0.00  0.00    +0.000 A 
ATOM     10  N   UNL     1       1.111  11.552  19.117  0.00  0.00    +0.000 N 
ATOM     11  C   UNL     1       1.943  10.804  18.267  0.00  0.00    +0.000 C 
ATOM     12  O   UNL     1       2.586  11.298  17.338  0.00  0.00    +0.000 OA
ATOM     13  C   UNL     1       1.767   9.292  18.378  0.00  0.00    +0.000 C 
ATOM     14  C   UNL     1       0.477   8.934  17.627  0.00  0.00    +0.000 C 
ATOM     15  H   UNL     1      -0.209   8.158  23.858  0.00  0.00    +0.000 HD
ATOM     16  H   UNL     1      -1.076   9.566  24.352  0.00  0.00    +0.000 HD
ENDROOT
BRANCH   1  17
ATOM     17  C   UNL     1       2.550   7.739  20.197  0.00  0.00    +0.000 C 
BRANCH  17  23
ATOM     18  C   UNL     1       2.250   4.412  18.275  0.00  0.00    +0.000 A 
ATOM     19  C   UNL     1       1.370   3.731  19.123  0.00  0.00    +0.000 A 
ATOM     20  C   UNL     1       0.905   2.310  18.995  0.00  0.00    +0.000 C 
ATOM     21  C   UNL     1       0.869   4.444  20.204  0.00  0.00    +0.000 A 
ATOM     22  N   UNL     1       1.210   5.707  20.520  0.00  0.00    +0.000 NA
ATOM     23  C   UNL     1       2.111   6.348  19.735  0.00  0.00    +0.000 A 
ATOM     24  C   UNL     1       2.657   5.737  18.592  0.00  0.00    +0.000 A 
ATOM     25  C   UNL     1       3.644   6.439  17.694  0.00  0.00    +0.000 C 
BRANCH  18  27
ATOM     26  C   UNL     1       3.996   3.047  17.319  0.00  0.00    +0.000 C 
ATOM     27  O   UNL     1       2.863   3.894  17.159  0.00  0.00    +0.000 OA
ENDBRANCH  18  27
ENDBRANCH  17  23
ENDBRANCH   1  17
BRANCH  10  28
ATOM     28  C   UNL     1       0.620  12.807  18.564  0.00  0.00    +0.000 C 
BRANCH  28  29
ATOM     29  C   UNL     1       1.514  14.055  18.693  0.00  0.00    +0.000 C 
ATOM     30  C   UNL     1       0.728  15.350  18.898  0.00  0.00    +0.000 C 
ATOM     31  C   UNL     1       2.460  13.846  19.884  0.00  0.00    +0.000 C 
ENDBRANCH  28  29
ENDBRANCH  10  28
TORSDOF 5
ENDMDL
MODEL 4
REMARK VINA RESULT:      -6.2      2.181      3.866
REMARK  Name = 
REMARK  11 active torsions:
REMARK  status: ('A' for Active; 'I' for Inactive)
REMARK    1  A    between atoms: C_1  and  O_2
REMARK    2  A    between atoms: O_2  and  C_3
REMARK    3  A    between atoms: C_4  and  C_5
REMARK    4  A    between atoms: C_8  and  C_9
REMARK    5  A    between atoms: C_9  and  N_10
REMARK    6  A    between atoms: N_19  and  C_20
REMARK    7  A    between atoms: C_20  and  C_21
REMARK    8  A    between atoms: C_21  and  C_22
REMARK    9  A    between atoms: C_21  and  C_23
REMARK   10  A    between atoms: C_26  and  C_27
REMARK   11  A    between atoms: C_28  and  C_29
REMARK                            x       y       z     vdW  Elec       q    Type
REMARK                         _______ _______ _______ _____ _____    ______ ____
ROOT
ATOM      1  N   UNL     1      -1.813  12.670  21.615  0.00  0.00    +0.000 N 
ATOM      2  C   UNL     1      -2.242  12.257  20.363  0.00  0.00    +0.000 A 
ATOM      3  N   UNL     1      -3.456  12.712  19.980  0.00  0.00    +0.000 NA
ATOM      4  C   UNL     1      -3.982  12.248  18.856  0.00  0.00    +0.000 A 
ATOM      5  N   UNL     1      -5.232  12.702  18.494  0.00  0.00    +0.000 N 
ATOM      6  N   UNL     1      -3.423  11.320  18.101  0.00  0.00    +0.000 NA
ATOM      7  C   UNL     1      -2.202  10.888  18.483  0.00  0.00    +0.000 A 
ATOM      8 CL   UNL     1      -1.679   9.694  17.353  0.00  0.00    +0.000 Cl
ATOM      9  C   UNL     1      -1.504  11.327  19.604  0.00  0.00    +0.000 A 
ATOM     10  N   UNL     1      -0.162  10.974  20.022  0.00  0.00    +0.000 N 
ATOM     11  C   UNL     1       0.383  11.585  21.164  0.00  0.00    +0.000 C 
ATOM     12  O   UNL     1       1.585  11.564  21.438  0.00  0.00    +0.000 OA
ATOM     13  C   UNL     1      -0.647  12.019  22.202  0.00  0.00    +0.000 C 
ATOM     14  C   UNL     1      -1.095  10.754  22.947  0.00  0.00    +0.000 C 
ATOM     15  H   UNL     1      -5.727  13.035  19.309  0.00  0.00    +0.000 HD
ATOM     16  H   UNL     1      -5.696  12.014  17.918  0.00  0.00    +0.000 HD
ENDROOT
BRANCH   1  17
ATOM     17  C   UNL     1      -2.223  13.980  22.140  0.00  0.00    +0.000 C 
BRANCH  17  23
ATOM     18  C   UNL     1      -5.872  14.923  22.950  0.00  0.00    +0.000 A 
ATOM     19  C   UNL     1      -6.233  13.813  23.721  0.00  0.00    +0.000 A 
ATOM     20  C   UNL     1      -7.588  13.506  24.288  0.00  0.00    +0.000 C 
ATOM     21  C   UNL     1      -5.231  12.892  23.997  0.00  0.00    +0.000 A 
ATOM     22  N   UNL     1      -3.970  12.962  23.533  0.00  0.00    +0.000 NA
ATOM     23  C   UNL     1      -3.634  14.004  22.733  0.00  0.00    +0.000 A 
ATOM     24  C   UNL     1      -4.557  15.016  22.417  0.00  0.00    +0.000 A 
ATOM     25  C   UNL     1      -4.198  16.195  21.546  0.00  0.00    +0.000 C 
BRANCH  18  27
ATOM     26  C   UNL     1      -7.680  15.696  21.550  0.00  0.00    +0.000 C 
ATOM     27  O   UNL     1      -6.705  15.943  22.558  0.00  0.00    +0.000 OA
ENDBRANCH  18  27
ENDBRANCH  17  23
ENDBRANCH   1  17
BRANCH  10  28
ATOM     28  C   UNL     1       0.628   9.888  19.457  0.00  0.00    +0.000 C 
BRANCH  28  29
ATOM     29  C   UNL     1       1.373  10.146  18.133  0.00  0.00    +0.000 C 
ATOM     30  C   UNL     1       2.243  11.402  18.157  0.00  0.00    +0.000 C 
ATOM     31  C   UNL     1       2.258   8.927  17.835  0.00  0.00    +0.000 C 
ENDBRANCH  28  29
ENDBRANCH  10  28
TORSDOF 5
ENDMDL
MODEL 5
REMARK VINA RESULT:      -6.2      1.079      2.090
REMARK  Name = 
REMARK  11 active torsions:
REMARK  status: ('A' for Active; 'I' for Inactive)
REMARK    1  A    between atoms: C_1  and  O_2
REMARK    2  A    between atoms: O_2  and  C_3
REMARK    3  A    between atoms: C_4  and  C_5
REMARK    4  A    between atoms: C_8  and  C_9
REMARK    5  A    between atoms: C_9  and  N_10
REMARK    6  A    between atoms: N_19  and  C_20
REMARK    7  A    between atoms: C_20  and  C_21
REMARK    8  A    between atoms: C_21  and  C_22
REMARK    9  A    between atoms: C_21  and  C_23
REMARK   10  A    between atoms: C_26  and  C_27
REMARK   11  A    between atoms: C_28  and  C_29
REMARK                            x       y       z     vdW  Elec       q    Type
REMARK                         _______ _______ _______ _____ _____    ______ ____
ROOT
ATOM      1  N   UNL     1      -1.290  12.382  21.788  0.00  0.00    +0.000 N 
ATOM      2  C   UNL     1      -0.612  11.295  21.258  0.00  0.00    +0.000 A 
ATOM      3  N   UNL     1       0.224  10.656  22.105  0.00  0.00    +0.000 NA
ATOM      4  C   UNL     1       1.001   9.695  21.626  0.00  0.00    +0.000 A 
ATOM      5  N   UNL     1       1.867   9.071  22.499  0.00  0.00    +0.000 N 
ATOM      6  N   UNL     1       1.059   9.351  20.353  0.00  0.00    +0.000 NA
ATOM      7  C   UNL     1       0.205   9.983  19.519  0.00  0.00    +0.000 A 
ATOM      8 CL   UNL     1       0.459   9.371  17.927  0.00  0.00    +0.000 Cl
ATOM      9  C   UNL     1      -0.706  10.968  19.890  0.00  0.00    +0.000 A 
ATOM     10  N   UNL     1      -1.707  11.621  19.070  0.00  0.00    +0.000 N 
ATOM     11  C   UNL     1      -2.576  12.552  19.662  0.00  0.00    +0.000 C 
ATOM     12  O   UNL     1      -3.616  12.947  19.128  0.00  0.00    +0.000 OA
ATOM     13  C   UNL     1      -2.001  13.273  20.878  0.00  0.00    +0.000 C 
ATOM     14  C   UNL     1      -1.029  14.338  20.350  0.00  0.00    +0.000 C 
ATOM     15  H   UNL     1       2.055   9.673  23.288  0.00  0.00    +0.000 HD
ATOM     16  H   UNL     1       2.661   8.706  21.994  0.00  0.00    +0.000 HD
ENDROOT
BRANCH   1  17
ATOM     17  C   UNL     1      -1.651  12.402  23.213  0.00  0.00    +0.000 C 
BRANCH  17  23
ATOM     18  C   UNL     1      -3.366  15.548  24.634  0.00  0.00    +0.000 A 
ATOM     19  C   UNL     1      -2.234  16.291  24.985  0.00  0.00    +0.000 A 
ATOM     20  C   UNL     1      -2.202  17.614  25.692  0.00  0.00    +0.000 C 
ATOM     21  C   UNL     1      -1.001  15.750  24.644  0.00  0.00    +0.000 A 
ATOM     22  N   UNL     1      -0.821  14.552  24.059  0.00  0.00    +0.000 NA
ATOM     23  C   UNL     1      -1.913  13.801  23.774  0.00  0.00    +0.000 A 
ATOM     24  C   UNL     1      -3.214  14.264  24.041  0.00  0.00    +0.000 A 
ATOM     25  C   UNL     1      -4.444  13.455  23.714  0.00  0.00    +0.000 C 
BRANCH  18  27
ATOM     26  C   UNL     1      -5.292  16.893  24.078  0.00  0.00    +0.000 C 
ATOM     27  O   UNL     1      -4.672  15.895  24.883  0.00  0.00    +0.000 OA
ENDBRANCH  18  27
ENDBRANCH  17  23
ENDBRANCH   1  17
BRANCH  10  28
ATOM     28  C   UNL     1      -1.781  11.532  17.617  0.00  0.00    +0.000 C 
BRANCH  28  29
ATOM     29  C   UNL     1      -3.021  10.863  16.995  0.00  0.00    +0.000 C 
ATOM     30  C   UNL     1      -2.888  10.609  15.494  0.00  0.00    +0.000 C 
ATOM     31  C   UNL     1      -3.256   9.526  17.713  0.00  0.00    +0.000 C 
ENDBRANCH  28  29
ENDBRANCH  10  28
TORSDOF 5
ENDMDL
MODEL 6
REMARK VINA RESULT:      -6.2      2.241      3.978
REMARK  Name = 
REMARK  11 active torsions:
REMARK  status: ('A' for Active; 'I' for Inactive)
REMARK    1  A    between atoms: C_1  and  O_2
REMARK    2  A    between atoms: O_2  and  C_3
REMARK    3  A    between atoms: C_4  and  C_5
REMARK    4  A    between atoms: C_8  and  C_9
REMARK    5  A    between atoms: C_9  and  N_10
REMARK    6  A    between atoms: N_19  and  C_20
REMARK    7  A    between atoms: C_20  and  C_21
REMARK    8  A    between atoms: C_21  and  C_22
REMARK    9  A    between atoms: C_21  and  C_23
REMARK   10  A    between atoms: C_26  and  C_27
REMARK   11  A    between atoms: C_28  and  C_29
REMARK                            x       y       z     vdW  Elec       q    Type
REMARK                         _______ _______ _______ _____ _____    ______ ____
ROOT
ATOM      1  N   UNL     1      -2.022  13.002  21.344  0.00  0.00    +0.000 N 
ATOM      2  C   UNL     1      -2.340  12.400  20.136  0.00  0.00    +0.000 A 
ATOM      3  N   UNL     1      -3.569  12.679  19.648  0.00  0.00    +0.000 NA
ATOM      4  C   UNL     1      -3.986  12.032  18.569  0.00  0.00    +0.000 A 
ATOM      5  N   UNL     1      -5.252  12.310  18.101  0.00  0.00    +0.000 N 
ATOM      6  N   UNL     1      -3.300  11.082  17.962  0.00  0.00    +0.000 NA
ATOM      7  C   UNL     1      -2.066  10.825  18.446  0.00  0.00    +0.000 A 
ATOM      8 CL   UNL     1      -1.370   9.563  17.499  0.00  0.00    +0.000 Cl
ATOM      9  C   UNL     1      -1.476  11.465  19.533  0.00  0.00    +0.000 A 
ATOM     10  N   UNL     1      -0.131  11.303  20.048  0.00  0.00    +0.000 N 
ATOM     11  C   UNL     1       0.289  12.099  21.127  0.00  0.00    +0.000 C 
ATOM     12  O   UNL     1       1.471  12.233  21.453  0.00  0.00    +0.000 OA
ATOM     13  C   UNL     1      -0.833  12.549  22.058  0.00  0.00    +0.000 C 
ATOM     14  C   UNL     1      -1.199  11.343  22.935  0.00  0.00    +0.000 C 
ATOM     15  H   UNL     1      -5.821  12.687  18.845  0.00  0.00    +0.000 HD
ATOM     16  H   UNL     1      -5.615  11.514  17.596  0.00  0.00    +0.000 HD
ENDROOT
BRANCH   1  17
ATOM     17  C   UNL     1      -2.584  14.317  21.683  0.00  0.00    +0.000 C 
BRANCH  17  23
ATOM     18  C   UNL     1      -6.261  14.931  22.663  0.00  0.00    +0.000 A 
ATOM     19  C   UNL     1      -6.429  13.900  23.594  0.00  0.00    +0.000 A 
ATOM     20  C   UNL     1      -7.695  13.517  24.303  0.00  0.00    +0.000 C 
ATOM     21  C   UNL     1      -5.304  13.146  23.900  0.00  0.00    +0.000 A 
ATOM     22  N   UNL     1      -4.094  13.299  23.329  0.00  0.00    +0.000 NA
ATOM     23  C   UNL     1      -3.945  14.256  22.381  0.00  0.00    +0.000 A 
ATOM     24  C   UNL     1      -5.006  15.104  22.017  0.00  0.00    +0.000 A 
ATOM     25  C   UNL     1      -4.856  16.189  20.980  0.00  0.00    +0.000 C 
BRANCH  18  27
ATOM     26  C   UNL     1      -7.675  16.846  23.061  0.00  0.00    +0.000 C 
ATOM     27  O   UNL     1      -7.240  15.786  22.216  0.00  0.00    +0.000 OA
ENDBRANCH  18  27
ENDBRANCH  17  23
ENDBRANCH   1  17
BRANCH  10  28
ATOM     28  C   UNL     1       0.789  10.242  19.658  0.00  0.00    +0.000 C 
BRANCH  28  29
ATOM     29  C   UNL     1       1.048   9.103  20.662  0.00  0.00    +0.000 C 
ATOM     30  C   UNL     1      -0.229   8.513  21.260  0.00  0.00    +0.000 C 
ATOM     31  C   UNL     1       1.825   7.993  19.938  0.00  0.00    +0.000 C 
ENDBRANCH  28  29
ENDBRANCH  10  28
TORSDOF 5
ENDMDL
MODEL 7
REMARK VINA RESULT:      -6.1      2.869      7.338
REMARK  Name = 
REMARK  11 active torsions:
REMARK  status: ('A' for Active; 'I' for Inactive)
REMARK    1  A    between atoms: C_1  and  O_2
REMARK    2  A    between atoms: O_2  and  C_3
REMARK    3  A    between atoms: C_4  and  C_5
REMARK    4  A    between atoms: C_8  and  C_9
REMARK    5  A    between atoms: C_9  and  N_10
REMARK    6  A    between atoms: N_19  and  C_20
REMARK    7  A    between atoms: C_20  and  C_21
REMARK    8  A    between atoms: C_21  and  C_22
REMARK    9  A    between atoms: C_21  and  C_23
REMARK   10  A    between atoms: C_26  and  C_27
REMARK   11  A    between atoms: C_28  and  C_29
REMARK                            x       y       z     vdW  Elec       q    Type
REMARK                         _______ _______ _______ _____ _____    ______ ____
ROOT
ATOM      1  N   UNL     1      -0.088  12.377  20.220  0.00  0.00    +0.000 N 
ATOM      2  C   UNL     1      -1.278  12.071  19.576  0.00  0.00    +0.000 A 
ATOM      3  N   UNL     1      -1.176  11.791  18.258  0.00  0.00    +0.000 NA
ATOM      4  C   UNL     1      -2.288  11.622  17.557  0.00  0.00    +0.000 A 
ATOM      5  N   UNL     1      -2.166  11.363  16.209  0.00  0.00    +0.000 N 
ATOM      6  N   UNL     1      -3.505  11.766  18.048  0.00  0.00    +0.000 NA
ATOM      7  C   UNL     1      -3.594  12.026  19.370  0.00  0.00    +0.000 A 
ATOM      8 CL   UNL     1      -5.265  12.166  19.776  0.00  0.00    +0.000 Cl
ATOM      9  C   UNL     1      -2.517  12.170  20.239  0.00  0.00    +0.000 A 
ATOM     10  N   UNL     1      -2.542  12.361  21.676  0.00  0.00    +0.000 N 
ATOM     11  C   UNL     1      -1.327  12.421  22.380  0.00  0.00    +0.000 C 
ATOM     12  O   UNL     1      -1.245  12.305  23.605  0.00  0.00    +0.000 OA
ATOM     13  C   UNL     1      -0.147  12.940  21.564  0.00  0.00    +0.000 C 
ATOM     14  C   UNL     1      -0.304  14.464  21.467  0.00  0.00    +0.000 C 
ATOM     15  H   UNL     1      -1.276  11.700  15.871  0.00  0.00    +0.000 HD
ATOM     16  H   UNL     1      -2.995  11.673  15.722  0.00  0.00    +0.000 HD
ENDROOT
BRANCH   1  17
ATOM     17  C   UNL     1       1.171  11.767  19.769  0.00  0.00    +0.000 C 
BRANCH  17  23
ATOM     18  C   UNL     1       1.745   8.000  19.187  0.00  0.00    +0.000 A 
ATOM     19  C   UNL     1       1.497   7.525  20.479  0.00  0.00    +0.000 A 
ATOM     20  C   UNL     1       1.641   6.114  20.968  0.00  0.00    +0.000 C 
ATOM     21  C   UNL     1       1.068   8.456  21.416  0.00  0.00    +0.000 A 
ATOM     22  N   UNL     1       0.933   9.776  21.185  0.00  0.00    +0.000 NA
ATOM     23  C   UNL     1       1.233  10.249  19.950  0.00  0.00    +0.000 A 
ATOM     24  C   UNL     1       1.641   9.392  18.913  0.00  0.00    +0.000 A 
ATOM     25  C   UNL     1       1.960   9.895  17.527  0.00  0.00    +0.000 C 
BRANCH  18  27
ATOM     26  C   UNL     1       3.511   6.747  18.120  0.00  0.00    +0.000 C 
ATOM     27  O   UNL     1       2.180   7.253  18.119  0.00  0.00    +0.000 OA
ENDBRANCH  18  27
ENDBRANCH  17  23
ENDBRANCH   1  17
BRANCH  10  28
ATOM     28  C   UNL     1      -3.732  12.682  22.454  0.00  0.00    +0.000 C 
BRANCH  28  29
ATOM     29  C   UNL     1      -3.967  14.153  22.843  0.00  0.00    +0.000 C 
ATOM     30  C   UNL     1      -4.080  15.093  21.643  0.00  0.00    +0.000 C 
ATOM     31  C   UNL     1      -5.262  14.230  23.665  0.00  0.00    +0.000 C 
ENDBRANCH  28  29
ENDBRANCH  10  28
TORSDOF 5
ENDMDL
MODEL 8
REMARK VINA RESULT:      -6.1      2.811      6.709
REMARK  Name = 
REMARK  11 active torsions:
REMARK  status: ('A' for Active; 'I' for Inactive)
REMARK    1  A    between atoms: C_1  and  O_2
REMARK    2  A    between atoms: O_2  and  C_3
REMARK    3  A    between atoms: C_4  and  C_5
REMARK    4  A    between atoms: C_8  and  C_9
REMARK    5  A    between atoms: C_9  and  N_10
REMARK    6  A    between atoms: N_19  and  C_20
REMARK    7  A    between atoms: C_20  and  C_21
REMARK    8  A    between atoms: C_21  and  C_22
REMARK    9  A    between atoms: C_21  and  C_23
REMARK   10  A    between atoms: C_26  and  C_27
REMARK   11  A    between atoms: C_28  and  C_29
REMARK                            x       y       z     vdW  Elec       q    Type
REMARK                         _______ _______ _______ _____ _____    ______ ____
ROOT
ATOM      1  N   UNL     1      -2.206  13.035  20.241  0.00  0.00    +0.000 N 
ATOM      2  C   UNL     1      -2.932  12.316  19.303  0.00  0.00    +0.000 A 
ATOM      3  N   UNL     1      -2.296  12.067  18.137  0.00  0.00    +0.000 NA
ATOM      4  C   UNL     1      -2.979  11.503  17.151  0.00  0.00    +0.000 A 
ATOM      5  N   UNL     1      -2.322  11.279  15.960  0.00  0.00    +0.000 N 
ATOM      6  N   UNL     1      -4.265  11.216  17.206  0.00  0.00    +0.000 NA
ATOM      7  C   UNL     1      -4.885  11.451  18.383  0.00  0.00    +0.000 A 
ATOM      8 CL   UNL     1      -6.541  10.999  18.216  0.00  0.00    +0.000 Cl
ATOM      9  C   UNL     1      -4.283  11.983  19.520  0.00  0.00    +0.000 A 
ATOM     10  N   UNL     1      -4.862  12.179  20.834  0.00  0.00    +0.000 N 
ATOM     11  C   UNL     1      -4.056  12.678  21.871  0.00  0.00    +0.000 C 
ATOM     12  O   UNL     1      -4.368  12.620  23.062  0.00  0.00    +0.000 OA
ATOM     13  C   UNL     1      -2.905  13.566  21.407  0.00  0.00    +0.000 C 
ATOM     14  C   UNL     1      -3.507  14.934  21.056  0.00  0.00    +0.000 C 
ATOM     15  H   UNL     1      -1.532  11.904  15.878  0.00  0.00    +0.000 HD
ATOM     16  H   UNL     1      -2.984  11.267  15.197  0.00  0.00    +0.000 HD
ENDROOT
BRANCH   1  17
ATOM     17  C   UNL     1      -0.743  12.903  20.301  0.00  0.00    +0.000 C 
BRANCH  17  23
ATOM     18  C   UNL     1       1.205   9.625  19.739  0.00  0.00    +0.000 A 
ATOM     19  C   UNL     1       0.706   8.871  20.806  0.00  0.00    +0.000 A 
ATOM     20  C   UNL     1       1.134   7.494  21.221  0.00  0.00    +0.000 C 
ATOM     21  C   UNL     1      -0.297   9.456  21.568  0.00  0.00    +0.000 A 
ATOM     22  N   UNL     1      -0.774  10.702  21.389  0.00  0.00    +0.000 NA
ATOM     23  C   UNL     1      -0.248  11.458  20.394  0.00  0.00    +0.000 A 
ATOM     24  C   UNL     1       0.746  10.956  19.536  0.00  0.00    +0.000 A 
ATOM     25  C   UNL     1       1.331  11.772  18.410  0.00  0.00    +0.000 C 
BRANCH  18  27
ATOM     26  C   UNL     1       1.890   8.324  17.824  0.00  0.00    +0.000 C 
ATOM     27  O   UNL     1       2.198   9.240  18.869  0.00  0.00    +0.000 OA
ENDBRANCH  18  27
ENDBRANCH  17  23
ENDBRANCH   1  17
BRANCH  10  28
ATOM     28  C   UNL     1      -6.283  12.072  21.143  0.00  0.00    +0.000 C 
BRANCH  28  29
ATOM     29  C   UNL     1      -7.036  13.356  21.539  0.00  0.00    +0.000 C 
ATOM     30  C   UNL     1      -7.916  13.916  20.421  0.00  0.00    +0.000 C 
ATOM     31  C   UNL     1      -7.914  13.041  22.759  0.00  0.00    +0.000 C 
ENDBRANCH  28  29
ENDBRANCH  10  28
TORSDOF 5
ENDMDL
MODEL 9
REMARK VINA RESULT:      -6.0      3.438      6.314
REMARK  Name = 
REMARK  11 active torsions:
REMARK  status: ('A' for Active; 'I' for Inactive)
REMARK    1  A    between atoms: C_1  and  O_2
REMARK    2  A    between atoms: O_2  and  C_3
REMARK    3  A    between atoms: C_4  and  C_5
REMARK    4  A    between atoms: C_8  and  C_9
REMARK    5  A    between atoms: C_9  and  N_10
REMARK    6  A    between atoms: N_19  and  C_20
REMARK    7  A    between atoms: C_20  and  C_21
REMARK    8  A    between atoms: C_21  and  C_22
REMARK    9  A    between atoms: C_21  and  C_23
REMARK   10  A    between atoms: C_26  and  C_27
REMARK   11  A    between atoms: C_28  and  C_29
REMARK                            x       y       z     vdW  Elec       q    Type
REMARK                         _______ _______ _______ _____ _____    ______ ____
ROOT
ATOM      1  N   UNL     1      -2.391  12.528  20.290  0.00  0.00    +0.000 N 
ATOM      2  C   UNL     1      -3.173  12.096  19.229  0.00  0.00    +0.000 A 
ATOM      3  N   UNL     1      -2.500  11.727  18.117  0.00  0.00    +0.000 NA
ATOM      4  C   UNL     1      -3.191  11.433  17.025  0.00  0.00    +0.000 A 
ATOM      5  N   UNL     1      -2.488  11.084  15.893  0.00  0.00    +0.000 N 
ATOM      6  N   UNL     1      -4.504  11.531  16.928  0.00  0.00    +0.000 NA
ATOM      7  C   UNL     1      -5.167  11.881  18.051  0.00  0.00    +0.000 A 
ATOM      8 CL   UNL     1      -6.851  11.938  17.683  0.00  0.00    +0.000 Cl
ATOM      9  C   UNL     1      -4.580  12.161  19.282  0.00  0.00    +0.000 A 
ATOM     10  N   UNL     1      -5.232  12.455  20.542  0.00  0.00    +0.000 N 
ATOM     11  C   UNL     1      -4.447  12.649  21.691  0.00  0.00    +0.000 C 
ATOM     12  O   UNL     1      -4.902  12.629  22.837  0.00  0.00    +0.000 OA
ATOM     13  C   UNL     1      -3.044  13.184  21.417  0.00  0.00    +0.000 C 
ATOM     14  C   UNL     1      -3.187  14.683  21.117  0.00  0.00    +0.000 C 
ATOM     15  H   UNL     1      -1.549  11.454  15.941  0.00  0.00    +0.000 HD
ATOM     16  H   UNL     1      -3.031  11.301  15.069  0.00  0.00    +0.000 HD
ENDROOT
BRANCH   1  17
ATOM     17  C   UNL     1      -1.044  11.973  20.486  0.00  0.00    +0.000 C 
BRANCH  17  23
ATOM     18  C   UNL     1       1.792  14.566  20.186  0.00  0.00    +0.000 A 
ATOM     19  C   UNL     1       2.258  14.253  18.905  0.00  0.00    +0.000 A 
ATOM     20  C   UNL     1       3.443  14.849  18.201  0.00  0.00    +0.000 C 
ATOM     21  C   UNL     1       1.551  13.287  18.201  0.00  0.00    +0.000 A 
ATOM     22  N   UNL     1       0.498  12.600  18.682  0.00  0.00    +0.000 NA
ATOM     23  C   UNL     1       0.083  12.857  19.947  0.00  0.00    +0.000 A 
ATOM     24  C   UNL     1       0.701  13.841  20.739  0.00  0.00    +0.000 A 
ATOM     25  C   UNL     1       0.242  14.157  22.140  0.00  0.00    +0.000 C 
BRANCH  18  27
ATOM     26  C   UNL     1       2.134  16.871  20.817  0.00  0.00    +0.000 C 
ATOM     27  O   UNL     1       2.346  15.482  21.048  0.00  0.00    +0.000 OA
ENDBRANCH  18  27
ENDBRANCH  17  23
ENDBRANCH   1  17
BRANCH  10  28
ATOM     28  C   UNL     1      -6.650  12.752  20.697  0.00  0.00    +0.000 C 
BRANCH  28  29
ATOM     29  C   UNL     1      -7.067  14.224  20.872  0.00  0.00    +0.000 C 
ATOM     30  C   UNL     1      -7.902  14.765  19.711  0.00  0.00    +0.000 C 
ATOM     31  C   UNL     1      -7.877  14.342  22.172  0.00  0.00    +0.000 C 
ENDBRANCH  28  29
ENDBRANCH  10  28
TORSDOF 5
ENDMDL
