MODEL 1
REMARK VINA RESULT:      -7.4      0.000      0.000
REMARK  Name = 
REMARK  7 active torsions:
REMARK  status: ('A' for Active; 'I' for Inactive)
REMARK    1  A    between atoms: C_1  and  O_2
REMARK    2  A    between atoms: O_2  and  C_3
REMARK    3  A    between atoms: C_3  and  C_4
REMARK    4  A    between atoms: C_4  and  C_5
REMARK    5  A    between atoms: C_4  and  N_23
REMARK    6  A    between atoms: N_10  and  C_11
REMARK    7  A    between atoms: C_14  and  C_15
REMARK                            x       y       z     vdW  Elec       q    Type
REMARK                         _______ _______ _______ _____ _____    ______ ____
ROOT
ATOM      1  C   UNL     1       3.436   5.244  19.069  0.00  0.00    +0.000 C 
ATOM      2  O   UNL     1       3.680   4.682  20.150  0.00  0.00    +0.000 OA
ATOM      3  N   UNL     1       2.349   6.102  18.992  0.00  0.00    +0.000 N 
ATOM      4  C   UNL     1       1.550   6.328  20.216  0.00  0.00    +0.000 C 
ATOM      5  C   UNL     1       1.819   7.729  20.795  0.00  0.00    +0.000 C 
ATOM      6  N   UNL     1       1.632   8.770  19.762  0.00  0.00    +0.000 N 
ATOM      7  C   UNL     1       2.351   8.537  18.495  0.00  0.00    +0.000 C 
ATOM      8  C   UNL     1       2.072   7.111  17.968  0.00  0.00    +0.000 C 
ENDROOT
BRANCH   6   9
ATOM      9  C   UNL     1       0.611   9.699  19.824  0.00  0.00    +0.000 A 
ATOM     10  C   UNL     1       0.219  10.253  21.054  0.00  0.00    +0.000 A 
ATOM     11  C   UNL     1      -0.840  11.163  21.156  0.00  0.00    +0.000 A 
ATOM     12  C   UNL     1      -1.542  11.564  20.015  0.00  0.00    +0.000 A 
ATOM     13  C   UNL     1      -1.155  11.034  18.779  0.00  0.00    +0.000 A 
ATOM     14  C   UNL     1      -0.101  10.116  18.691  0.00  0.00    +0.000 A 
BRANCH  12  15
ATOM     15  C   UNL     1      -2.693  12.537  20.099  0.00  0.00    +0.000 C 
ATOM     16  F   UNL     1      -2.313  13.842  20.002  0.00  0.00    +0.000 F 
ATOM     17  F   UNL     1      -3.612  12.343  19.112  0.00  0.00    +0.000 F 
ATOM     18  F   UNL     1      -3.377  12.434  21.272  0.00  0.00    +0.000 F 
ENDBRANCH  12  15
ENDBRANCH   6   9
BRANCH   1  19
ATOM     19  C   UNL     1       4.434   5.016  17.899  0.00  0.00    +0.000 C 
BRANCH  19  20
ATOM     20  N   UNL     1       5.687   5.793  17.958  0.00  0.00    +0.000 N 
ATOM     21  C   UNL     1       6.697   5.642  18.866  0.00  0.00    +0.000 C 
ATOM     22  O   UNL     1       6.717   4.910  19.845  0.00  0.00    +0.000 OA
ATOM     23  C   UNL     1       7.825   6.561  18.523  0.00  0.00    +0.000 C 
ATOM     24  C   UNL     1       7.478   7.060  17.140  0.00  0.00    +0.000 C 
ATOM     25  C   UNL     1       6.065   6.608  16.923  0.00  0.00    +0.000 C 
ATOM     26  O   UNL     1       5.397   6.901  15.950  0.00  0.00    +0.000 OA
ENDBRANCH  19  20
BRANCH  19  27
ATOM     27  C   UNL     1       4.657   3.515  17.640  0.00  0.00    +0.000 C 
BRANCH  27  29
ATOM     28  C   UNL     1       3.541   1.581  18.363  0.00  0.00    +0.000 C 
ATOM     29  O   UNL     1       3.446   2.763  17.571  0.00  0.00    +0.000 OA
ENDBRANCH  27  29
ENDBRANCH  19  27
ENDBRANCH   1  19
TORSDOF 6
ENDMDL
MODEL 2
REMARK VINA RESULT:      -7.3      1.552      2.204
REMARK  Name = 
REMARK  7 active torsions:
REMARK  status: ('A' for Active; 'I' for Inactive)
REMARK    1  A    between atoms: C_1  and  O_2
REMARK    2  A    between atoms: O_2  and  C_3
REMARK    3  A    between atoms: C_3  and  C_4
REMARK    4  A    between atoms: C_4  and  C_5
REMARK    5  A    between atoms: C_4  and  N_23
REMARK    6  A    between atoms: N_10  and  C_11
REMARK    7  A    between atoms: C_14  and  C_15
REMARK                            x       y       z     vdW  Elec       q    Type
REMARK                         _______ _______ _______ _____ _____    ______ ____
ROOT
ATOM      1  C   UNL     1       3.322   4.593  17.938  0.00  0.00    +0.000 C 
ATOM      2  O   UNL     1       3.251   3.499  18.520  0.00  0.00    +0.000 OA
ATOM      3  N   UNL     1       2.420   5.591  18.277  0.00  0.00    +0.000 N 
ATOM      4  C   UNL     1       1.434   5.308  19.342  0.00  0.00    +0.000 C 
ATOM      5  C   UNL     1       1.796   6.062  20.636  0.00  0.00    +0.000 C 
ATOM      6  N   UNL     1       1.987   7.503  20.370  0.00  0.00    +0.000 N 
ATOM      7  C   UNL     1       2.904   7.823  19.259  0.00  0.00    +0.000 C 
ATOM      8  C   UNL     1       2.518   7.024  17.993  0.00  0.00    +0.000 C 
ENDROOT
BRANCH   6   9
ATOM      9  C   UNL     1       1.132   8.468  20.869  0.00  0.00    +0.000 A 
ATOM     10  C   UNL     1       0.678   9.515  20.050  0.00  0.00    +0.000 A 
ATOM     11  C   UNL     1      -0.153  10.532  20.536  0.00  0.00    +0.000 A 
ATOM     12  C   UNL     1      -0.571  10.528  21.870  0.00  0.00    +0.000 A 
ATOM     13  C   UNL     1      -0.140   9.484  22.697  0.00  0.00    +0.000 A 
ATOM     14  C   UNL     1       0.700   8.478  22.202  0.00  0.00    +0.000 A 
BRANCH  12  15
ATOM     15  C   UNL     1      -1.459  11.617  22.421  0.00  0.00    +0.000 C 
ATOM     16  F   UNL     1      -0.773  12.697  22.889  0.00  0.00    +0.000 F 
ATOM     17  F   UNL     1      -2.326  12.103  21.489  0.00  0.00    +0.000 F 
ATOM     18  F   UNL     1      -2.229  11.186  23.458  0.00  0.00    +0.000 F 
ENDBRANCH  12  15
ENDBRANCH   6   9
BRANCH   1  19
ATOM     19  C   UNL     1       4.490   4.797  16.931  0.00  0.00    +0.000 C 
BRANCH  19  20
ATOM     20  N   UNL     1       5.625   5.608  17.413  0.00  0.00    +0.000 N 
ATOM     21  C   UNL     1       6.476   5.290  18.433  0.00  0.00    +0.000 C 
ATOM     22  O   UNL     1       6.408   4.335  19.192  0.00  0.00    +0.000 OA
ATOM     23  C   UNL     1       7.542   6.333  18.543  0.00  0.00    +0.000 C 
ATOM     24  C   UNL     1       7.383   7.148  17.280  0.00  0.00    +0.000 C 
ATOM     25  C   UNL     1       6.083   6.682  16.696  0.00  0.00    +0.000 C 
ATOM     26  O   UNL     1       5.562   7.174  15.713  0.00  0.00    +0.000 OA
ENDBRANCH  19  20
BRANCH  19  27
ATOM     27  C   UNL     1       4.918   3.462  16.295  0.00  0.00    +0.000 C 
BRANCH  27  29
ATOM     28  C   UNL     1       5.661   4.078  14.155  0.00  0.00    +0.000 C 
ATOM     29  O   UNL     1       6.051   3.580  15.434  0.00  0.00    +0.000 OA
ENDBRANCH  27  29
ENDBRANCH  19  27
ENDBRANCH   1  19
TORSDOF 6
ENDMDL
MODEL 3
REMARK VINA RESULT:      -6.9      0.192      1.573
REMARK  Name = 
REMARK  7 active torsions:
REMARK  status: ('A' for Active; 'I' for Inactive)
REMARK    1  A    between atoms: C_1  and  O_2
REMARK    2  A    between atoms: O_2  and  C_3
REMARK    3  A    between atoms: C_3  and  C_4
REMARK    4  A    between atoms: C_4  and  C_5
REMARK    5  A    between atoms: C_4  and  N_23
REMARK    6  A    between atoms: N_10  and  C_11
REMARK    7  A    between atoms: C_14  and  C_15
REMARK                            x       y       z     vdW  Elec       q    Type
REMARK                         _______ _______ _______ _____ _____    ______ ____
ROOT
ATOM      1  C   UNL     1       3.512   5.147  19.005  0.00  0.00    +0.000 C 
ATOM      2  O   UNL     1       3.822   4.650  20.100  0.00  0.00    +0.000 OA
ATOM      3  N   UNL     1       2.418   5.998  18.941  0.00  0.00    +0.000 N 
ATOM      4  C   UNL     1       1.691   6.293  20.195  0.00  0.00    +0.000 C 
ATOM      5  C   UNL     1       1.986   7.727  20.674  0.00  0.00    +0.000 C 
ATOM      6  N   UNL     1       1.735   8.705  19.595  0.00  0.00    +0.000 N 
ATOM      7  C   UNL     1       2.380   8.400  18.303  0.00  0.00    +0.000 C 
ATOM      8  C   UNL     1       2.078   6.945  17.878  0.00  0.00    +0.000 C 
ENDROOT
BRANCH   6   9
ATOM      9  C   UNL     1       0.714   9.635  19.662  0.00  0.00    +0.000 A 
ATOM     10  C   UNL     1       0.274  10.128  20.901  0.00  0.00    +0.000 A 
ATOM     11  C   UNL     1      -0.786  11.037  21.006  0.00  0.00    +0.000 A 
ATOM     12  C   UNL     1      -1.440  11.497  19.859  0.00  0.00    +0.000 A 
ATOM     13  C   UNL     1      -1.005  11.028  18.615  0.00  0.00    +0.000 A 
ATOM     14  C   UNL     1       0.049  10.110  18.523  0.00  0.00    +0.000 A 
BRANCH  12  15
ATOM     15  C   UNL     1      -2.591  12.470  19.945  0.00  0.00    +0.000 C 
ATOM     16  F   UNL     1      -3.300  12.376  21.105  0.00  0.00    +0.000 F 
ATOM     17  F   UNL     1      -2.183  13.768  19.863  0.00  0.00    +0.000 F 
ATOM     18  F   UNL     1      -3.494  12.298  18.941  0.00  0.00    +0.000 F 
ENDBRANCH  12  15
ENDBRANCH   6   9
BRANCH   1  19
ATOM     19  C   UNL     1       4.442   4.853  17.794  0.00  0.00    +0.000 C 
BRANCH  19  20
ATOM     20  N   UNL     1       5.703   5.618  17.746  0.00  0.00    +0.000 N 
ATOM     21  C   UNL     1       6.006   6.635  16.885  0.00  0.00    +0.000 C 
ATOM     22  O   UNL     1       5.340   7.039  15.943  0.00  0.00    +0.000 OA
ATOM     23  C   UNL     1       7.347   7.202  17.226  0.00  0.00    +0.000 C 
ATOM     24  C   UNL     1       7.668   6.590  18.570  0.00  0.00    +0.000 C 
ATOM     25  C   UNL     1       6.627   5.527  18.754  0.00  0.00    +0.000 C 
ATOM     26  O   UNL     1       6.608   4.746  19.687  0.00  0.00    +0.000 OA
ENDBRANCH  19  20
BRANCH  19  27
ATOM     27  C   UNL     1       4.638   3.339  17.595  0.00  0.00    +0.000 C 
BRANCH  27  29
ATOM     28  C   UNL     1       3.484   1.477  18.438  0.00  0.00    +0.000 C 
ATOM     29  O   UNL     1       3.414   2.606  17.568  0.00  0.00    +0.000 OA
ENDBRANCH  27  29
ENDBRANCH  19  27
ENDBRANCH   1  19
TORSDOF 6
ENDMDL
MODEL 4
REMARK VINA RESULT:      -6.9      0.802      1.541
REMARK  Name = 
REMARK  7 active torsions:
REMARK  status: ('A' for Active; 'I' for Inactive)
REMARK    1  A    between atoms: C_1  and  O_2
REMARK    2  A    between atoms: O_2  and  C_3
REMARK    3  A    between atoms: C_3  and  C_4
REMARK    4  A    between atoms: C_4  and  C_5
REMARK    5  A    between atoms: C_4  and  N_23
REMARK    6  A    between atoms: N_10  and  C_11
REMARK    7  A    between atoms: C_14  and  C_15
REMARK                            x       y       z     vdW  Elec       q    Type
REMARK                         _______ _______ _______ _____ _____    ______ ____
ROOT
ATOM      1  C   UNL     1       3.584   5.312  18.826  0.00  0.00    +0.000 C 
ATOM      2  O   UNL     1       3.773   4.635  19.850  0.00  0.00    +0.000 OA
ATOM      3  N   UNL     1       2.484   6.155  18.774  0.00  0.00    +0.000 N 
ATOM      4  C   UNL     1       1.603   6.226  19.960  0.00  0.00    +0.000 C 
ATOM      5  C   UNL     1       1.800   7.556  20.710  0.00  0.00    +0.000 C 
ATOM      6  N   UNL     1       1.655   8.705  19.792  0.00  0.00    +0.000 N 
ATOM      7  C   UNL     1       2.459   8.631  18.557  0.00  0.00    +0.000 C 
ATOM      8  C   UNL     1       2.249   7.270  17.855  0.00  0.00    +0.000 C 
ENDROOT
BRANCH   6   9
ATOM      9  C   UNL     1       0.610   9.604  19.890  0.00  0.00    +0.000 A 
ATOM     10  C   UNL     1      -0.033  10.084  18.737  0.00  0.00    +0.000 A 
ATOM     11  C   UNL     1      -1.066  11.028  18.800  0.00  0.00    +0.000 A 
ATOM     12  C   UNL     1      -1.502  11.520  20.034  0.00  0.00    +0.000 A 
ATOM     13  C   UNL     1      -0.883  11.041  21.194  0.00  0.00    +0.000 A 
ATOM     14  C   UNL     1       0.157  10.104  21.118  0.00  0.00    +0.000 A 
BRANCH  12  15
ATOM     15  C   UNL     1      -2.606  12.544  20.129  0.00  0.00    +0.000 C 
ATOM     16  F   UNL     1      -3.571  12.397  19.178  0.00  0.00    +0.000 F 
ATOM     17  F   UNL     1      -3.255  12.501  21.327  0.00  0.00    +0.000 F 
ATOM     18  F   UNL     1      -2.146  13.819  20.000  0.00  0.00    +0.000 F 
ENDBRANCH  12  15
ENDBRANCH   6   9
BRANCH   1  19
ATOM     19  C   UNL     1       4.661   5.237  17.707  0.00  0.00    +0.000 C 
BRANCH  19  20
ATOM     20  N   UNL     1       5.892   6.016  17.940  0.00  0.00    +0.000 N 
ATOM     21  C   UNL     1       6.859   5.752  18.868  0.00  0.00    +0.000 C 
ATOM     22  O   UNL     1       6.847   4.888  19.733  0.00  0.00    +0.000 OA
ATOM     23  C   UNL     1       7.982   6.728  18.718  0.00  0.00    +0.000 C 
ATOM     24  C   UNL     1       7.692   7.414  17.404  0.00  0.00    +0.000 C 
ATOM     25  C   UNL     1       6.302   6.976  17.052  0.00  0.00    +0.000 C 
ATOM     26  O   UNL     1       5.676   7.396  16.097  0.00  0.00    +0.000 OA
ENDBRANCH  19  20
BRANCH  19  27
ATOM     27  C   UNL     1       4.930   3.780  17.288  0.00  0.00    +0.000 C 
BRANCH  27  29
ATOM     28  C   UNL     1       5.430   4.049  15.010  0.00  0.00    +0.000 C 
ATOM     29  O   UNL     1       5.937   3.653  16.284  0.00  0.00    +0.000 OA
ENDBRANCH  27  29
ENDBRANCH  19  27
ENDBRANCH   1  19
TORSDOF 6
ENDMDL
MODEL 5
REMARK VINA RESULT:      -6.9      5.679      9.630
REMARK  Name = 
REMARK  7 active torsions:
REMARK  status: ('A' for Active; 'I' for Inactive)
REMARK    1  A    between atoms: C_1  and  O_2
REMARK    2  A    between atoms: O_2  and  C_3
REMARK    3  A    between atoms: C_3  and  C_4
REMARK    4  A    between atoms: C_4  and  C_5
REMARK    5  A    between atoms: C_4  and  N_23
REMARK    6  A    between atoms: N_10  and  C_11
REMARK    7  A    between atoms: C_14  and  C_15
REMARK                            x       y       z     vdW  Elec       q    Type
REMARK                         _______ _______ _______ _____ _____    ______ ____
ROOT
ATOM      1  C   UNL     1      -0.625  11.336  22.573  0.00  0.00    +0.000 C 
ATOM      2  O   UNL     1      -1.126  10.703  23.516  0.00  0.00    +0.000 OA
ATOM      3  N   UNL     1       0.436  10.773  21.878  0.00  0.00    +0.000 N 
ATOM      4  C   UNL     1       0.898   9.427  22.280  0.00  0.00    +0.000 C 
ATOM      5  C   UNL     1       0.473   8.370  21.244  0.00  0.00    +0.000 C 
ATOM      6  N   UNL     1       0.900   8.764  19.885  0.00  0.00    +0.000 N 
ATOM      7  C   UNL     1       0.527  10.132  19.478  0.00  0.00    +0.000 C 
ATOM      8  C   UNL     1       0.948  11.153  20.560  0.00  0.00    +0.000 C 
ENDROOT
BRANCH   6   9
ATOM      9  C   UNL     1       1.861   8.065  19.179  0.00  0.00    +0.000 A 
ATOM     10  C   UNL     1       2.358   6.843  19.662  0.00  0.00    +0.000 A 
ATOM     11  C   UNL     1       3.362   6.131  18.993  0.00  0.00    +0.000 A 
ATOM     12  C   UNL     1       3.900   6.620  17.798  0.00  0.00    +0.000 A 
ATOM     13  C   UNL     1       3.406   7.828  17.294  0.00  0.00    +0.000 A 
ATOM     14  C   UNL     1       2.409   8.536  17.978  0.00  0.00    +0.000 A 
BRANCH  12  15
ATOM     15  C   UNL     1       4.988   5.877  17.063  0.00  0.00    +0.000 C 
ATOM     16  F   UNL     1       6.234   6.085  17.576  0.00  0.00    +0.000 F 
ATOM     17  F   UNL     1       4.801   4.527  17.078  0.00  0.00    +0.000 F 
ATOM     18  F   UNL     1       5.063   6.229  15.749  0.00  0.00    +0.000 F 
ENDBRANCH  12  15
ENDBRANCH   6   9
BRANCH   1  19
ATOM     19  C   UNL     1      -1.293  12.682  22.175  0.00  0.00    +0.000 C 
BRANCH  19  20
ATOM     20  N   UNL     1      -2.670  12.591  21.653  0.00  0.00    +0.000 N 
ATOM     21  C   UNL     1      -3.823  12.665  22.381  0.00  0.00    +0.000 C 
ATOM     22  O   UNL     1      -3.936  12.726  23.597  0.00  0.00    +0.000 OA
ATOM     23  C   UNL     1      -5.003  12.619  21.464  0.00  0.00    +0.000 C 
ATOM     24  C   UNL     1      -4.401  12.801  20.090  0.00  0.00    +0.000 C 
ATOM     25  C   UNL     1      -2.924  12.662  20.308  0.00  0.00    +0.000 C 
ATOM     26  O   UNL     1      -2.100  12.656  19.413  0.00  0.00    +0.000 OA
ENDBRANCH  19  20
BRANCH  19  27
ATOM     27  C   UNL     1      -1.129  13.736  23.285  0.00  0.00    +0.000 C 
BRANCH  27  29
ATOM     28  C   UNL     1       0.259  14.707  21.660  0.00  0.00    +0.000 C 
ATOM     29  O   UNL     1      -0.057  14.648  23.050  0.00  0.00    +0.000 OA
ENDBRANCH  27  29
ENDBRANCH  19  27
ENDBRANCH   1  19
TORSDOF 6
ENDMDL
MODEL 6
REMARK VINA RESULT:      -6.9      5.648      8.917
REMARK  Name = 
REMARK  7 active torsions:
REMARK  status: ('A' for Active; 'I' for Inactive)
REMARK    1  A    between atoms: C_1  and  O_2
REMARK    2  A    between atoms: O_2  and  C_3
REMARK    3  A    between atoms: C_3  and  C_4
REMARK    4  A    between atoms: C_4  and  C_5
REMARK    5  A    between atoms: C_4  and  N_23
REMARK    6  A    between atoms: N_10  and  C_11
REMARK    7  A    between atoms: C_14  and  C_15
REMARK                            x       y       z     vdW  Elec       q    Type
REMARK                         _______ _______ _______ _____ _____    ______ ____
ROOT
ATOM      1  C   UNL     1       1.037  11.727  19.360  0.00  0.00    +0.000 C 
ATOM      2  O   UNL     1       1.496  12.282  18.348  0.00  0.00    +0.000 OA
ATOM      3  N   UNL     1       0.761  10.369  19.312  0.00  0.00    +0.000 N 
ATOM      4  C   UNL     1       1.057   9.641  18.059  0.00  0.00    +0.000 C 
ATOM      5  C   UNL     1       2.299   8.746  18.226  0.00  0.00    +0.000 C 
ATOM      6  N   UNL     1       2.160   7.867  19.405  0.00  0.00    +0.000 N 
ATOM      7  C   UNL     1       1.785   8.548  20.660  0.00  0.00    +0.000 C 
ATOM      8  C   UNL     1       0.553   9.454  20.436  0.00  0.00    +0.000 C 
ENDROOT
BRANCH   6   9
ATOM      9  C   UNL     1       2.041   6.494  19.296  0.00  0.00    +0.000 A 
ATOM     10  C   UNL     1       2.246   5.853  18.063  0.00  0.00    +0.000 A 
ATOM     11  C   UNL     1       2.091   4.470  17.909  0.00  0.00    +0.000 A 
ATOM     12  C   UNL     1       1.733   3.671  19.000  0.00  0.00    +0.000 A 
ATOM     13  C   UNL     1       1.540   4.291  20.240  0.00  0.00    +0.000 A 
ATOM     14  C   UNL     1       1.688   5.677  20.379  0.00  0.00    +0.000 A 
BRANCH  12  15
ATOM     15  C   UNL     1       1.551   2.180  18.859  0.00  0.00    +0.000 C 
ATOM     16  F   UNL     1       0.305   1.819  18.442  0.00  0.00    +0.000 F 
ATOM     17  F   UNL     1       2.417   1.632  17.960  0.00  0.00    +0.000 F 
ATOM     18  F   UNL     1       1.759   1.517  20.030  0.00  0.00    +0.000 F 
ENDBRANCH  12  15
ENDBRANCH   6   9
BRANCH   1  19
ATOM     19  C   UNL     1       0.898  12.586  20.649  0.00  0.00    +0.000 C 
BRANCH  19  20
ATOM     20  N   UNL     1       1.362  13.983  20.549  0.00  0.00    +0.000 N 
ATOM     21  C   UNL     1       0.683  15.027  19.988  0.00  0.00    +0.000 C 
ATOM     22  O   UNL     1      -0.381  14.990  19.388  0.00  0.00    +0.000 OA
ATOM     23  C   UNL     1       1.461  16.291  20.171  0.00  0.00    +0.000 C 
ATOM     24  C   UNL     1       2.540  15.912  21.160  0.00  0.00    +0.000 C 
ATOM     25  C   UNL     1       2.458  14.418  21.247  0.00  0.00    +0.000 C 
ATOM     26  O   UNL     1       3.235  13.728  21.880  0.00  0.00    +0.000 OA
ENDBRANCH  19  20
BRANCH  19  27
ATOM     27  C   UNL     1      -0.509  12.452  21.260  0.00  0.00    +0.000 C 
BRANCH  27  29
ATOM     28  C   UNL     1      -1.833  11.760  23.071  0.00  0.00    +0.000 C 
ATOM     29  O   UNL     1      -0.502  11.978  22.607  0.00  0.00    +0.000 OA
ENDBRANCH  27  29
ENDBRANCH  19  27
ENDBRANCH   1  19
TORSDOF 6
ENDMDL
MODEL 7
REMARK VINA RESULT:      -6.9      0.227      1.809
REMARK  Name = 
REMARK  7 active torsions:
REMARK  status: ('A' for Active; 'I' for Inactive)
REMARK    1  A    between atoms: C_1  and  O_2
REMARK    2  A    between atoms: O_2  and  C_3
REMARK    3  A    between atoms: C_3  and  C_4
REMARK    4  A    between atoms: C_4  and  C_5
REMARK    5  A    between atoms: C_4  and  N_23
REMARK    6  A    between atoms: N_10  and  C_11
REMARK    7  A    between atoms: C_14  and  C_15
REMARK                            x       y       z     vdW  Elec       q    Type
REMARK                         _______ _______ _______ _____ _____    ______ ____
ROOT
ATOM      1  C   UNL     1       3.507   5.115  18.952  0.00  0.00    +0.000 C 
ATOM      2  O   UNL     1       3.841   4.596  20.030  0.00  0.00    +0.000 OA
ATOM      3  N   UNL     1       2.405   5.958  18.928  0.00  0.00    +0.000 N 
ATOM      4  C   UNL     1       1.698   6.218  20.200  0.00  0.00    +0.000 C 
ATOM      5  C   UNL     1       1.990   7.643  20.707  0.00  0.00    +0.000 C 
ATOM      6  N   UNL     1       1.712   8.643  19.656  0.00  0.00    +0.000 N 
ATOM      7  C   UNL     1       2.336   8.373  18.346  0.00  0.00    +0.000 C 
ATOM      8  C   UNL     1       2.038   6.926  17.893  0.00  0.00    +0.000 C 
ENDROOT
BRANCH   6   9
ATOM      9  C   UNL     1       0.685   9.562  19.762  0.00  0.00    +0.000 A 
ATOM     10  C   UNL     1      -0.002  10.005  18.619  0.00  0.00    +0.000 A 
ATOM     11  C   UNL     1      -1.017  10.967  18.687  0.00  0.00    +0.000 A 
ATOM     12  C   UNL     1      -1.390  11.517  19.918  0.00  0.00    +0.000 A 
ATOM     13  C   UNL     1      -0.726  11.078  21.069  0.00  0.00    +0.000 A 
ATOM     14  C   UNL     1       0.295  10.122  20.986  0.00  0.00    +0.000 A 
BRANCH  12  15
ATOM     15  C   UNL     1      -2.474  12.562  20.018  0.00  0.00    +0.000 C 
ATOM     16  F   UNL     1      -3.442  12.438  19.068  0.00  0.00    +0.000 F 
ATOM     17  F   UNL     1      -3.122  12.527  21.216  0.00  0.00    +0.000 F 
ATOM     18  F   UNL     1      -1.989  13.829  19.893  0.00  0.00    +0.000 F 
ENDBRANCH  12  15
ENDBRANCH   6   9
BRANCH   1  19
ATOM     19  C   UNL     1       4.418   4.857  17.719  0.00  0.00    +0.000 C 
BRANCH  19  20
ATOM     20  N   UNL     1       5.669   5.638  17.663  0.00  0.00    +0.000 N 
ATOM     21  C   UNL     1       5.934   6.692  16.836  0.00  0.00    +0.000 C 
ATOM     22  O   UNL     1       5.234   7.127  15.933  0.00  0.00    +0.000 OA
ATOM     23  C   UNL     1       7.279   7.260  17.158  0.00  0.00    +0.000 C 
ATOM     24  C   UNL     1       7.648   6.598  18.465  0.00  0.00    +0.000 C 
ATOM     25  C   UNL     1       6.624   5.516  18.638  0.00  0.00    +0.000 C 
ATOM     26  O   UNL     1       6.643   4.697  19.537  0.00  0.00    +0.000 OA
ENDBRANCH  19  20
BRANCH  19  27
ATOM     27  C   UNL     1       4.627   3.350  17.485  0.00  0.00    +0.000 C 
BRANCH  27  29
ATOM     28  C   UNL     1       3.529   1.478  18.380  0.00  0.00    +0.000 C 
ATOM     29  O   UNL     1       3.415   2.597  17.502  0.00  0.00    +0.000 OA
ENDBRANCH  27  29
ENDBRANCH  19  27
ENDBRANCH   1  19
TORSDOF 6
ENDMDL
MODEL 8
REMARK VINA RESULT:      -6.9      5.653      8.782
REMARK  Name = 
REMARK  7 active torsions:
REMARK  status: ('A' for Active; 'I' for Inactive)
REMARK    1  A    between atoms: C_1  and  O_2
REMARK    2  A    between atoms: O_2  and  C_3
REMARK    3  A    between atoms: C_3  and  C_4
REMARK    4  A    between atoms: C_4  and  C_5
REMARK    5  A    between atoms: C_4  and  N_23
REMARK    6  A    between atoms: N_10  and  C_11
REMARK    7  A    between atoms: C_14  and  C_15
REMARK                            x       y       z     vdW  Elec       q    Type
REMARK                         _______ _______ _______ _____ _____    ______ ____
ROOT
ATOM      1  C   UNL     1       0.970  11.719  19.561  0.00  0.00    +0.000 C 
ATOM      2  O   UNL     1       1.405  12.313  18.560  0.00  0.00    +0.000 OA
ATOM      3  N   UNL     1       0.707  10.360  19.471  0.00  0.00    +0.000 N 
ATOM      4  C   UNL     1       0.987   9.679  18.189  0.00  0.00    +0.000 C 
ATOM      5  C   UNL     1       2.240   8.792  18.303  0.00  0.00    +0.000 C 
ATOM      6  N   UNL     1       2.131   7.871  19.454  0.00  0.00    +0.000 N 
ATOM      7  C   UNL     1       1.773   8.506  20.737  0.00  0.00    +0.000 C 
ATOM      8  C   UNL     1       0.528   9.406  20.567  0.00  0.00    +0.000 C 
ENDROOT
BRANCH   6   9
ATOM      9  C   UNL     1       2.024   6.502  19.300  0.00  0.00    +0.000 A 
ATOM     10  C   UNL     1       2.138   5.912  18.030  0.00  0.00    +0.000 A 
ATOM     11  C   UNL     1       1.992   4.534  17.834  0.00  0.00    +0.000 A 
ATOM     12  C   UNL     1       1.734   3.688  18.918  0.00  0.00    +0.000 A 
ATOM     13  C   UNL     1       1.632   4.256  20.192  0.00  0.00    +0.000 A 
ATOM     14  C   UNL     1       1.770   5.638  20.374  0.00  0.00    +0.000 A 
BRANCH  12  15
ATOM     15  C   UNL     1       1.563   2.200  18.733  0.00  0.00    +0.000 C 
ATOM     16  F   UNL     1       1.877   1.472  19.841  0.00  0.00    +0.000 F 
ATOM     17  F   UNL     1       0.283   1.859  18.415  0.00  0.00    +0.000 F 
ATOM     18  F   UNL     1       2.341   1.707  17.730  0.00  0.00    +0.000 F 
ENDBRANCH  12  15
ENDBRANCH   6   9
BRANCH   1  19
ATOM     19  C   UNL     1       0.845  12.532  20.880  0.00  0.00    +0.000 C 
BRANCH  19  20
ATOM     20  N   UNL     1       1.370  13.911  20.843  0.00  0.00    +0.000 N 
ATOM     21  C   UNL     1       2.635  14.309  21.170  0.00  0.00    +0.000 C 
ATOM     22  O   UNL     1       3.535  13.627  21.638  0.00  0.00    +0.000 OA
ATOM     23  C   UNL     1       2.786  15.774  20.910  0.00  0.00    +0.000 C 
ATOM     24  C   UNL     1       1.549  16.130  20.118  0.00  0.00    +0.000 C 
ATOM     25  C   UNL     1       0.674  14.918  20.228  0.00  0.00    +0.000 C 
ATOM     26  O   UNL     1      -0.461  14.854  19.792  0.00  0.00    +0.000 OA
ENDBRANCH  19  20
BRANCH  19  27
ATOM     27  C   UNL     1      -0.576  12.435  21.464  0.00  0.00    +0.000 C 
BRANCH  27  29
ATOM     28  C   UNL     1      -1.341  10.988  23.146  0.00  0.00    +0.000 C 
ATOM     29  O   UNL     1      -0.598  12.173  22.867  0.00  0.00    +0.000 OA
ENDBRANCH  27  29
ENDBRANCH  19  27
ENDBRANCH   1  19
TORSDOF 6
ENDMDL
MODEL 9
REMARK VINA RESULT:      -6.8      5.657      8.866
REMARK  Name = 
REMARK  7 active torsions:
REMARK  status: ('A' for Active; 'I' for Inactive)
REMARK    1  A    between atoms: C_1  and  O_2
REMARK    2  A    between atoms: O_2  and  C_3
REMARK    3  A    between atoms: C_3  and  C_4
REMARK    4  A    between atoms: C_4  and  C_5
REMARK    5  A    between atoms: C_4  and  N_23
REMARK    6  A    between atoms: N_10  and  C_11
REMARK    7  A    between atoms: C_14  and  C_15
REMARK                            x       y       z     vdW  Elec       q    Type
REMARK                         _______ _______ _______ _____ _____    ______ ____
ROOT
ATOM      1  C   UNL     1       1.382  11.732  19.193  0.00  0.00    +0.000 C 
ATOM      2  O   UNL     1       1.982  12.249  18.237  0.00  0.00    +0.000 OA
ATOM      3  N   UNL     1       1.026  10.394  19.114  0.00  0.00    +0.000 N 
ATOM      4  C   UNL     1       1.407   9.641  17.899  0.00  0.00    +0.000 C 
ATOM      5  C   UNL     1       2.563   8.668  18.199  0.00  0.00    +0.000 C 
ATOM      6  N   UNL     1       2.241   7.807  19.355  0.00  0.00    +0.000 N 
ATOM      7  C   UNL     1       1.778   8.519  20.563  0.00  0.00    +0.000 C 
ATOM      8  C   UNL     1       0.638   9.501  20.208  0.00  0.00    +0.000 C 
ENDROOT
BRANCH   6   9
ATOM      9  C   UNL     1       2.046   6.444  19.233  0.00  0.00    +0.000 A 
ATOM     10  C   UNL     1       1.733   5.661  20.356  0.00  0.00    +0.000 A 
ATOM     11  C   UNL     1       1.573   4.272  20.273  0.00  0.00    +0.000 A 
ATOM     12  C   UNL     1       1.710   3.616  19.046  0.00  0.00    +0.000 A 
ATOM     13  C   UNL     1       2.007   4.382  17.914  0.00  0.00    +0.000 A 
ATOM     14  C   UNL     1       2.176   5.770  18.011  0.00  0.00    +0.000 A 
BRANCH  12  15
ATOM     15  C   UNL     1       1.552   2.119  18.931  0.00  0.00    +0.000 C 
ATOM     16  F   UNL     1       1.723   1.459  20.111  0.00  0.00    +0.000 F 
ATOM     17  F   UNL     1       0.317   1.759  18.480  0.00  0.00    +0.000 F 
ATOM     18  F   UNL     1       2.442   1.566  18.062  0.00  0.00    +0.000 F 
ENDBRANCH  12  15
ENDBRANCH   6   9
BRANCH   1  19
ATOM     19  C   UNL     1       1.160  12.605  20.460  0.00  0.00    +0.000 C 
BRANCH  19  20
ATOM     20  N   UNL     1       1.550  14.024  20.344  0.00  0.00    +0.000 N 
ATOM     21  C   UNL     1       0.874  15.000  19.668  0.00  0.00    +0.000 C 
ATOM     22  O   UNL     1      -0.116  14.872  18.963  0.00  0.00    +0.000 OA
ATOM     23  C   UNL     1       1.553  16.317  19.872  0.00  0.00    +0.000 C 
ATOM     24  C   UNL     1       2.541  16.047  20.984  0.00  0.00    +0.000 C 
ATOM     25  C   UNL     1       2.538  14.554  21.131  0.00  0.00    +0.000 C 
ATOM     26  O   UNL     1       3.282  13.941  21.873  0.00  0.00    +0.000 OA
ENDBRANCH  19  20
BRANCH  19  27
ATOM     27  C   UNL     1      -0.253  12.405  21.036  0.00  0.00    +0.000 C 
BRANCH  27  29
ATOM     28  C   UNL     1      -1.583  12.221  22.962  0.00  0.00    +0.000 C 
ATOM     29  O   UNL     1      -0.262  12.114  22.434  0.00  0.00    +0.000 OA
ENDBRANCH  27  29
ENDBRANCH  19  27
ENDBRANCH   1  19
TORSDOF 6
ENDMDL
