MODEL 1
REMARK VINA RESULT:      -8.8      0.000      0.000
REMARK  Name = 
REMARK  7 active torsions:
REMARK  status: ('A' for Active; 'I' for Inactive)
REMARK    1  A    between atoms: C_1  and  O_2
REMARK    2  A    between atoms: O_2  and  C_3
REMARK    3  A    between atoms: C_6  and  C_7
REMARK    4  A    between atoms: C_13  and  S_14
REMARK    5  A    between atoms: S_14  and  C_15
REMARK    6  A    between atoms: C_21  and  C_22
REMARK    7  A    between atoms: N_28  and  C_29
REMARK                            x       y       z     vdW  Elec       q    Type
REMARK                         _______ _______ _______ _____ _____    ______ ____
ROOT
ATOM      1  C   UNL     1       2.550   7.034  18.448  0.00  0.00    +0.000 A 
ATOM      2  C   UNL     1       2.237   6.780  19.803  0.00  0.00    +0.000 A 
ATOM      3  C   UNL     1       1.645   7.748  20.632  0.00  0.00    +0.000 A 
ATOM      4  C   UNL     1       1.298   8.936  19.998  0.00  0.00    +0.000 A 
ATOM      5  C   UNL     1       1.088   8.979  18.621  0.00  0.00    +0.000 A 
ATOM      6  C   UNL     1       1.898   8.129  17.840  0.00  0.00    +0.000 A 
ATOM      7  C   UNL     1       0.335  10.166  18.428  0.00  0.00    +0.000 A 
ATOM      8  C   UNL     1       1.097  11.042  19.212  0.00  0.00    +0.000 A 
ATOM      9  N   UNL     1       1.175  10.266  20.386  0.00  0.00    +0.000 N 
ATOM     10  C   UNL     1       1.105  10.737  21.746  0.00  0.00    +0.000 C 
ENDROOT
BRANCH   1  14
ATOM     11  C   UNL     1       5.542   4.867  16.166  0.00  0.00    +0.000 A 
ATOM     12  C   UNL     1       4.523   4.181  16.825  0.00  0.00    +0.000 A 
ATOM     13  C   UNL     1       3.576   4.871  17.599  0.00  0.00    +0.000 A 
ATOM     14  C   UNL     1       3.616   6.266  17.738  0.00  0.00    +0.000 A 
ATOM     15  C   UNL     1       4.668   6.928  17.073  0.00  0.00    +0.000 A 
ATOM     16  C   UNL     1       5.622   6.247  16.307  0.00  0.00    +0.000 A 
BRANCH  11  18
ATOM     17  C   UNL     1       6.121   3.971  14.055  0.00  0.00    +0.000 C 
ATOM     18  O   UNL     1       6.403   4.087  15.445  0.00  0.00    +0.000 OA
ENDBRANCH  11  18
ENDBRANCH   1  14
BRANCH   8  19
ATOM     19  C   UNL     1       1.292  12.477  18.995  0.00  0.00    +0.000 A 
ATOM     20  C   UNL     1       2.527  12.911  18.454  0.00  0.00    +0.000 A 
ATOM     21  C   UNL     1       2.809  14.257  18.261  0.00  0.00    +0.000 A 
ATOM     22  C   UNL     1       1.878  15.209  18.628  0.00  0.00    +0.000 A 
ATOM     23  C   UNL     1       0.672  14.810  19.212  0.00  0.00    +0.000 A 
ATOM     24  C   UNL     1       0.385  13.457  19.402  0.00  0.00    +0.000 A 
ENDBRANCH   8  19
BRANCH   7  25
ATOM     25  S   UNL     1      -1.441  10.350  18.797  0.00  0.00    +0.000 S 
BRANCH  25  26
ATOM     26  C   UNL     1      -2.353  10.489  17.302  0.00  0.00    +0.000 A 
ATOM     27  C   UNL     1      -2.097   9.746  16.154  0.00  0.00    +0.000 A 
ATOM     28  C   UNL     1      -2.937   9.856  15.048  0.00  0.00    +0.000 A 
ATOM     29  C   UNL     1      -4.045  10.700  15.093  0.00  0.00    +0.000 A 
ATOM     30  C   UNL     1      -4.331  11.424  16.245  0.00  0.00    +0.000 A 
ATOM     31  C   UNL     1      -3.487  11.317  17.343  0.00  0.00    +0.000 A 
ENDBRANCH  25  26
ENDBRANCH   7  25
TORSDOF 5
ENDMDL
MODEL 2
REMARK VINA RESULT:      -8.3      0.494      1.542
REMARK  Name = 
REMARK  7 active torsions:
REMARK  status: ('A' for Active; 'I' for Inactive)
REMARK    1  A    between atoms: C_1  and  O_2
REMARK    2  A    between atoms: O_2  and  C_3
REMARK    3  A    between atoms: C_6  and  C_7
REMARK    4  A    between atoms: C_13  and  S_14
REMARK    5  A    between atoms: S_14  and  C_15
REMARK    6  A    between atoms: C_21  and  C_22
REMARK    7  A    between atoms: N_28  and  C_29
REMARK                            x       y       z     vdW  Elec       q    Type
REMARK                         _______ _______ _______ _____ _____    ______ ____
ROOT
ATOM      1  C   UNL     1       2.461   7.262  18.527  0.00  0.00    +0.000 A 
ATOM      2  C   UNL     1       2.170   6.976  19.880  0.00  0.00    +0.000 A 
ATOM      3  C   UNL     1       1.565   7.914  20.733  0.00  0.00    +0.000 A 
ATOM      4  C   UNL     1       1.182   9.105  20.125  0.00  0.00    +0.000 A 
ATOM      5  C   UNL     1       0.956   9.168  18.752  0.00  0.00    +0.000 A 
ATOM      6  C   UNL     1       1.776   8.351  17.947  0.00  0.00    +0.000 A 
ATOM      7  C   UNL     1       0.171  10.339  18.589  0.00  0.00    +0.000 A 
ATOM      8  C   UNL     1       0.921  11.219  19.381  0.00  0.00    +0.000 A 
ATOM      9  N   UNL     1       1.031  10.424  20.539  0.00  0.00    +0.000 N 
ATOM     10  C   UNL     1       0.966  10.869  21.908  0.00  0.00    +0.000 C 
ENDROOT
BRANCH   1  14
ATOM     11  C   UNL     1       5.743   5.184  16.584  0.00  0.00    +0.000 A 
ATOM     12  C   UNL     1       5.376   6.465  16.173  0.00  0.00    +0.000 A 
ATOM     13  C   UNL     1       4.291   7.127  16.769  0.00  0.00    +0.000 A 
ATOM     14  C   UNL     1       3.537   6.533  17.791  0.00  0.00    +0.000 A 
ATOM     15  C   UNL     1       3.922   5.230  18.172  0.00  0.00    +0.000 A 
ATOM     16  C   UNL     1       4.998   4.559  17.577  0.00  0.00    +0.000 A 
BRANCH  11  18
ATOM     17  C   UNL     1       6.819   4.792  14.515  0.00  0.00    +0.000 C 
ATOM     18  O   UNL     1       6.814   4.643  15.931  0.00  0.00    +0.000 OA
ENDBRANCH  11  18
ENDBRANCH   1  14
BRANCH   8  19
ATOM     19  C   UNL     1       1.080  12.662  19.187  0.00  0.00    +0.000 A 
ATOM     20  C   UNL     1       0.006  13.510  19.554  0.00  0.00    +0.000 A 
ATOM     21  C   UNL     1       0.060  14.884  19.359  0.00  0.00    +0.000 A 
ATOM     22  C   UNL     1       1.173  15.447  18.768  0.00  0.00    +0.000 A 
ATOM     23  C   UNL     1       2.226  14.627  18.349  0.00  0.00    +0.000 A 
ATOM     24  C   UNL     1       2.175  13.246  18.550  0.00  0.00    +0.000 A 
ENDBRANCH   8  19
BRANCH   7  25
ATOM     25  S   UNL     1      -1.604  10.473  18.981  0.00  0.00    +0.000 S 
BRANCH  25  26
ATOM     26  C   UNL     1      -2.544  10.512  17.497  0.00  0.00    +0.000 A 
ATOM     27  C   UNL     1      -3.669  11.308  17.301  0.00  0.00    +0.000 A 
ATOM     28  C   UNL     1      -4.292  11.344  16.056  0.00  0.00    +0.000 A 
ATOM     29  C   UNL     1      -3.782  10.595  14.997  0.00  0.00    +0.000 A 
ATOM     30  C   UNL     1      -2.639   9.820  15.171  0.00  0.00    +0.000 A 
ATOM     31  C   UNL     1      -2.026   9.781  16.415  0.00  0.00    +0.000 A 
ENDBRANCH  25  26
ENDBRANCH   7  25
TORSDOF 5
ENDMDL
MODEL 3
REMARK VINA RESULT:      -8.1      0.866      1.511
REMARK  Name = 
REMARK  7 active torsions:
REMARK  status: ('A' for Active; 'I' for Inactive)
REMARK    1  A    between atoms: C_1  and  O_2
REMARK    2  A    between atoms: O_2  and  C_3
REMARK    3  A    between atoms: C_6  and  C_7
REMARK    4  A    between atoms: C_13  and  S_14
REMARK    5  A    between atoms: S_14  and  C_15
REMARK    6  A    between atoms: C_21  and  C_22
REMARK    7  A    between atoms: N_28  and  C_29
REMARK                            x       y       z     vdW  Elec       q    Type
REMARK                         _______ _______ _______ _____ _____    ______ ____
ROOT
ATOM      1  C   UNL     1       2.290   7.450  18.771  0.00  0.00    +0.000 A 
ATOM      2  C   UNL     1       1.884   7.240  20.108  0.00  0.00    +0.000 A 
ATOM      3  C   UNL     1       1.285   8.251  20.879  0.00  0.00    +0.000 A 
ATOM      4  C   UNL     1       1.029   9.437  20.201  0.00  0.00    +0.000 A 
ATOM      5  C   UNL     1       0.906   9.458  18.814  0.00  0.00    +0.000 A 
ATOM      6  C   UNL     1       1.725   8.556  18.102  0.00  0.00    +0.000 A 
ATOM      7  C   UNL     1       0.218  10.671  18.550  0.00  0.00    +0.000 A 
ATOM      8  C   UNL     1       0.968  11.531  19.362  0.00  0.00    +0.000 A 
ATOM      9  N   UNL     1       0.941  10.779  20.554  0.00  0.00    +0.000 N 
ATOM     10  C   UNL     1       0.808  11.285  21.897  0.00  0.00    +0.000 C 
ENDROOT
BRANCH   1  14
ATOM     11  C   UNL     1       5.538   5.054  17.167  0.00  0.00    +0.000 A 
ATOM     12  C   UNL     1       5.392   6.388  16.790  0.00  0.00    +0.000 A 
ATOM     13  C   UNL     1       4.321   7.158  17.272  0.00  0.00    +0.000 A 
ATOM     14  C   UNL     1       3.363   6.621  18.144  0.00  0.00    +0.000 A 
ATOM     15  C   UNL     1       3.528   5.264  18.492  0.00  0.00    +0.000 A 
ATOM     16  C   UNL     1       4.589   4.487  18.009  0.00  0.00    +0.000 A 
BRANCH  11  18
ATOM     17  C   UNL     1       7.805   4.429  17.417  0.00  0.00    +0.000 C 
ATOM     18  O   UNL     1       6.618   4.409  16.632  0.00  0.00    +0.000 OA
ENDBRANCH  11  18
ENDBRANCH   1  14
BRANCH   8  19
ATOM     19  C   UNL     1       1.239  12.951  19.128  0.00  0.00    +0.000 A 
ATOM     20  C   UNL     1       0.160  13.865  19.223  0.00  0.00    +0.000 A 
ATOM     21  C   UNL     1       0.325  15.220  18.970  0.00  0.00    +0.000 A 
ATOM     22  C   UNL     1       1.563  15.698  18.588  0.00  0.00    +0.000 A 
ATOM     23  C   UNL     1       2.632  14.811  18.436  0.00  0.00    +0.000 A 
ATOM     24  C   UNL     1       2.469  13.448  18.696  0.00  0.00    +0.000 A 
ENDBRANCH   8  19
BRANCH   7  25
ATOM     25  S   UNL     1      -1.567  10.937  18.804  0.00  0.00    +0.000 S 
BRANCH  25  26
ATOM     26  C   UNL     1      -2.424  10.749  17.282  0.00  0.00    +0.000 A 
ATOM     27  C   UNL     1      -2.067   9.846  16.286  0.00  0.00    +0.000 A 
ATOM     28  C   UNL     1      -2.865   9.700  15.154  0.00  0.00    +0.000 A 
ATOM     29  C   UNL     1      -4.034  10.448  15.022  0.00  0.00    +0.000 A 
ATOM     30  C   UNL     1      -4.420  11.332  16.025  0.00  0.00    +0.000 A 
ATOM     31  C   UNL     1      -3.617  11.479  17.148  0.00  0.00    +0.000 A 
ENDBRANCH  25  26
ENDBRANCH   7  25
TORSDOF 5
ENDMDL
MODEL 4
REMARK VINA RESULT:      -8.0      1.036      1.674
REMARK  Name = 
REMARK  7 active torsions:
REMARK  status: ('A' for Active; 'I' for Inactive)
REMARK    1  A    between atoms: C_1  and  O_2
REMARK    2  A    between atoms: O_2  and  C_3
REMARK    3  A    between atoms: C_6  and  C_7
REMARK    4  A    between atoms: C_13  and  S_14
REMARK    5  A    between atoms: S_14  and  C_15
REMARK    6  A    between atoms: C_21  and  C_22
REMARK    7  A    between atoms: N_28  and  C_29
REMARK                            x       y       z     vdW  Elec       q    Type
REMARK                         _______ _______ _______ _____ _____    ______ ____
ROOT
ATOM      1  C   UNL     1       1.997   7.954  19.086  0.00  0.00    +0.000 A 
ATOM      2  C   UNL     1       1.601   7.858  20.439  0.00  0.00    +0.000 A 
ATOM      3  C   UNL     1       1.012   8.932  21.127  0.00  0.00    +0.000 A 
ATOM      4  C   UNL     1       0.755  10.059  20.354  0.00  0.00    +0.000 A 
ATOM      5  C   UNL     1       0.621   9.964  18.971  0.00  0.00    +0.000 A 
ATOM      6  C   UNL     1       1.431   9.003  18.331  0.00  0.00    +0.000 A 
ATOM      7  C   UNL     1      -0.064  11.154  18.612  0.00  0.00    +0.000 A 
ATOM      8  C   UNL     1       0.695  12.076  19.344  0.00  0.00    +0.000 A 
ATOM      9  N   UNL     1       0.674  11.426  20.594  0.00  0.00    +0.000 N 
ATOM     10  C   UNL     1       0.554  12.043  21.891  0.00  0.00    +0.000 C 
ENDROOT
BRANCH   1  14
ATOM     11  C   UNL     1       5.246   5.464  17.634  0.00  0.00    +0.000 A 
ATOM     12  C   UNL     1       4.913   6.646  16.974  0.00  0.00    +0.000 A 
ATOM     13  C   UNL     1       3.838   7.436  17.413  0.00  0.00    +0.000 A 
ATOM     14  C   UNL     1       3.062   7.071  18.523  0.00  0.00    +0.000 A 
ATOM     15  C   UNL     1       3.413   5.862  19.158  0.00  0.00    +0.000 A 
ATOM     16  C   UNL     1       4.479   5.064  18.721  0.00  0.00    +0.000 A 
BRANCH  11  18
ATOM     17  C   UNL     1       6.025   3.930  16.012  0.00  0.00    +0.000 C 
ATOM     18  O   UNL     1       6.311   4.783  17.114  0.00  0.00    +0.000 OA
ENDBRANCH  11  18
ENDBRANCH   1  14
BRANCH   8  19
ATOM     19  C   UNL     1       0.969  13.470  18.990  0.00  0.00    +0.000 A 
ATOM     20  C   UNL     1       2.284  13.815  18.591  0.00  0.00    +0.000 A 
ATOM     21  C   UNL     1       2.636  15.124  18.285  0.00  0.00    +0.000 A 
ATOM     22  C   UNL     1       1.694  16.128  18.395  0.00  0.00    +0.000 A 
ATOM     23  C   UNL     1       0.404  15.823  18.836  0.00  0.00    +0.000 A 
ATOM     24  C   UNL     1       0.047  14.507  19.139  0.00  0.00    +0.000 A 
ENDBRANCH   8  19
BRANCH   7  25
ATOM     25  S   UNL     1      -1.847  11.448  18.856  0.00  0.00    +0.000 S 
BRANCH  25  26
ATOM     26  C   UNL     1      -2.735  10.984  17.412  0.00  0.00    +0.000 A 
ATOM     27  C   UNL     1      -3.957  11.530  17.034  0.00  0.00    +0.000 A 
ATOM     28  C   UNL     1      -4.539  11.169  15.821  0.00  0.00    +0.000 A 
ATOM     29  C   UNL     1      -3.890  10.271  14.974  0.00  0.00    +0.000 A 
ATOM     30  C   UNL     1      -2.652   9.743  15.326  0.00  0.00    +0.000 A 
ATOM     31  C   UNL     1      -2.079  10.100  16.539  0.00  0.00    +0.000 A 
ENDBRANCH  25  26
ENDBRANCH   7  25
TORSDOF 5
ENDMDL
MODEL 5
REMARK VINA RESULT:      -8.0      3.514      8.969
REMARK  Name = 
REMARK  7 active torsions:
REMARK  status: ('A' for Active; 'I' for Inactive)
REMARK    1  A    between atoms: C_1  and  O_2
REMARK    2  A    between atoms: O_2  and  C_3
REMARK    3  A    between atoms: C_6  and  C_7
REMARK    4  A    between atoms: C_13  and  S_14
REMARK    5  A    between atoms: S_14  and  C_15
REMARK    6  A    between atoms: C_21  and  C_22
REMARK    7  A    between atoms: N_28  and  C_29
REMARK                            x       y       z     vdW  Elec       q    Type
REMARK                         _______ _______ _______ _____ _____    ______ ____
ROOT
ATOM      1  C   UNL     1       0.217   9.625  18.491  0.00  0.00    +0.000 A 
ATOM      2  C   UNL     1       0.551   9.785  19.855  0.00  0.00    +0.000 A 
ATOM      3  C   UNL     1       1.359   8.864  20.544  0.00  0.00    +0.000 A 
ATOM      4  C   UNL     1       1.886   7.842  19.763  0.00  0.00    +0.000 A 
ATOM      5  C   UNL     1       2.023   7.990  18.385  0.00  0.00    +0.000 A 
ATOM      6  C   UNL     1       1.027   8.750  17.738  0.00  0.00    +0.000 A 
ATOM      7  C   UNL     1       2.974   6.998  18.028  0.00  0.00    +0.000 A 
ATOM      8  C   UNL     1       2.434   5.912  18.729  0.00  0.00    +0.000 A 
ATOM      9  N   UNL     1       2.277   6.526  19.988  0.00  0.00    +0.000 N 
ATOM     10  C   UNL     1       2.509   5.931  21.280  0.00  0.00    +0.000 C 
ENDROOT
BRANCH   1  14
ATOM     11  C   UNL     1      -3.490  11.323  16.993  0.00  0.00    +0.000 A 
ATOM     12  C   UNL     1      -2.883  10.255  16.332  0.00  0.00    +0.000 A 
ATOM     13  C   UNL     1      -1.664   9.727  16.786  0.00  0.00    +0.000 A 
ATOM     14  C   UNL     1      -1.012  10.248  17.914  0.00  0.00    +0.000 A 
ATOM     15  C   UNL     1      -1.641  11.338  18.549  0.00  0.00    +0.000 A 
ATOM     16  C   UNL     1      -2.853  11.876  18.098  0.00  0.00    +0.000 A 
BRANCH  11  18
ATOM     17  C   UNL     1      -5.704  12.051  17.389  0.00  0.00    +0.000 C 
ATOM     18  O   UNL     1      -4.672  11.749  16.457  0.00  0.00    +0.000 OA
ENDBRANCH  11  18
ENDBRANCH   1  14
BRANCH   8  19
ATOM     19  C   UNL     1       2.498   4.499  18.351  0.00  0.00    +0.000 A 
ATOM     20  C   UNL     1       1.355   3.692  18.575  0.00  0.00    +0.000 A 
ATOM     21  C   UNL     1       1.352   2.333  18.287  0.00  0.00    +0.000 A 
ATOM     22  C   UNL     1       2.496   1.737  17.795  0.00  0.00    +0.000 A 
ATOM     23  C   UNL     1       3.653   2.499  17.613  0.00  0.00    +0.000 A 
ATOM     24  C   UNL     1       3.656   3.866  17.897  0.00  0.00    +0.000 A 
ENDBRANCH   8  19
BRANCH   7  25
ATOM     25  S   UNL     1       4.770   7.120  18.313  0.00  0.00    +0.000 S 
BRANCH  25  26
ATOM     26  C   UNL     1       5.633   6.167  17.116  0.00  0.00    +0.000 A 
ATOM     27  C   UNL     1       6.721   5.347  17.401  0.00  0.00    +0.000 A 
ATOM     28  C   UNL     1       7.279   4.553  16.401  0.00  0.00    +0.000 A 
ATOM     29  C   UNL     1       6.740   4.566  15.116  0.00  0.00    +0.000 A 
ATOM     30  C   UNL     1       5.633   5.357  14.826  0.00  0.00    +0.000 A 
ATOM     31  C   UNL     1       5.084   6.152  15.823  0.00  0.00    +0.000 A 
ENDBRANCH  25  26
ENDBRANCH   7  25
TORSDOF 5
ENDMDL
MODEL 6
REMARK VINA RESULT:      -7.9      1.199      2.000
REMARK  Name = 
REMARK  7 active torsions:
REMARK  status: ('A' for Active; 'I' for Inactive)
REMARK    1  A    between atoms: C_1  and  O_2
REMARK    2  A    between atoms: O_2  and  C_3
REMARK    3  A    between atoms: C_6  and  C_7
REMARK    4  A    between atoms: C_13  and  S_14
REMARK    5  A    between atoms: S_14  and  C_15
REMARK    6  A    between atoms: C_21  and  C_22
REMARK    7  A    between atoms: N_28  and  C_29
REMARK                            x       y       z     vdW  Elec       q    Type
REMARK                         _______ _______ _______ _____ _____    ______ ____
ROOT
ATOM      1  C   UNL     1       1.653   8.392  19.438  0.00  0.00    +0.000 A 
ATOM      2  C   UNL     1       1.224   8.506  20.779  0.00  0.00    +0.000 A 
ATOM      3  C   UNL     1       0.807   9.729  21.334  0.00  0.00    +0.000 A 
ATOM      4  C   UNL     1       0.752  10.794  20.441  0.00  0.00    +0.000 A 
ATOM      5  C   UNL     1       0.628  10.575  19.071  0.00  0.00    +0.000 A 
ATOM      6  C   UNL     1       1.280   9.433  18.561  0.00  0.00    +0.000 A 
ATOM      7  C   UNL     1       0.153  11.814  18.569  0.00  0.00    +0.000 A 
ATOM      8  C   UNL     1       1.040  12.674  19.228  0.00  0.00    +0.000 A 
ATOM      9  N   UNL     1       0.892  12.173  20.537  0.00  0.00    +0.000 N 
ATOM     10  C   UNL     1       0.852  12.935  21.760  0.00  0.00    +0.000 C 
ENDROOT
BRANCH   1  14
ATOM     11  C   UNL     1       4.150   5.145  17.995  0.00  0.00    +0.000 A 
ATOM     12  C   UNL     1       3.398   4.994  19.160  0.00  0.00    +0.000 A 
ATOM     13  C   UNL     1       2.620   6.053  19.655  0.00  0.00    +0.000 A 
ATOM     14  C   UNL     1       2.569   7.294  19.005  0.00  0.00    +0.000 A 
ATOM     15  C   UNL     1       3.354   7.421  17.840  0.00  0.00    +0.000 A 
ATOM     16  C   UNL     1       4.140   6.372  17.344  0.00  0.00    +0.000 A 
BRANCH  11  18
ATOM     17  C   UNL     1       5.502   4.127  16.343  0.00  0.00    +0.000 C 
ATOM     18  O   UNL     1       4.866   4.045  17.614  0.00  0.00    +0.000 OA
ENDBRANCH  11  18
ENDBRANCH   1  14
BRANCH   8  19
ATOM     19  C   UNL     1       1.546  13.960  18.744  0.00  0.00    +0.000 A 
ATOM     20  C   UNL     1       2.842  14.001  18.173  0.00  0.00    +0.000 A 
ATOM     21  C   UNL     1       3.411  15.188  17.733  0.00  0.00    +0.000 A 
ATOM     22  C   UNL     1       2.715  16.373  17.875  0.00  0.00    +0.000 A 
ATOM     23  C   UNL     1       1.456  16.369  18.482  0.00  0.00    +0.000 A 
ATOM     24  C   UNL     1       0.880  15.175  18.920  0.00  0.00    +0.000 A 
ENDBRANCH   8  19
BRANCH   7  25
ATOM     25  S   UNL     1      -1.561  12.417  18.721  0.00  0.00    +0.000 S 
BRANCH  25  26
ATOM     26  C   UNL     1      -2.603  11.547  17.605  0.00  0.00    +0.000 A 
ATOM     27  C   UNL     1      -3.979  11.733  17.509  0.00  0.00    +0.000 A 
ATOM     28  C   UNL     1      -4.708  11.068  16.526  0.00  0.00    +0.000 A 
ATOM     29  C   UNL     1      -4.059  10.226  15.624  0.00  0.00    +0.000 A 
ATOM     30  C   UNL     1      -2.680  10.057  15.688  0.00  0.00    +0.000 A 
ATOM     31  C   UNL     1      -1.958  10.716  16.674  0.00  0.00    +0.000 A 
ENDBRANCH  25  26
ENDBRANCH   7  25
TORSDOF 5
ENDMDL
MODEL 7
REMARK VINA RESULT:      -7.8      1.107      1.590
REMARK  Name = 
REMARK  7 active torsions:
REMARK  status: ('A' for Active; 'I' for Inactive)
REMARK    1  A    between atoms: C_1  and  O_2
REMARK    2  A    between atoms: O_2  and  C_3
REMARK    3  A    between atoms: C_6  and  C_7
REMARK    4  A    between atoms: C_13  and  S_14
REMARK    5  A    between atoms: S_14  and  C_15
REMARK    6  A    between atoms: C_21  and  C_22
REMARK    7  A    between atoms: N_28  and  C_29
REMARK                            x       y       z     vdW  Elec       q    Type
REMARK                         _______ _______ _______ _____ _____    ______ ____
ROOT
ATOM      1  C   UNL     1       1.918   8.055  18.753  0.00  0.00    +0.000 A 
ATOM      2  C   UNL     1       1.537   8.005  20.113  0.00  0.00    +0.000 A 
ATOM      3  C   UNL     1       1.109   9.145  20.815  0.00  0.00    +0.000 A 
ATOM      4  C   UNL     1       0.992  10.300  20.051  0.00  0.00    +0.000 A 
ATOM      5  C   UNL     1       0.823  10.232  18.670  0.00  0.00    +0.000 A 
ATOM      6  C   UNL     1       1.484   9.175  18.012  0.00  0.00    +0.000 A 
ATOM      7  C   UNL     1       0.296  11.505  18.329  0.00  0.00    +0.000 A 
ATOM      8  C   UNL     1       1.185  12.313  19.049  0.00  0.00    +0.000 A 
ATOM      9  N   UNL     1       1.099  11.665  20.297  0.00  0.00    +0.000 N 
ATOM     10  C   UNL     1       1.086  12.284  21.599  0.00  0.00    +0.000 C 
ENDROOT
BRANCH   1  14
ATOM     11  C   UNL     1       4.714   5.076  17.280  0.00  0.00    +0.000 A 
ATOM     12  C   UNL     1       4.918   6.429  17.012  0.00  0.00    +0.000 A 
ATOM     13  C   UNL     1       3.997   7.395  17.449  0.00  0.00    +0.000 A 
ATOM     14  C   UNL     1       2.845   7.041  18.167  0.00  0.00    +0.000 A 
ATOM     15  C   UNL     1       2.659   5.664  18.406  0.00  0.00    +0.000 A 
ATOM     16  C   UNL     1       3.569   4.693  17.966  0.00  0.00    +0.000 A 
BRANCH  11  18
ATOM     17  C   UNL     1       7.013   4.725  16.849  0.00  0.00    +0.000 C 
ATOM     18  O   UNL     1       5.679   4.233  16.802  0.00  0.00    +0.000 OA
ENDBRANCH  11  18
ENDBRANCH   1  14
BRANCH   8  19
ATOM     19  C   UNL     1       1.637  13.660  18.695  0.00  0.00    +0.000 A 
ATOM     20  C   UNL     1       2.946  13.814  18.176  0.00  0.00    +0.000 A 
ATOM     21  C   UNL     1       3.466  15.062  17.860  0.00  0.00    +0.000 A 
ATOM     22  C   UNL     1       2.706  16.194  18.080  0.00  0.00    +0.000 A 
ATOM     23  C   UNL     1       1.431  16.075  18.640  0.00  0.00    +0.000 A 
ATOM     24  C   UNL     1       0.904  14.820  18.953  0.00  0.00    +0.000 A 
ENDBRANCH   8  19
BRANCH   7  25
ATOM     25  S   UNL     1      -1.426  12.034  18.606  0.00  0.00    +0.000 S 
BRANCH  25  26
ATOM     26  C   UNL     1      -2.467  11.368  17.357  0.00  0.00    +0.000 A 
ATOM     27  C   UNL     1      -2.055  10.444  16.402  0.00  0.00    +0.000 A 
ATOM     28  C   UNL     1      -2.978   9.899  15.513  0.00  0.00    +0.000 A 
ATOM     29  C   UNL     1      -4.320  10.266  15.586  0.00  0.00    +0.000 A 
ATOM     30  C   UNL     1      -4.751  11.164  16.556  0.00  0.00    +0.000 A 
ATOM     31  C   UNL     1      -3.827  11.711  17.437  0.00  0.00    +0.000 A 
ENDBRANCH  25  26
ENDBRANCH   7  25
TORSDOF 5
ENDMDL
MODEL 8
REMARK VINA RESULT:      -7.7      2.719      4.352
REMARK  Name = 
REMARK  7 active torsions:
REMARK  status: ('A' for Active; 'I' for Inactive)
REMARK    1  A    between atoms: C_1  and  O_2
REMARK    2  A    between atoms: O_2  and  C_3
REMARK    3  A    between atoms: C_6  and  C_7
REMARK    4  A    between atoms: C_13  and  S_14
REMARK    5  A    between atoms: S_14  and  C_15
REMARK    6  A    between atoms: C_21  and  C_22
REMARK    7  A    between atoms: N_28  and  C_29
REMARK                            x       y       z     vdW  Elec       q    Type
REMARK                         _______ _______ _______ _____ _____    ______ ____
ROOT
ATOM      1  C   UNL     1       0.110   9.908  20.565  0.00  0.00    +0.000 A 
ATOM      2  C   UNL     1       0.026   9.994  21.974  0.00  0.00    +0.000 A 
ATOM      3  C   UNL     1      -0.447  11.143  22.630  0.00  0.00    +0.000 A 
ATOM      4  C   UNL     1      -0.919  12.148  21.794  0.00  0.00    +0.000 A 
ATOM      5  C   UNL     1      -1.349  11.862  20.500  0.00  0.00    +0.000 A 
ATOM      6  C   UNL     1      -0.656  10.834  19.826  0.00  0.00    +0.000 A 
ATOM      7  C   UNL     1      -2.151  12.979  20.152  0.00  0.00    +0.000 A 
ATOM      8  C   UNL     1      -1.293  14.006  20.568  0.00  0.00    +0.000 A 
ATOM      9  N   UNL     1      -1.008  13.534  21.865  0.00  0.00    +0.000 N 
ATOM     10  C   UNL     1      -0.869  14.321  23.064  0.00  0.00    +0.000 C 
ENDROOT
BRANCH   1  14
ATOM     11  C   UNL     1       2.692   7.094  18.498  0.00  0.00    +0.000 A 
ATOM     12  C   UNL     1       2.339   6.881  19.830  0.00  0.00    +0.000 A 
ATOM     13  C   UNL     1       1.538   7.807  20.518  0.00  0.00    +0.000 A 
ATOM     14  C   UNL     1       1.065   8.974  19.898  0.00  0.00    +0.000 A 
ATOM     15  C   UNL     1       1.454   9.168  18.557  0.00  0.00    +0.000 A 
ATOM     16  C   UNL     1       2.260   8.253  17.866  0.00  0.00    +0.000 A 
BRANCH  11  18
ATOM     17  C   UNL     1       4.452   5.542  18.792  0.00  0.00    +0.000 C 
ATOM     18  O   UNL     1       3.474   6.123  17.937  0.00  0.00    +0.000 OA
ENDBRANCH  11  18
ENDBRANCH   1  14
BRANCH   8  19
ATOM     19  C   UNL     1      -1.168  15.342  19.983  0.00  0.00    +0.000 A 
ATOM     20  C   UNL     1      -2.056  16.354  20.425  0.00  0.00    +0.000 A 
ATOM     21  C   UNL     1      -2.033  17.634  19.886  0.00  0.00    +0.000 A 
ATOM     22  C   UNL     1      -1.144  17.932  18.872  0.00  0.00    +0.000 A 
ATOM     23  C   UNL     1      -0.293  16.938  18.382  0.00  0.00    +0.000 A 
ATOM     24  C   UNL     1      -0.311  15.652  18.926  0.00  0.00    +0.000 A 
ENDBRANCH   8  19
BRANCH   7  25
ATOM     25  S   UNL     1      -3.848  13.276  20.749  0.00  0.00    +0.000 S 
BRANCH  25  26
ATOM     26  C   UNL     1      -4.991  12.344  19.794  0.00  0.00    +0.000 A 
ATOM     27  C   UNL     1      -4.733  11.856  18.517  0.00  0.00    +0.000 A 
ATOM     28  C   UNL     1      -5.666  11.044  17.877  0.00  0.00    +0.000 A 
ATOM     29  C   UNL     1      -6.855  10.704  18.520  0.00  0.00    +0.000 A 
ATOM     30  C   UNL     1      -7.112  11.160  19.809  0.00  0.00    +0.000 A 
ATOM     31  C   UNL     1      -6.182  11.975  20.440  0.00  0.00    +0.000 A 
ENDBRANCH  25  26
ENDBRANCH   7  25
TORSDOF 5
ENDMDL
MODEL 9
REMARK VINA RESULT:      -7.7      1.827      2.692
REMARK  Name = 
REMARK  7 active torsions:
REMARK  status: ('A' for Active; 'I' for Inactive)
REMARK    1  A    between atoms: C_1  and  O_2
REMARK    2  A    between atoms: O_2  and  C_3
REMARK    3  A    between atoms: C_6  and  C_7
REMARK    4  A    between atoms: C_13  and  S_14
REMARK    5  A    between atoms: S_14  and  C_15
REMARK    6  A    between atoms: C_21  and  C_22
REMARK    7  A    between atoms: N_28  and  C_29
REMARK                            x       y       z     vdW  Elec       q    Type
REMARK                         _______ _______ _______ _____ _____    ______ ____
ROOT
ATOM      1  C   UNL     1       1.511   8.572  19.627  0.00  0.00    +0.000 A 
ATOM      2  C   UNL     1       0.884   8.811  20.871  0.00  0.00    +0.000 A 
ATOM      3  C   UNL     1       0.554  10.105  21.310  0.00  0.00    +0.000 A 
ATOM      4  C   UNL     1       0.796  11.120  20.391  0.00  0.00    +0.000 A 
ATOM      5  C   UNL     1       0.873  10.848  19.027  0.00  0.00    +0.000 A 
ATOM      6  C   UNL     1       1.436   9.606  18.669  0.00  0.00    +0.000 A 
ATOM      7  C   UNL     1       0.664  12.112  18.415  0.00  0.00    +0.000 A 
ATOM      8  C   UNL     1       1.540  12.881  19.192  0.00  0.00    +0.000 A 
ATOM      9  N   UNL     1       1.108  12.472  20.470  0.00  0.00    +0.000 N 
ATOM     10  C   UNL     1       0.971  13.295  21.645  0.00  0.00    +0.000 C 
ENDROOT
BRANCH   1  14
ATOM     11  C   UNL     1       3.704   4.923  18.769  0.00  0.00    +0.000 A 
ATOM     12  C   UNL     1       2.976   5.047  19.951  0.00  0.00    +0.000 A 
ATOM     13  C   UNL     1       2.297   6.239  20.255  0.00  0.00    +0.000 A 
ATOM     14  C   UNL     1       2.325   7.342  19.390  0.00  0.00    +0.000 A 
ATOM     15  C   UNL     1       3.085   7.191  18.211  0.00  0.00    +0.000 A 
ATOM     16  C   UNL     1       3.772   6.009  17.905  0.00  0.00    +0.000 A 
BRANCH  11  18
ATOM     17  C   UNL     1       4.162   2.771  19.637  0.00  0.00    +0.000 C 
ATOM     18  O   UNL     1       4.321   3.717  18.585  0.00  0.00    +0.000 OA
ENDBRANCH  11  18
ENDBRANCH   1  14
BRANCH   8  19
ATOM     19  C   UNL     1       2.292  14.062  18.764  0.00  0.00    +0.000 A 
ATOM     20  C   UNL     1       1.631  15.316  18.767  0.00  0.00    +0.000 A 
ATOM     21  C   UNL     1       2.259  16.475  18.331  0.00  0.00    +0.000 A 
ATOM     22  C   UNL     1       3.554  16.412  17.856  0.00  0.00    +0.000 A 
ATOM     23  C   UNL     1       4.212  15.181  17.795  0.00  0.00    +0.000 A 
ATOM     24  C   UNL     1       3.583  14.015  18.237  0.00  0.00    +0.000 A 
ENDBRANCH   8  19
BRANCH   7  25
ATOM     25  S   UNL     1      -0.951  12.941  18.252  0.00  0.00    +0.000 S 
BRANCH  25  26
ATOM     26  C   UNL     1      -2.197  11.760  17.880  0.00  0.00    +0.000 A 
ATOM     27  C   UNL     1      -1.993  10.621  17.105  0.00  0.00    +0.000 A 
ATOM     28  C   UNL     1      -3.018   9.692  16.946  0.00  0.00    +0.000 A 
ATOM     29  C   UNL     1      -4.247   9.890  17.574  0.00  0.00    +0.000 A 
ATOM     30  C   UNL     1      -4.453  11.008  18.377  0.00  0.00    +0.000 A 
ATOM     31  C   UNL     1      -3.431  11.936  18.527  0.00  0.00    +0.000 A 
ENDBRANCH  25  26
ENDBRANCH   7  25
TORSDOF 5
ENDMDL
