MODEL 1
REMARK VINA RESULT:      -7.0      0.000      0.000
REMARK  Name = 
REMARK  2 active torsions:
REMARK  status: ('A' for Active; 'I' for Inactive)
REMARK    1  A    between atoms: N_8  and  C_9
REMARK    2  A    between atoms: C_9  and  C_10
REMARK                            x       y       z     vdW  Elec       q    Type
REMARK                         _______ _______ _______ _____ _____    ______ ____
ROOT
ATOM      1  N   UNL     1       0.703   2.852  21.231  0.00  0.00    +0.000 N 
ATOM      2  C   UNL     1       2.050   2.957  21.148  0.00  0.00    +0.000 C 
ATOM      3  O   UNL     1       2.709   2.846  22.175  0.00  0.00    +0.000 OA
ATOM      4  N   UNL     1       2.582   3.147  19.894  0.00  0.00    +0.000 N 
ATOM      5  C   UNL     1       1.803   3.388  18.680  0.00  0.00    +0.000 C 
ATOM      6  C   UNL     1       1.879   4.798  18.103  0.00  0.00    +0.000 C 
ATOM      7  C   UNL     1       3.235   5.491  17.945  0.00  0.00    +0.000 C 
ATOM      8  N   UNL     1       4.465   4.707  17.896  0.00  0.00    +0.000 NA
ATOM      9  C   UNL     1       4.804   4.184  19.231  0.00  0.00    +0.000 C 
ATOM     10  C   UNL     1       4.029   2.958  19.734  0.00  0.00    +0.000 C 
ATOM     11  H   UNL     1       0.409   2.615  22.169  0.00  0.00    +0.000 HD
ATOM     12  H   UNL     1       0.260   2.273  20.533  0.00  0.00    +0.000 HD
ENDROOT
BRANCH   8  13
ATOM     13  C   UNL     1       4.564   3.708  16.828  0.00  0.00    +0.000 C 
BRANCH  13  14
ATOM     14  C   UNL     1       5.529   4.091  15.741  0.00  0.00    +0.000 A 
ATOM     15  C   UNL     1       5.548   3.673  14.424  0.00  0.00    +0.000 A 
ATOM     16  C   UNL     1       6.618   4.253  13.689  0.00  0.00    +0.000 A 
ATOM     17 CL   UNL     1       6.901   3.911  12.039  0.00  0.00    +0.000 Cl
ATOM     18  C   UNL     1       7.376   5.105  14.456  0.00  0.00    +0.000 A 
ATOM     19  S   UNL     1       6.792   5.211  16.059  0.00  0.00    +0.000 S 
ENDBRANCH  13  14
ENDBRANCH   8  13
TORSDOF 2
ENDMDL
MODEL 2
REMARK VINA RESULT:      -6.2      4.111      6.328
REMARK  Name = 
REMARK  2 active torsions:
REMARK  status: ('A' for Active; 'I' for Inactive)
REMARK    1  A    between atoms: N_8  and  C_9
REMARK    2  A    between atoms: C_9  and  C_10
REMARK                            x       y       z     vdW  Elec       q    Type
REMARK                         _______ _______ _______ _____ _____    ______ ____
ROOT
ATOM      1  N   UNL     1       7.931   7.910  17.018  0.00  0.00    +0.000 N 
ATOM      2  C   UNL     1       7.504   6.960  17.882  0.00  0.00    +0.000 C 
ATOM      3  O   UNL     1       8.200   6.701  18.856  0.00  0.00    +0.000 OA
ATOM      4  N   UNL     1       6.288   6.377  17.613  0.00  0.00    +0.000 N 
ATOM      5  C   UNL     1       5.501   6.600  16.401  0.00  0.00    +0.000 C 
ATOM      6  C   UNL     1       5.429   5.430  15.424  0.00  0.00    +0.000 C 
ATOM      7  C   UNL     1       5.127   4.020  15.936  0.00  0.00    +0.000 C 
ATOM      8  N   UNL     1       4.470   3.825  17.224  0.00  0.00    +0.000 NA
ATOM      9  C   UNL     1       5.398   4.109  18.332  0.00  0.00    +0.000 C 
ATOM     10  C   UNL     1       5.666   5.581  18.678  0.00  0.00    +0.000 C 
ATOM     11  H   UNL     1       8.779   8.352  17.346  0.00  0.00    +0.000 HD
ATOM     12  H   UNL     1       7.240   8.583  16.723  0.00  0.00    +0.000 HD
ENDROOT
BRANCH   8  13
ATOM     13  C   UNL     1       3.150   4.442  17.386  0.00  0.00    +0.000 C 
BRANCH  13  14
ATOM     14  C   UNL     1       2.621   4.357  18.790  0.00  0.00    +0.000 A 
ATOM     15  C   UNL     1       2.318   3.227  19.527  0.00  0.00    +0.000 A 
ATOM     16  C   UNL     1       1.839   3.543  20.827  0.00  0.00    +0.000 A 
ATOM     17 CL   UNL     1       1.373   2.349  21.957  0.00  0.00    +0.000 Cl
ATOM     18  C   UNL     1       1.801   4.898  21.054  0.00  0.00    +0.000 A 
ATOM     19  S   UNL     1       2.350   5.787  19.702  0.00  0.00    +0.000 S 
ENDBRANCH  13  14
ENDBRANCH   8  13
TORSDOF 2
ENDMDL
MODEL 3
REMARK VINA RESULT:      -6.2      1.173      1.623
REMARK  Name = 
REMARK  2 active torsions:
REMARK  status: ('A' for Active; 'I' for Inactive)
REMARK    1  A    between atoms: N_8  and  C_9
REMARK    2  A    between atoms: C_9  and  C_10
REMARK                            x       y       z     vdW  Elec       q    Type
REMARK                         _______ _______ _______ _____ _____    ______ ____
ROOT
ATOM      1  N   UNL     1       1.920   3.049  22.012  0.00  0.00    +0.000 N 
ATOM      2  C   UNL     1       2.228   4.086  21.198  0.00  0.00    +0.000 C 
ATOM      3  O   UNL     1       1.799   5.199  21.481  0.00  0.00    +0.000 OA
ATOM      4  N   UNL     1       3.039   3.812  20.122  0.00  0.00    +0.000 N 
ATOM      5  C   UNL     1       3.467   2.475  19.714  0.00  0.00    +0.000 C 
ATOM      6  C   UNL     1       2.850   1.936  18.427  0.00  0.00    +0.000 C 
ATOM      7  C   UNL     1       2.787   2.818  17.178  0.00  0.00    +0.000 C 
ATOM      8  N   UNL     1       3.682   3.962  17.034  0.00  0.00    +0.000 NA
ATOM      9  C   UNL     1       3.271   5.062  17.922  0.00  0.00    +0.000 C 
ATOM     10  C   UNL     1       3.633   4.951  19.410  0.00  0.00    +0.000 C 
ATOM     11  H   UNL     1       1.407   3.359  22.826  0.00  0.00    +0.000 HD
ATOM     12  H   UNL     1       2.682   2.433  22.252  0.00  0.00    +0.000 HD
ENDROOT
BRANCH   8  13
ATOM     13  C   UNL     1       5.120   3.678  17.073  0.00  0.00    +0.000 C 
BRANCH  13  14
ATOM     14  C   UNL     1       5.838   4.065  15.810  0.00  0.00    +0.000 A 
ATOM     15  C   UNL     1       5.741   3.489  14.557  0.00  0.00    +0.000 A 
ATOM     16  C   UNL     1       6.577   4.130  13.603  0.00  0.00    +0.000 A 
ATOM     17 CL   UNL     1       6.676   3.628  11.973  0.00  0.00    +0.000 Cl
ATOM     18  C   UNL     1       7.277   5.182  14.145  0.00  0.00    +0.000 A 
ATOM     19  S   UNL     1       6.919   5.400  15.802  0.00  0.00    +0.000 S 
ENDBRANCH  13  14
ENDBRANCH   8  13
TORSDOF 2
ENDMDL
MODEL 4
REMARK VINA RESULT:      -6.2      4.232      6.353
REMARK  Name = 
REMARK  2 active torsions:
REMARK  status: ('A' for Active; 'I' for Inactive)
REMARK    1  A    between atoms: N_8  and  C_9
REMARK    2  A    between atoms: C_9  and  C_10
REMARK                            x       y       z     vdW  Elec       q    Type
REMARK                         _______ _______ _______ _____ _____    ______ ____
ROOT
ATOM      1  N   UNL     1       7.851   8.386  17.250  0.00  0.00    +0.000 N 
ATOM      2  C   UNL     1       7.581   7.263  17.956  0.00  0.00    +0.000 C 
ATOM      3  O   UNL     1       8.384   6.901  18.807  0.00  0.00    +0.000 OA
ATOM      4  N   UNL     1       6.393   6.628  17.682  0.00  0.00    +0.000 N 
ATOM      5  C   UNL     1       5.480   6.987  16.598  0.00  0.00    +0.000 C 
ATOM      6  C   UNL     1       5.404   6.007  15.431  0.00  0.00    +0.000 C 
ATOM      7  C   UNL     1       5.260   4.506  15.698  0.00  0.00    +0.000 C 
ATOM      8  N   UNL     1       4.745   4.028  16.977  0.00  0.00    +0.000 NA
ATOM      9  C   UNL     1       5.749   4.196  18.040  0.00  0.00    +0.000 C 
ATOM     10  C   UNL     1       5.936   5.602  18.629  0.00  0.00    +0.000 C 
ATOM     11  H   UNL     1       8.690   8.839  17.585  0.00  0.00    +0.000 HD
ATOM     12  H   UNL     1       7.085   9.034  17.139  0.00  0.00    +0.000 HD
ENDROOT
BRANCH   8  13
ATOM     13  C   UNL     1       3.403   4.483  17.354  0.00  0.00    +0.000 C 
BRANCH  13  14
ATOM     14  C   UNL     1       2.737   3.597  18.369  0.00  0.00    +0.000 A 
ATOM     15  C   UNL     1       2.436   3.880  19.689  0.00  0.00    +0.000 A 
ATOM     16  C   UNL     1       1.801   2.790  20.343  0.00  0.00    +0.000 A 
ATOM     17 CL   UNL     1       1.324   2.844  21.983  0.00  0.00    +0.000 Cl
ATOM     18  C   UNL     1       1.623   1.713  19.508  0.00  0.00    +0.000 A 
ATOM     19  S   UNL     1       2.214   2.021  17.934  0.00  0.00    +0.000 S 
ENDBRANCH  13  14
ENDBRANCH   8  13
TORSDOF 2
ENDMDL
MODEL 5
REMARK VINA RESULT:      -6.0      2.833      3.417
REMARK  Name = 
REMARK  2 active torsions:
REMARK  status: ('A' for Active; 'I' for Inactive)
REMARK    1  A    between atoms: N_8  and  C_9
REMARK    2  A    between atoms: C_9  and  C_10
REMARK                            x       y       z     vdW  Elec       q    Type
REMARK                         _______ _______ _______ _____ _____    ______ ____
ROOT
ATOM      1  N   UNL     1       1.039   8.162  21.593  0.00  0.00    +0.000 N 
ATOM      2  C   UNL     1       1.521   8.009  20.337  0.00  0.00    +0.000 C 
ATOM      3  O   UNL     1       1.415   8.945  19.554  0.00  0.00    +0.000 OA
ATOM      4  N   UNL     1       2.130   6.811  20.048  0.00  0.00    +0.000 N 
ATOM      5  C   UNL     1       2.167   5.652  20.938  0.00  0.00    +0.000 C 
ATOM      6  C   UNL     1       1.315   4.457  20.519  0.00  0.00    +0.000 C 
ATOM      7  C   UNL     1       1.359   3.952  19.076  0.00  0.00    +0.000 C 
ATOM      8  N   UNL     1       2.496   4.265  18.216  0.00  0.00    +0.000 NA
ATOM      9  C   UNL     1       2.461   5.677  17.798  0.00  0.00    +0.000 C 
ATOM     10  C   UNL     1       2.922   6.732  18.814  0.00  0.00    +0.000 C 
ATOM     11  H   UNL     1       0.700   9.102  21.746  0.00  0.00    +0.000 HD
ATOM     12  H   UNL     1       1.640   7.846  22.340  0.00  0.00    +0.000 HD
ENDROOT
BRANCH   8  13
ATOM     13  C   UNL     1       3.812   3.820  18.682  0.00  0.00    +0.000 C 
BRANCH  13  14
ATOM     14  C   UNL     1       4.907   4.042  17.676  0.00  0.00    +0.000 A 
ATOM     15  C   UNL     1       4.901   3.753  16.324  0.00  0.00    +0.000 A 
ATOM     16  C   UNL     1       6.125   4.106  15.692  0.00  0.00    +0.000 A 
ATOM     17 CL   UNL     1       6.413   3.854  14.027  0.00  0.00    +0.000 Cl
ATOM     18  C   UNL     1       7.023   4.665  16.569  0.00  0.00    +0.000 A 
ATOM     19  S   UNL     1       6.387   4.770  18.152  0.00  0.00    +0.000 S 
ENDBRANCH  13  14
ENDBRANCH   8  13
TORSDOF 2
ENDMDL
MODEL 6
REMARK VINA RESULT:      -6.0      4.763      6.821
REMARK  Name = 
REMARK  2 active torsions:
REMARK  status: ('A' for Active; 'I' for Inactive)
REMARK    1  A    between atoms: N_8  and  C_9
REMARK    2  A    between atoms: C_9  and  C_10
REMARK                            x       y       z     vdW  Elec       q    Type
REMARK                         _______ _______ _______ _____ _____    ______ ____
ROOT
ATOM      1  N   UNL     1       6.544   3.645  14.493  0.00  0.00    +0.000 N 
ATOM      2  C   UNL     1       6.509   4.792  15.210  0.00  0.00    +0.000 C 
ATOM      3  O   UNL     1       7.440   5.580  15.097  0.00  0.00    +0.000 OA
ATOM      4  N   UNL     1       5.399   5.002  15.992  0.00  0.00    +0.000 N 
ATOM      5  C   UNL     1       4.335   4.023  16.218  0.00  0.00    +0.000 C 
ATOM      6  C   UNL     1       4.273   3.410  17.614  0.00  0.00    +0.000 C 
ATOM      7  C   UNL     1       4.368   4.305  18.851  0.00  0.00    +0.000 C 
ATOM      8  N   UNL     1       4.062   5.729  18.760  0.00  0.00    +0.000 NA
ATOM      9  C   UNL     1       5.140   6.451  18.063  0.00  0.00    +0.000 C 
ATOM     10  C   UNL     1       5.191   6.352  16.532  0.00  0.00    +0.000 C 
ATOM     11  H   UNL     1       7.344   3.621  13.874  0.00  0.00    +0.000 HD
ATOM     12  H   UNL     1       5.689   3.390  14.022  0.00  0.00    +0.000 HD
ENDROOT
BRANCH   8  13
ATOM     13  C   UNL     1       2.717   6.082  18.293  0.00  0.00    +0.000 C 
BRANCH  13  14
ATOM     14  C   UNL     1       2.165   7.317  18.946  0.00  0.00    +0.000 A 
ATOM     15  C   UNL     1       1.819   7.506  20.272  0.00  0.00    +0.000 A 
ATOM     16  C   UNL     1       1.329   8.817  20.520  0.00  0.00    +0.000 A 
ATOM     17 CL   UNL     1       0.812   9.335  22.064  0.00  0.00    +0.000 Cl
ATOM     18  C   UNL     1       1.326   9.596  19.388  0.00  0.00    +0.000 A 
ATOM     19  S   UNL     1       1.921   8.748  18.029  0.00  0.00    +0.000 S 
ENDBRANCH  13  14
ENDBRANCH   8  13
TORSDOF 2
ENDMDL
MODEL 7
REMARK VINA RESULT:      -5.9      4.233      6.425
REMARK  Name = 
REMARK  2 active torsions:
REMARK  status: ('A' for Active; 'I' for Inactive)
REMARK    1  A    between atoms: N_8  and  C_9
REMARK    2  A    between atoms: C_9  and  C_10
REMARK                            x       y       z     vdW  Elec       q    Type
REMARK                         _______ _______ _______ _____ _____    ______ ____
ROOT
ATOM      1  N   UNL     1       6.692   3.624  13.716  0.00  0.00    +0.000 N 
ATOM      2  C   UNL     1       6.764   4.814  14.355  0.00  0.00    +0.000 C 
ATOM      3  O   UNL     1       7.646   5.600  14.029  0.00  0.00    +0.000 OA
ATOM      4  N   UNL     1       5.807   5.066  15.309  0.00  0.00    +0.000 N 
ATOM      5  C   UNL     1       4.819   4.097  15.782  0.00  0.00    +0.000 C 
ATOM      6  C   UNL     1       5.018   3.574  17.201  0.00  0.00    +0.000 C 
ATOM      7  C   UNL     1       5.315   4.547  18.344  0.00  0.00    +0.000 C 
ATOM      8  N   UNL     1       4.972   5.960  18.221  0.00  0.00    +0.000 NA
ATOM      9  C   UNL     1       5.896   6.643  17.299  0.00  0.00    +0.000 C 
ATOM     10  C   UNL     1       5.675   6.446  15.793  0.00  0.00    +0.000 C 
ATOM     11  H   UNL     1       7.368   3.566  12.966  0.00  0.00    +0.000 HD
ATOM     12  H   UNL     1       5.771   3.334  13.422  0.00  0.00    +0.000 HD
ENDROOT
BRANCH   8  13
ATOM     13  C   UNL     1       3.560   6.273  17.982  0.00  0.00    +0.000 C 
BRANCH  13  14
ATOM     14  C   UNL     1       2.615   5.359  18.710  0.00  0.00    +0.000 A 
ATOM     15  C   UNL     1       1.993   4.217  18.241  0.00  0.00    +0.000 A 
ATOM     16  C   UNL     1       1.165   3.611  19.225  0.00  0.00    +0.000 A 
ATOM     17 CL   UNL     1       0.260   2.192  18.927  0.00  0.00    +0.000 Cl
ATOM     18  C   UNL     1       1.187   4.293  20.418  0.00  0.00    +0.000 A 
ATOM     19  S   UNL     1       2.211   5.660  20.352  0.00  0.00    +0.000 S 
ENDBRANCH  13  14
ENDBRANCH   8  13
TORSDOF 2
ENDMDL
MODEL 8
REMARK VINA RESULT:      -5.9      4.414      6.826
REMARK  Name = 
REMARK  2 active torsions:
REMARK  status: ('A' for Active; 'I' for Inactive)
REMARK    1  A    between atoms: N_8  and  C_9
REMARK    2  A    between atoms: C_9  and  C_10
REMARK                            x       y       z     vdW  Elec       q    Type
REMARK                         _______ _______ _______ _____ _____    ______ ____
ROOT
ATOM      1  N   UNL     1       8.293   5.611  13.898  0.00  0.00    +0.000 N 
ATOM      2  C   UNL     1       7.161   4.890  14.077  0.00  0.00    +0.000 C 
ATOM      3  O   UNL     1       6.703   4.276  13.121  0.00  0.00    +0.000 OA
ATOM      4  N   UNL     1       6.629   4.874  15.344  0.00  0.00    +0.000 N 
ATOM      5  C   UNL     1       7.104   5.686  16.464  0.00  0.00    +0.000 C 
ATOM      6  C   UNL     1       6.186   6.821  16.907  0.00  0.00    +0.000 C 
ATOM      7  C   UNL     1       4.690   6.567  17.103  0.00  0.00    +0.000 C 
ATOM      8  N   UNL     1       4.192   5.212  17.324  0.00  0.00    +0.000 NA
ATOM      9  C   UNL     1       4.237   4.430  16.078  0.00  0.00    +0.000 C 
ATOM     10  C   UNL     1       5.597   3.871  15.635  0.00  0.00    +0.000 C 
ATOM     11  H   UNL     1       8.667   5.485  12.968  0.00  0.00    +0.000 HD
ATOM     12  H   UNL     1       9.000   5.510  14.611  0.00  0.00    +0.000 HD
ENDROOT
BRANCH   8  13
ATOM     13  C   UNL     1       4.726   4.500  18.489  0.00  0.00    +0.000 C 
BRANCH  13  14
ATOM     14  C   UNL     1       3.727   3.584  19.137  0.00  0.00    +0.000 A 
ATOM     15  C   UNL     1       3.016   3.779  20.307  0.00  0.00    +0.000 A 
ATOM     16  C   UNL     1       2.158   2.687  20.606  0.00  0.00    +0.000 A 
ATOM     17 CL   UNL     1       1.167   2.641  21.997  0.00  0.00    +0.000 Cl
ATOM     18  C   UNL     1       2.223   1.696  19.655  0.00  0.00    +0.000 A 
ATOM     19  S   UNL     1       3.314   2.089  18.400  0.00  0.00    +0.000 S 
ENDBRANCH  13  14
ENDBRANCH   8  13
TORSDOF 2
ENDMDL
MODEL 9
REMARK VINA RESULT:      -5.8      4.374      6.601
REMARK  Name = 
REMARK  2 active torsions:
REMARK  status: ('A' for Active; 'I' for Inactive)
REMARK    1  A    between atoms: N_8  and  C_9
REMARK    2  A    between atoms: C_9  and  C_10
REMARK                            x       y       z     vdW  Elec       q    Type
REMARK                         _______ _______ _______ _____ _____    ______ ____
ROOT
ATOM      1  N   UNL     1       6.269   4.139  13.905  0.00  0.00    +0.000 N 
ATOM      2  C   UNL     1       6.623   4.986  14.900  0.00  0.00    +0.000 C 
ATOM      3  O   UNL     1       7.647   5.646  14.768  0.00  0.00    +0.000 OA
ATOM      4  N   UNL     1       5.776   5.065  15.979  0.00  0.00    +0.000 N 
ATOM      5  C   UNL     1       4.612   4.207  16.197  0.00  0.00    +0.000 C 
ATOM      6  C   UNL     1       4.733   3.185  17.323  0.00  0.00    +0.000 C 
ATOM      7  C   UNL     1       5.275   3.610  18.690  0.00  0.00    +0.000 C 
ATOM      8  N   UNL     1       5.250   5.012  19.093  0.00  0.00    +0.000 NA
ATOM      9  C   UNL     1       6.273   5.782  18.366  0.00  0.00    +0.000 C 
ATOM     10  C   UNL     1       5.968   6.181  16.915  0.00  0.00    +0.000 C 
ATOM     11  H   UNL     1       6.892   4.220  13.113  0.00  0.00    +0.000 HD
ATOM     12  H   UNL     1       5.298   4.160  13.631  0.00  0.00    +0.000 HD
ENDROOT
BRANCH   8  13
ATOM     13  C   UNL     1       3.936   5.661  19.127  0.00  0.00    +0.000 C 
BRANCH  13  14
ATOM     14  C   UNL     1       2.833   4.750  19.589  0.00  0.00    +0.000 A 
ATOM     15  C   UNL     1       2.679   4.147  20.823  0.00  0.00    +0.000 A 
ATOM     16  C   UNL     1       1.504   3.350  20.891  0.00  0.00    +0.000 A 
ATOM     17 CL   UNL     1       1.060   2.473  22.288  0.00  0.00    +0.000 Cl
ATOM     18  C   UNL     1       0.788   3.375  19.718  0.00  0.00    +0.000 A 
ATOM     19  S   UNL     1       1.529   4.366  18.540  0.00  0.00    +0.000 S 
ENDBRANCH  13  14
ENDBRANCH   8  13
TORSDOF 2
ENDMDL
