MODEL 1
REMARK VINA RESULT:      -6.8      0.000      0.000
REMARK  Name = 
REMARK  11 active torsions:
REMARK  status: ('A' for Active; 'I' for Inactive)
REMARK    1  A    between atoms: C_1  and  O_2
REMARK    2  A    between atoms: O_2  and  C_3
REMARK    3  A    between atoms: C_5  and  O_6
REMARK    4  A    between atoms: O_6  and  C_7
REMARK    5  A    between atoms: C_7  and  C_8
REMARK    6  A    between atoms: C_8  and  N_9
REMARK    7  A    between atoms: C_11  and  C_12
REMARK    8  A    between atoms: C_17  and  C_18
REMARK    9  A    between atoms: C_29  and  C_30
REMARK   10  A    between atoms: N_31  and  C_32
REMARK   11  A    between atoms: C_32  and  C_33
REMARK                            x       y       z     vdW  Elec       q    Type
REMARK                         _______ _______ _______ _____ _____    ______ ____
ROOT
ATOM      1  C   UNL     1      -1.099  10.946  19.826  0.00  0.00    +0.000 C 
ATOM      2  C   UNL     1      -1.482  12.287  20.908  0.00  0.00    +0.000 A 
ATOM      3  C   UNL     1      -2.827  12.724  21.133  0.00  0.00    +0.000 A 
ATOM      4  C   UNL     1      -3.268  14.117  20.995  0.00  0.00    +0.000 A 
ATOM      5  C   UNL     1      -2.331  15.073  20.570  0.00  0.00    +0.000 A 
ATOM      6  N   UNL     1      -2.400  16.366  20.079  0.00  0.00    +0.000 N 
ATOM      7  N   UNL     1      -1.210  16.857  19.653  0.00  0.00    +0.000 NA
ATOM      8  C   UNL     1      -0.350  15.872  19.896  0.00  0.00    +0.000 A 
ATOM      9  C   UNL     1      -0.995  14.742  20.505  0.00  0.00    +0.000 A 
ATOM     10  C   UNL     1      -0.613  13.401  20.769  0.00  0.00    +0.000 A 
ATOM     11  C   UNL     1       0.714  13.001  20.382  0.00  0.00    +0.000 C 
ATOM     12  C   UNL     1       0.474  12.601  18.894  0.00  0.00    +0.000 C 
ATOM     13  C   UNL     1       1.909  12.016  18.727  0.00  0.00    +0.000 C 
ATOM     14  N   UNL     1      -0.842  11.751  18.600  0.00  0.00    +0.000 NA
ATOM     15  H   UNL     1      -3.215  16.945  19.918  0.00  0.00    +0.000 HD
ENDROOT
BRANCH   1  21
ATOM     16  C   UNL     1       0.992   9.179  20.282  0.00  0.00    +0.000 A 
ATOM     17  C   UNL     1       2.142   8.496  19.670  0.00  0.00    +0.000 A 
ATOM     18  C   UNL     1       2.357   8.326  18.290  0.00  0.00    +0.000 A 
ATOM     19  C   UNL     1       1.337   8.760  17.472  0.00  0.00    +0.000 A 
ATOM     20  C   UNL     1       0.213   9.439  18.045  0.00  0.00    +0.000 A 
ATOM     21  C   UNL     1       0.068   9.832  19.471  0.00  0.00    +0.000 A 
BRANCH  16  23
ATOM     22  C   UNL     1      -0.377   8.334  21.963  0.00  0.00    +0.000 C 
ATOM     23  O   UNL     1       0.796   9.080  21.616  0.00  0.00    +0.000 OA
ENDBRANCH  16  23
BRANCH  18  24
ATOM     24  O   UNL     1       3.460   7.597  17.926  0.00  0.00    +0.000 OA
BRANCH  24  25
ATOM     25  C   UNL     1       3.429   6.159  17.712  0.00  0.00    +0.000 C 
BRANCH  25  26
ATOM     26  C   UNL     1       4.454   5.520  18.718  0.00  0.00    +0.000 C 
BRANCH  26  27
ATOM     27  N   UNL     1       3.921   4.702  19.839  0.00  0.00    +0.000 NA
ATOM     28  C   UNL     1       2.431   4.837  19.911  0.00  0.00    +0.000 C 
ATOM     29  C   UNL     1       2.338   3.314  20.130  0.00  0.00    +0.000 C 
ATOM     30  C   UNL     1       3.727   3.276  19.453  0.00  0.00    +0.000 C 
BRANCH  29  31
ATOM     31  C   UNL     1       2.253   2.842  21.570  0.00  0.00    +0.000 C 
ATOM     32  F   UNL     1       0.940   2.630  21.865  0.00  0.00    +0.000 F 
ENDBRANCH  29  31
ENDBRANCH  26  27
ENDBRANCH  25  26
ENDBRANCH  24  25
ENDBRANCH  18  24
ENDBRANCH   1  21
BRANCH  14  33
ATOM     33  C   UNL     1      -2.145  12.241  18.062  0.00  0.00    +0.000 C 
BRANCH  33  34
ATOM     34  C   UNL     1      -3.026  11.270  17.177  0.00  0.00    +0.000 C 
ATOM     35  F   UNL     1      -2.279  10.503  16.267  0.00  0.00    +0.000 F 
ATOM     36  C   UNL     1      -4.195  10.495  17.762  0.00  0.00    +0.000 C 
ATOM     37  C   UNL     1      -4.448  11.514  16.694  0.00  0.00    +0.000 C 
ENDBRANCH  33  34
ENDBRANCH  14  33
TORSDOF 9
ENDMDL
MODEL 2
REMARK VINA RESULT:      -6.7      2.131      2.668
REMARK  Name = 
REMARK  11 active torsions:
REMARK  status: ('A' for Active; 'I' for Inactive)
REMARK    1  A    between atoms: C_1  and  O_2
REMARK    2  A    between atoms: O_2  and  C_3
REMARK    3  A    between atoms: C_5  and  O_6
REMARK    4  A    between atoms: O_6  and  C_7
REMARK    5  A    between atoms: C_7  and  C_8
REMARK    6  A    between atoms: C_8  and  N_9
REMARK    7  A    between atoms: C_11  and  C_12
REMARK    8  A    between atoms: C_17  and  C_18
REMARK    9  A    between atoms: C_29  and  C_30
REMARK   10  A    between atoms: N_31  and  C_32
REMARK   11  A    between atoms: C_32  and  C_33
REMARK                            x       y       z     vdW  Elec       q    Type
REMARK                         _______ _______ _______ _____ _____    ______ ____
ROOT
ATOM      1  C   UNL     1      -0.932  10.963  19.852  0.00  0.00    +0.000 C 
ATOM      2  C   UNL     1      -1.199  12.382  20.866  0.00  0.00    +0.000 A 
ATOM      3  C   UNL     1      -2.509  12.901  21.122  0.00  0.00    +0.000 A 
ATOM      4  C   UNL     1      -2.887  14.304  20.920  0.00  0.00    +0.000 A 
ATOM      5  C   UNL     1      -1.925  15.184  20.398  0.00  0.00    +0.000 A 
ATOM      6  N   UNL     1      -1.953  16.448  19.834  0.00  0.00    +0.000 N 
ATOM      7  N   UNL     1      -0.761  16.851  19.327  0.00  0.00    +0.000 NA
ATOM      8  C   UNL     1       0.059  15.840  19.592  0.00  0.00    +0.000 A 
ATOM      9  C   UNL     1      -0.611  14.781  20.296  0.00  0.00    +0.000 A 
ATOM     10  C   UNL     1      -0.283  13.440  20.623  0.00  0.00    +0.000 A 
ATOM     11  C   UNL     1       1.003  12.950  20.205  0.00  0.00    +0.000 C 
ATOM     12  C   UNL     1       0.675  12.478  18.755  0.00  0.00    +0.000 C 
ATOM     13  C   UNL     1       2.071  11.810  18.562  0.00  0.00    +0.000 C 
ATOM     14  N   UNL     1      -0.693  11.681  18.570  0.00  0.00    +0.000 NA
ATOM     15  H   UNL     1      -2.745  17.059  19.672  0.00  0.00    +0.000 HD
ENDROOT
BRANCH   1  21
ATOM     16  C   UNL     1       1.035   9.067  20.338  0.00  0.00    +0.000 A 
ATOM     17  C   UNL     1       2.142   8.304  19.740  0.00  0.00    +0.000 A 
ATOM     18  C   UNL     1       2.354   8.107  18.363  0.00  0.00    +0.000 A 
ATOM     19  C   UNL     1       1.369   8.599  17.534  0.00  0.00    +0.000 A 
ATOM     20  C   UNL     1       0.289   9.356  18.094  0.00  0.00    +0.000 A 
ATOM     21  C   UNL     1       0.162   9.772  19.515  0.00  0.00    +0.000 A 
BRANCH  16  23
ATOM     22  C   UNL     1      -0.453   8.444  22.015  0.00  0.00    +0.000 C 
ATOM     23  O   UNL     1       0.825   8.993  21.672  0.00  0.00    +0.000 OA
ENDBRANCH  16  23
BRANCH  18  24
ATOM     24  O   UNL     1       3.409   7.304  18.014  0.00  0.00    +0.000 OA
BRANCH  24  25
ATOM     25  C   UNL     1       3.529   5.919  18.438  0.00  0.00    +0.000 C 
BRANCH  25  26
ATOM     26  C   UNL     1       5.065   5.597  18.537  0.00  0.00    +0.000 C 
BRANCH  26  27
ATOM     27  N   UNL     1       5.724   4.956  17.369  0.00  0.00    +0.000 NA
ATOM     28  C   UNL     1       4.699   4.312  16.489  0.00  0.00    +0.000 C 
ATOM     29  C   UNL     1       5.435   4.892  15.265  0.00  0.00    +0.000 C 
ATOM     30  C   UNL     1       5.992   5.925  16.270  0.00  0.00    +0.000 C 
BRANCH  29  31
ATOM     31  C   UNL     1       6.434   3.978  14.580  0.00  0.00    +0.000 C 
ATOM     32  F   UNL     1       5.926   3.639  13.362  0.00  0.00    +0.000 F 
ENDBRANCH  29  31
ENDBRANCH  26  27
ENDBRANCH  25  26
ENDBRANCH  24  25
ENDBRANCH  18  24
ENDBRANCH   1  21
BRANCH  14  33
ATOM     33  C   UNL     1      -1.993  12.206  18.060  0.00  0.00    +0.000 C 
BRANCH  33  34
ATOM     34  C   UNL     1      -2.867  11.299  17.102  0.00  0.00    +0.000 C 
ATOM     35  F   UNL     1      -2.420  11.293  15.770  0.00  0.00    +0.000 F 
ATOM     36  C   UNL     1      -3.387   9.941  17.542  0.00  0.00    +0.000 C 
ATOM     37  C   UNL     1      -4.360  11.030  17.210  0.00  0.00    +0.000 C 
ENDBRANCH  33  34
ENDBRANCH  14  33
TORSDOF 9
ENDMDL
MODEL 3
REMARK VINA RESULT:      -6.7      4.956      6.414
REMARK  Name = 
REMARK  11 active torsions:
REMARK  status: ('A' for Active; 'I' for Inactive)
REMARK    1  A    between atoms: C_1  and  O_2
REMARK    2  A    between atoms: O_2  and  C_3
REMARK    3  A    between atoms: C_5  and  O_6
REMARK    4  A    between atoms: O_6  and  C_7
REMARK    5  A    between atoms: C_7  and  C_8
REMARK    6  A    between atoms: C_8  and  N_9
REMARK    7  A    between atoms: C_11  and  C_12
REMARK    8  A    between atoms: C_17  and  C_18
REMARK    9  A    between atoms: C_29  and  C_30
REMARK   10  A    between atoms: N_31  and  C_32
REMARK   11  A    between atoms: C_32  and  C_33
REMARK                            x       y       z     vdW  Elec       q    Type
REMARK                         _______ _______ _______ _____ _____    ______ ____
ROOT
ATOM      1  C   UNL     1       0.452  12.653  21.267  0.00  0.00    +0.000 C 
ATOM      2  C   UNL     1      -0.816  13.068  22.421  0.00  0.00    +0.000 A 
ATOM      3  C   UNL     1      -1.588  12.070  23.097  0.00  0.00    +0.000 A 
ATOM      4  C   UNL     1      -3.055  12.052  23.126  0.00  0.00    +0.000 A 
ATOM      5  C   UNL     1      -3.748  13.043  22.411  0.00  0.00    +0.000 A 
ATOM      6  N   UNL     1      -5.053  13.212  21.980  0.00  0.00    +0.000 N 
ATOM      7  N   UNL     1      -5.230  14.288  21.174  0.00  0.00    +0.000 NA
ATOM      8  C   UNL     1      -4.023  14.839  21.101  0.00  0.00    +0.000 A 
ATOM      9  C   UNL     1      -3.061  14.117  21.890  0.00  0.00    +0.000 A 
ATOM     10  C   UNL     1      -1.647  14.140  21.998  0.00  0.00    +0.000 A 
ATOM     11  C   UNL     1      -0.933  15.081  21.178  0.00  0.00    +0.000 C 
ATOM     12  C   UNL     1      -0.782  14.260  19.860  0.00  0.00    +0.000 C 
ATOM     13  C   UNL     1       0.164  15.313  19.207  0.00  0.00    +0.000 C 
ATOM     14  N   UNL     1      -0.376  12.728  20.031  0.00  0.00    +0.000 NA
ATOM     15  H   UNL     1      -5.853  12.606  22.111  0.00  0.00    +0.000 HD
ENDROOT
BRANCH   1  21
ATOM     16  C   UNL     1       2.738  14.193  20.939  0.00  0.00    +0.000 A 
ATOM     17  C   UNL     1       3.653  14.790  19.953  0.00  0.00    +0.000 A 
ATOM     18  C   UNL     1       3.771  14.407  18.604  0.00  0.00    +0.000 A 
ATOM     19  C   UNL     1       3.023  13.311  18.231  0.00  0.00    +0.000 A 
ATOM     20  C   UNL     1       2.116  12.723  19.170  0.00  0.00    +0.000 A 
ATOM     21  C   UNL     1       1.806  13.246  20.527  0.00  0.00    +0.000 A 
BRANCH  16  23
ATOM     22  C   UNL     1       3.854  15.527  22.484  0.00  0.00    +0.000 C 
ATOM     23  O   UNL     1       2.881  14.502  22.248  0.00  0.00    +0.000 OA
ENDBRANCH  16  23
BRANCH  18  24
ATOM     24  O   UNL     1       4.736  15.044  17.868  0.00  0.00    +0.000 OA
BRANCH  24  25
ATOM     25  C   UNL     1       5.958  15.577  18.448  0.00  0.00    +0.000 C 
BRANCH  25  26
ATOM     26  C   UNL     1       7.160  14.924  17.674  0.00  0.00    +0.000 C 
BRANCH  26  27
ATOM     27  N   UNL     1       7.834  13.749  18.287  0.00  0.00    +0.000 NA
ATOM     28  C   UNL     1       7.904  12.624  17.301  0.00  0.00    +0.000 C 
ATOM     29  C   UNL     1       9.361  12.376  17.739  0.00  0.00    +0.000 C 
ATOM     30  C   UNL     1       9.318  13.848  18.210  0.00  0.00    +0.000 C 
BRANCH  29  31
ATOM     31  C   UNL     1       9.577  11.312  18.800  0.00  0.00    +0.000 C 
ATOM     32  F   UNL     1      10.920  11.168  18.981  0.00  0.00    +0.000 F 
ENDBRANCH  29  31
ENDBRANCH  26  27
ENDBRANCH  25  26
ENDBRANCH  24  25
ENDBRANCH  18  24
ENDBRANCH   1  21
BRANCH  14  33
ATOM     33  C   UNL     1      -1.270  11.535  19.976  0.00  0.00    +0.000 C 
BRANCH  33  34
ATOM     34  C   UNL     1      -2.362  11.444  18.835  0.00  0.00    +0.000 C 
ATOM     35  F   UNL     1      -3.549  12.133  19.135  0.00  0.00    +0.000 F 
ATOM     36  C   UNL     1      -1.993  11.544  17.364  0.00  0.00    +0.000 C 
ATOM     37  C   UNL     1      -2.597  10.278  17.887  0.00  0.00    +0.000 C 
ENDBRANCH  33  34
ENDBRANCH  14  33
TORSDOF 9
ENDMDL
MODEL 4
REMARK VINA RESULT:      -6.6      4.806      6.731
REMARK  Name = 
REMARK  11 active torsions:
REMARK  status: ('A' for Active; 'I' for Inactive)
REMARK    1  A    between atoms: C_1  and  O_2
REMARK    2  A    between atoms: O_2  and  C_3
REMARK    3  A    between atoms: C_5  and  O_6
REMARK    4  A    between atoms: O_6  and  C_7
REMARK    5  A    between atoms: C_7  and  C_8
REMARK    6  A    between atoms: C_8  and  N_9
REMARK    7  A    between atoms: C_11  and  C_12
REMARK    8  A    between atoms: C_17  and  C_18
REMARK    9  A    between atoms: C_29  and  C_30
REMARK   10  A    between atoms: N_31  and  C_32
REMARK   11  A    between atoms: C_32  and  C_33
REMARK                            x       y       z     vdW  Elec       q    Type
REMARK                         _______ _______ _______ _____ _____    ______ ____
ROOT
ATOM      1  C   UNL     1       0.400  12.830  21.256  0.00  0.00    +0.000 C 
ATOM      2  C   UNL     1      -0.781  13.166  22.524  0.00  0.00    +0.000 A 
ATOM      3  C   UNL     1      -1.644  12.151  23.050  0.00  0.00    +0.000 A 
ATOM      4  C   UNL     1      -3.102  12.285  23.144  0.00  0.00    +0.000 A 
ATOM      5  C   UNL     1      -3.696  13.457  22.646  0.00  0.00    +0.000 A 
ATOM      6  N   UNL     1      -4.985  13.839  22.314  0.00  0.00    +0.000 N 
ATOM      7  N   UNL     1      -5.060  15.055  21.717  0.00  0.00    +0.000 NA
ATOM      8  C   UNL     1      -3.801  15.477  21.686  0.00  0.00    +0.000 A 
ATOM      9  C   UNL     1      -2.906  14.527  22.290  0.00  0.00    +0.000 A 
ATOM     10  C   UNL     1      -1.496  14.378  22.334  0.00  0.00    +0.000 A 
ATOM     11  C   UNL     1      -0.702  15.369  21.658  0.00  0.00    +0.000 C 
ATOM     12  C   UNL     1      -0.681  14.786  20.212  0.00  0.00    +0.000 C 
ATOM     13  C   UNL     1       0.360  15.831  19.710  0.00  0.00    +0.000 C 
ATOM     14  N   UNL     1      -0.448  13.213  20.093  0.00  0.00    +0.000 NA
ATOM     15  H   UNL     1      -5.845  13.308  22.374  0.00  0.00    +0.000 HD
ENDROOT
BRANCH   1  21
ATOM     16  C   UNL     1       2.748  14.293  21.036  0.00  0.00    +0.000 A 
ATOM     17  C   UNL     1       3.707  14.890  20.094  0.00  0.00    +0.000 A 
ATOM     18  C   UNL     1       3.843  14.552  18.734  0.00  0.00    +0.000 A 
ATOM     19  C   UNL     1       3.063  13.500  18.304  0.00  0.00    +0.000 A 
ATOM     20  C   UNL     1       2.114  12.912  19.201  0.00  0.00    +0.000 A 
ATOM     21  C   UNL     1       1.791  13.398  20.569  0.00  0.00    +0.000 A 
BRANCH  16  23
ATOM     22  C   UNL     1       2.893  15.949  22.665  0.00  0.00    +0.000 C 
ATOM     23  O   UNL     1       2.872  14.549  22.358  0.00  0.00    +0.000 OA
ENDBRANCH  16  23
BRANCH  18  24
ATOM     24  O   UNL     1       4.848  15.178  18.044  0.00  0.00    +0.000 OA
BRANCH  24  25
ATOM     25  C   UNL     1       6.046  14.493  17.586  0.00  0.00    +0.000 C 
BRANCH  25  26
ATOM     26  C   UNL     1       7.240  15.014  18.464  0.00  0.00    +0.000 C 
BRANCH  26  27
ATOM     27  N   UNL     1       8.369  14.086  18.735  0.00  0.00    +0.000 NA
ATOM     28  C   UNL     1       8.449  13.046  17.661  0.00  0.00    +0.000 C 
ATOM     29  C   UNL     1       9.979  13.237  17.636  0.00  0.00    +0.000 C 
ATOM     30  C   UNL     1       9.670  14.624  18.247  0.00  0.00    +0.000 C 
BRANCH  29  31
ATOM     31  C   UNL     1      10.795  12.273  18.476  0.00  0.00    +0.000 C 
ATOM     32  F   UNL     1      11.208  11.258  17.666  0.00  0.00    +0.000 F 
ENDBRANCH  29  31
ENDBRANCH  26  27
ENDBRANCH  25  26
ENDBRANCH  24  25
ENDBRANCH  18  24
ENDBRANCH   1  21
BRANCH  14  33
ATOM     33  C   UNL     1      -1.473  12.152  19.872  0.00  0.00    +0.000 C 
BRANCH  33  34
ATOM     34  C   UNL     1      -1.001  10.704  19.441  0.00  0.00    +0.000 C 
ATOM     35  F   UNL     1      -0.759   9.845  20.526  0.00  0.00    +0.000 F 
ATOM     36  C   UNL     1      -1.621   9.980  18.258  0.00  0.00    +0.000 C 
ATOM     37  C   UNL     1      -0.168  10.341  18.221  0.00  0.00    +0.000 C 
ENDBRANCH  33  34
ENDBRANCH  14  33
TORSDOF 9
ENDMDL
MODEL 5
REMARK VINA RESULT:      -6.5      2.326      3.741
REMARK  Name = 
REMARK  11 active torsions:
REMARK  status: ('A' for Active; 'I' for Inactive)
REMARK    1  A    between atoms: C_1  and  O_2
REMARK    2  A    between atoms: O_2  and  C_3
REMARK    3  A    between atoms: C_5  and  O_6
REMARK    4  A    between atoms: O_6  and  C_7
REMARK    5  A    between atoms: C_7  and  C_8
REMARK    6  A    between atoms: C_8  and  N_9
REMARK    7  A    between atoms: C_11  and  C_12
REMARK    8  A    between atoms: C_17  and  C_18
REMARK    9  A    between atoms: C_29  and  C_30
REMARK   10  A    between atoms: N_31  and  C_32
REMARK   11  A    between atoms: C_32  and  C_33
REMARK                            x       y       z     vdW  Elec       q    Type
REMARK                         _______ _______ _______ _____ _____    ______ ____
ROOT
ATOM      1  C   UNL     1      -0.800  13.502  19.458  0.00  0.00    +0.000 C 
ATOM      2  C   UNL     1      -2.082  14.146  20.484  0.00  0.00    +0.000 A 
ATOM      3  C   UNL     1      -2.475  15.522  20.439  0.00  0.00    +0.000 A 
ATOM      4  C   UNL     1      -2.565  16.387  21.621  0.00  0.00    +0.000 A 
ATOM      5  C   UNL     1      -2.198  15.851  22.867  0.00  0.00    +0.000 A 
ATOM      6  N   UNL     1      -1.895  16.377  24.111  0.00  0.00    +0.000 N 
ATOM      7  N   UNL     1      -1.442  15.458  25.001  0.00  0.00    +0.000 NA
ATOM      8  C   UNL     1      -1.477  14.314  24.327  0.00  0.00    +0.000 A 
ATOM      9  C   UNL     1      -1.979  14.497  22.993  0.00  0.00    +0.000 A 
ATOM     10  C   UNL     1      -2.025  13.689  21.828  0.00  0.00    +0.000 A 
ATOM     11  C   UNL     1      -1.479  12.361  21.919  0.00  0.00    +0.000 C 
ATOM     12  C   UNL     1       0.025  12.645  21.618  0.00  0.00    +0.000 C 
ATOM     13  C   UNL     1       0.388  11.131  21.547  0.00  0.00    +0.000 C 
ATOM     14  N   UNL     1       0.322  13.658  20.424  0.00  0.00    +0.000 NA
ATOM     15  H   UNL     1      -1.882  17.344  24.411  0.00  0.00    +0.000 HD
ENDROOT
BRANCH   1  21
ATOM     16  C   UNL     1      -0.808  10.871  18.573  0.00  0.00    +0.000 A 
ATOM     17  C   UNL     1       0.026   9.685  18.324  0.00  0.00    +0.000 A 
ATOM     18  C   UNL     1       1.427   9.679  18.191  0.00  0.00    +0.000 A 
ATOM     19  C   UNL     1       2.030  10.919  18.202  0.00  0.00    +0.000 A 
ATOM     20  C   UNL     1       1.239  12.085  18.455  0.00  0.00    +0.000 A 
ATOM     21  C   UNL     1      -0.202  12.099  18.822  0.00  0.00    +0.000 A 
BRANCH  16  23
ATOM     22  C   UNL     1      -2.569  10.038  17.300  0.00  0.00    +0.000 C 
ATOM     23  O   UNL     1      -2.152  10.771  18.458  0.00  0.00    +0.000 OA
ENDBRANCH  16  23
BRANCH  18  24
ATOM     24  O   UNL     1       2.010   8.475  17.892  0.00  0.00    +0.000 OA
BRANCH  24  25
ATOM     25  C   UNL     1       2.430   7.521  18.905  0.00  0.00    +0.000 C 
BRANCH  25  26
ATOM     26  C   UNL     1       2.669   6.148  18.177  0.00  0.00    +0.000 C 
BRANCH  26  27
ATOM     27  N   UNL     1       2.556   4.900  18.977  0.00  0.00    +0.000 NA
ATOM     28  C   UNL     1       1.811   5.170  20.248  0.00  0.00    +0.000 C 
ATOM     29  C   UNL     1       1.026   3.862  20.025  0.00  0.00    +0.000 C 
ATOM     30  C   UNL     1       1.411   4.053  18.540  0.00  0.00    +0.000 C 
BRANCH  29  31
ATOM     31  C   UNL     1       1.555   2.626  20.728  0.00  0.00    +0.000 C 
ATOM     32  F   UNL     1       1.285   2.753  22.058  0.00  0.00    +0.000 F 
ENDBRANCH  29  31
ENDBRANCH  26  27
ENDBRANCH  25  26
ENDBRANCH  24  25
ENDBRANCH  18  24
ENDBRANCH   1  21
BRANCH  14  33
ATOM     33  C   UNL     1       0.679  15.104  20.520  0.00  0.00    +0.000 C 
BRANCH  33  34
ATOM     34  C   UNL     1       1.170  15.863  19.222  0.00  0.00    +0.000 C 
ATOM     35  F   UNL     1       2.020  15.096  18.408  0.00  0.00    +0.000 F 
ATOM     36  C   UNL     1       0.236  16.746  18.411  0.00  0.00    +0.000 C 
ATOM     37  C   UNL     1       1.429  17.356  19.081  0.00  0.00    +0.000 C 
ENDBRANCH  33  34
ENDBRANCH  14  33
TORSDOF 9
ENDMDL
MODEL 6
REMARK VINA RESULT:      -6.5      2.692      3.406
REMARK  Name = 
REMARK  11 active torsions:
REMARK  status: ('A' for Active; 'I' for Inactive)
REMARK    1  A    between atoms: C_1  and  O_2
REMARK    2  A    between atoms: O_2  and  C_3
REMARK    3  A    between atoms: C_5  and  O_6
REMARK    4  A    between atoms: O_6  and  C_7
REMARK    5  A    between atoms: C_7  and  C_8
REMARK    6  A    between atoms: C_8  and  N_9
REMARK    7  A    between atoms: C_11  and  C_12
REMARK    8  A    between atoms: C_17  and  C_18
REMARK    9  A    between atoms: C_29  and  C_30
REMARK   10  A    between atoms: N_31  and  C_32
REMARK   11  A    between atoms: C_32  and  C_33
REMARK                            x       y       z     vdW  Elec       q    Type
REMARK                         _______ _______ _______ _____ _____    ______ ____
ROOT
ATOM      1  C   UNL     1      -1.630  12.376  21.751  0.00  0.00    +0.000 C 
ATOM      2  C   UNL     1      -1.408  13.516  23.079  0.00  0.00    +0.000 A 
ATOM      3  C   UNL     1      -2.498  13.958  23.894  0.00  0.00    +0.000 A 
ATOM      4  C   UNL     1      -2.806  15.369  24.155  0.00  0.00    +0.000 A 
ATOM      5  C   UNL     1      -2.017  16.349  23.531  0.00  0.00    +0.000 A 
ATOM      6  N   UNL     1      -2.136  17.710  23.307  0.00  0.00    +0.000 N 
ATOM      7  N   UNL     1      -1.166  18.223  22.509  0.00  0.00    +0.000 NA
ATOM      8  C   UNL     1      -0.392  17.179  22.232  0.00  0.00    +0.000 A 
ATOM      9  C   UNL     1      -0.860  15.983  22.879  0.00  0.00    +0.000 A 
ATOM     10  C   UNL     1      -0.550  14.603  22.763  0.00  0.00    +0.000 A 
ATOM     11  C   UNL     1       0.465  14.228  21.814  0.00  0.00    +0.000 C 
ATOM     12  C   UNL     1      -0.386  14.109  20.512  0.00  0.00    +0.000 C 
ATOM     13  C   UNL     1       0.794  13.508  19.690  0.00  0.00    +0.000 C 
ATOM     14  N   UNL     1      -1.794  13.376  20.659  0.00  0.00    +0.000 NA
ATOM     15  H   UNL     1      -2.881  18.340  23.578  0.00  0.00    +0.000 HD
ENDROOT
BRANCH   1  21
ATOM     16  C   UNL     1       0.378  10.623  20.976  0.00  0.00    +0.000 A 
ATOM     17  C   UNL     1       1.040   9.988  19.826  0.00  0.00    +0.000 A 
ATOM     18  C   UNL     1       0.511   9.887  18.526  0.00  0.00    +0.000 A 
ATOM     19  C   UNL     1      -0.780  10.343  18.374  0.00  0.00    +0.000 A 
ATOM     20  C   UNL     1      -1.440  10.976  19.477  0.00  0.00    +0.000 A 
ATOM     21  C   UNL     1      -0.824  11.299  20.791  0.00  0.00    +0.000 A 
BRANCH  16  23
ATOM     22  C   UNL     1       1.244   9.098  22.506  0.00  0.00    +0.000 C 
ATOM     23  O   UNL     1       0.897  10.457  22.214  0.00  0.00    +0.000 OA
ENDBRANCH  16  23
BRANCH  18  24
ATOM     24  O   UNL     1       1.261   9.194  17.611  0.00  0.00    +0.000 OA
BRANCH  24  25
ATOM     25  C   UNL     1       2.628   8.767  17.862  0.00  0.00    +0.000 C 
BRANCH  25  26
ATOM     26  C   UNL     1       2.634   7.196  17.836  0.00  0.00    +0.000 C 
BRANCH  26  27
ATOM     27  N   UNL     1       3.935   6.496  18.006  0.00  0.00    +0.000 NA
ATOM     28  C   UNL     1       3.768   5.030  17.747  0.00  0.00    +0.000 C 
ATOM     29  C   UNL     1       5.077   5.060  16.932  0.00  0.00    +0.000 C 
ATOM     30  C   UNL     1       4.778   6.569  16.780  0.00  0.00    +0.000 C 
BRANCH  29  31
ATOM     31  C   UNL     1       6.343   4.672  17.672  0.00  0.00    +0.000 C 
ATOM     32  F   UNL     1       7.228   4.181  16.759  0.00  0.00    +0.000 F 
ENDBRANCH  29  31
ENDBRANCH  26  27
ENDBRANCH  25  26
ENDBRANCH  24  25
ENDBRANCH  18  24
ENDBRANCH   1  21
BRANCH  14  33
ATOM     33  C   UNL     1      -3.142  14.003  20.778  0.00  0.00    +0.000 C 
BRANCH  33  34
ATOM     34  C   UNL     1      -4.429  13.089  20.669  0.00  0.00    +0.000 C 
ATOM     35  F   UNL     1      -4.770  12.450  21.873  0.00  0.00    +0.000 F 
ATOM     36  C   UNL     1      -5.653  13.521  19.880  0.00  0.00    +0.000 C 
ATOM     37  C   UNL     1      -4.892  12.305  19.450  0.00  0.00    +0.000 C 
ENDBRANCH  33  34
ENDBRANCH  14  33
TORSDOF 9
ENDMDL
MODEL 7
REMARK VINA RESULT:      -6.4      2.361      2.966
REMARK  Name = 
REMARK  11 active torsions:
REMARK  status: ('A' for Active; 'I' for Inactive)
REMARK    1  A    between atoms: C_1  and  O_2
REMARK    2  A    between atoms: O_2  and  C_3
REMARK    3  A    between atoms: C_5  and  O_6
REMARK    4  A    between atoms: O_6  and  C_7
REMARK    5  A    between atoms: C_7  and  C_8
REMARK    6  A    between atoms: C_8  and  N_9
REMARK    7  A    between atoms: C_11  and  C_12
REMARK    8  A    between atoms: C_17  and  C_18
REMARK    9  A    between atoms: C_29  and  C_30
REMARK   10  A    between atoms: N_31  and  C_32
REMARK   11  A    between atoms: C_32  and  C_33
REMARK                            x       y       z     vdW  Elec       q    Type
REMARK                         _______ _______ _______ _____ _____    ______ ____
ROOT
ATOM      1  C   UNL     1      -1.807  12.336  21.856  0.00  0.00    +0.000 C 
ATOM      2  C   UNL     1      -1.603  13.456  23.204  0.00  0.00    +0.000 A 
ATOM      3  C   UNL     1      -2.709  13.915  23.989  0.00  0.00    +0.000 A 
ATOM      4  C   UNL     1      -2.993  15.329  24.255  0.00  0.00    +0.000 A 
ATOM      5  C   UNL     1      -2.161  16.297  23.668  0.00  0.00    +0.000 A 
ATOM      6  N   UNL     1      -2.242  17.663  23.455  0.00  0.00    +0.000 N 
ATOM      7  N   UNL     1      -1.235  18.162  22.695  0.00  0.00    +0.000 NA
ATOM      8  C   UNL     1      -0.476  17.103  22.432  0.00  0.00    +0.000 A 
ATOM      9  C   UNL     1      -0.992  15.912  23.050  0.00  0.00    +0.000 A 
ATOM     10  C   UNL     1      -0.710  14.527  22.928  0.00  0.00    +0.000 A 
ATOM     11  C   UNL     1       0.326  14.138  22.009  0.00  0.00    +0.000 C 
ATOM     12  C   UNL     1      -0.485  14.052  20.679  0.00  0.00    +0.000 C 
ATOM     13  C   UNL     1       0.708  13.432  19.889  0.00  0.00    +0.000 C 
ATOM     14  N   UNL     1      -1.913  13.350  20.772  0.00  0.00    +0.000 NA
ATOM     15  H   UNL     1      -2.981  18.307  23.710  0.00  0.00    +0.000 HD
ENDROOT
BRANCH   1  21
ATOM     16  C   UNL     1       0.145  10.491  21.156  0.00  0.00    +0.000 A 
ATOM     17  C   UNL     1       0.857   9.864  20.031  0.00  0.00    +0.000 A 
ATOM     18  C   UNL     1       0.426   9.852  18.691  0.00  0.00    +0.000 A 
ATOM     19  C   UNL     1      -0.819  10.396  18.463  0.00  0.00    +0.000 A 
ATOM     20  C   UNL     1      -1.524  11.023  19.540  0.00  0.00    +0.000 A 
ATOM     21  C   UNL     1      -0.995  11.250  20.911  0.00  0.00    +0.000 A 
BRANCH  16  23
ATOM     22  C   UNL     1       1.420   9.103  22.521  0.00  0.00    +0.000 C 
ATOM     23  O   UNL     1       0.554  10.241  22.420  0.00  0.00    +0.000 OA
ENDBRANCH  16  23
BRANCH  18  24
ATOM     24  O   UNL     1       1.203   9.151  17.805  0.00  0.00    +0.000 OA
BRANCH  24  25
ATOM     25  C   UNL     1       2.656   9.199  17.808  0.00  0.00    +0.000 C 
BRANCH  25  26
ATOM     26  C   UNL     1       3.167   7.721  17.651  0.00  0.00    +0.000 C 
BRANCH  26  27
ATOM     27  N   UNL     1       2.313   6.623  18.176  0.00  0.00    +0.000 NA
ATOM     28  C   UNL     1       2.978   5.301  17.952  0.00  0.00    +0.000 C 
ATOM     29  C   UNL     1       2.576   4.894  19.384  0.00  0.00    +0.000 C 
ATOM     30  C   UNL     1       2.498   6.417  19.640  0.00  0.00    +0.000 C 
BRANCH  29  31
ATOM     31  C   UNL     1       1.292   4.098  19.525  0.00  0.00    +0.000 C 
ATOM     32  F   UNL     1       0.868   4.212  20.815  0.00  0.00    +0.000 F 
ENDBRANCH  29  31
ENDBRANCH  26  27
ENDBRANCH  25  26
ENDBRANCH  24  25
ENDBRANCH  18  24
ENDBRANCH   1  21
BRANCH  14  33
ATOM     33  C   UNL     1      -3.250  14.007  20.854  0.00  0.00    +0.000 C 
BRANCH  33  34
ATOM     34  C   UNL     1      -4.552  13.126  20.683  0.00  0.00    +0.000 C 
ATOM     35  F   UNL     1      -4.968  12.499  21.869  0.00  0.00    +0.000 F 
ATOM     36  C   UNL     1      -5.724  13.587  19.832  0.00  0.00    +0.000 C 
ATOM     37  C   UNL     1      -4.974  12.351  19.443  0.00  0.00    +0.000 C 
ENDBRANCH  33  34
ENDBRANCH  14  33
TORSDOF 9
ENDMDL
MODEL 8
REMARK VINA RESULT:      -6.3      2.726      4.146
REMARK  Name = 
REMARK  11 active torsions:
REMARK  status: ('A' for Active; 'I' for Inactive)
REMARK    1  A    between atoms: C_1  and  O_2
REMARK    2  A    between atoms: O_2  and  C_3
REMARK    3  A    between atoms: C_5  and  O_6
REMARK    4  A    between atoms: O_6  and  C_7
REMARK    5  A    between atoms: C_7  and  C_8
REMARK    6  A    between atoms: C_8  and  N_9
REMARK    7  A    between atoms: C_11  and  C_12
REMARK    8  A    between atoms: C_17  and  C_18
REMARK    9  A    between atoms: C_29  and  C_30
REMARK   10  A    between atoms: N_31  and  C_32
REMARK   11  A    between atoms: C_32  and  C_33
REMARK                            x       y       z     vdW  Elec       q    Type
REMARK                         _______ _______ _______ _____ _____    ______ ____
ROOT
ATOM      1  C   UNL     1      -0.295  13.789  19.415  0.00  0.00    +0.000 C 
ATOM      2  C   UNL     1      -1.548  14.618  20.339  0.00  0.00    +0.000 A 
ATOM      3  C   UNL     1      -1.671  16.045  20.347  0.00  0.00    +0.000 A 
ATOM      4  C   UNL     1      -1.739  16.854  21.569  0.00  0.00    +0.000 A 
ATOM      5  C   UNL     1      -1.629  16.199  22.807  0.00  0.00    +0.000 A 
ATOM      6  N   UNL     1      -1.384  16.597  24.111  0.00  0.00    +0.000 N 
ATOM      7  N   UNL     1      -1.219  15.568  24.978  0.00  0.00    +0.000 NA
ATOM      8  C   UNL     1      -1.385  14.484  24.227  0.00  0.00    +0.000 A 
ATOM      9  C   UNL     1      -1.681  14.823  22.862  0.00  0.00    +0.000 A 
ATOM     10  C   UNL     1      -1.737  14.095  21.646  0.00  0.00    +0.000 A 
ATOM     11  C   UNL     1      -1.462  12.684  21.703  0.00  0.00    +0.000 C 
ATOM     12  C   UNL     1       0.094  12.688  21.587  0.00  0.00    +0.000 C 
ATOM     13  C   UNL     1       0.176  11.137  21.451  0.00  0.00    +0.000 C 
ATOM     14  N   UNL     1       0.714  13.680  20.505  0.00  0.00    +0.000 NA
ATOM     15  H   UNL     1      -1.227  17.529  24.476  0.00  0.00    +0.000 HD
ENDROOT
BRANCH   1  21
ATOM     16  C   UNL     1      -0.678  11.229  18.413  0.00  0.00    +0.000 A 
ATOM     17  C   UNL     1      -0.036   9.929  18.160  0.00  0.00    +0.000 A 
ATOM     18  C   UNL     1       1.351   9.695  18.107  0.00  0.00    +0.000 A 
ATOM     19  C   UNL     1       2.147  10.815  18.208  0.00  0.00    +0.000 A 
ATOM     20  C   UNL     1       1.543  12.088  18.467  0.00  0.00    +0.000 A 
ATOM     21  C   UNL     1       0.104  12.328  18.752  0.00  0.00    +0.000 A 
BRANCH  16  23
ATOM     22  C   UNL     1      -2.641  10.144  17.794  0.00  0.00    +0.000 C 
ATOM     23  O   UNL     1      -2.010  11.358  18.218  0.00  0.00    +0.000 OA
ENDBRANCH  16  23
BRANCH  18  24
ATOM     24  O   UNL     1       1.745   8.421  17.788  0.00  0.00    +0.000 OA
BRANCH  24  25
ATOM     25  C   UNL     1       2.363   7.516  18.744  0.00  0.00    +0.000 C 
BRANCH  25  26
ATOM     26  C   UNL     1       3.250   6.512  17.923  0.00  0.00    +0.000 C 
BRANCH  26  27
ATOM     27  N   UNL     1       3.182   5.068  18.272  0.00  0.00    +0.000 NA
ATOM     28  C   UNL     1       1.861   4.500  17.855  0.00  0.00    +0.000 C 
ATOM     29  C   UNL     1       2.604   3.264  17.309  0.00  0.00    +0.000 C 
ATOM     30  C   UNL     1       3.826   4.208  17.240  0.00  0.00    +0.000 C 
BRANCH  29  31
ATOM     31  C   UNL     1       2.700   2.067  18.237  0.00  0.00    +0.000 C 
ATOM     32  F   UNL     1       3.714   1.273  17.793  0.00  0.00    +0.000 F 
ENDBRANCH  29  31
ENDBRANCH  26  27
ENDBRANCH  25  26
ENDBRANCH  24  25
ENDBRANCH  18  24
ENDBRANCH   1  21
BRANCH  14  33
ATOM     33  C   UNL     1       1.318  15.024  20.739  0.00  0.00    +0.000 C 
BRANCH  33  34
ATOM     34  C   UNL     1       2.236  15.661  19.618  0.00  0.00    +0.000 C 
ATOM     35  F   UNL     1       3.267  14.810  19.184  0.00  0.00    +0.000 F 
ATOM     36  C   UNL     1       1.656  16.490  18.485  0.00  0.00    +0.000 C 
ATOM     37  C   UNL     1       2.597  17.130  19.459  0.00  0.00    +0.000 C 
ENDBRANCH  33  34
ENDBRANCH  14  33
TORSDOF 9
ENDMDL
MODEL 9
REMARK VINA RESULT:      -6.3      2.849      3.799
REMARK  Name = 
REMARK  11 active torsions:
REMARK  status: ('A' for Active; 'I' for Inactive)
REMARK    1  A    between atoms: C_1  and  O_2
REMARK    2  A    between atoms: O_2  and  C_3
REMARK    3  A    between atoms: C_5  and  O_6
REMARK    4  A    between atoms: O_6  and  C_7
REMARK    5  A    between atoms: C_7  and  C_8
REMARK    6  A    between atoms: C_8  and  N_9
REMARK    7  A    between atoms: C_11  and  C_12
REMARK    8  A    between atoms: C_17  and  C_18
REMARK    9  A    between atoms: C_29  and  C_30
REMARK   10  A    between atoms: N_31  and  C_32
REMARK   11  A    between atoms: C_32  and  C_33
REMARK                            x       y       z     vdW  Elec       q    Type
REMARK                         _______ _______ _______ _____ _____    ______ ____
ROOT
ATOM      1  C   UNL     1      -2.028  11.910  21.266  0.00  0.00    +0.000 C 
ATOM      2  C   UNL     1      -2.027  12.574  22.901  0.00  0.00    +0.000 A 
ATOM      3  C   UNL     1      -3.224  12.689  23.678  0.00  0.00    +0.000 A 
ATOM      4  C   UNL     1      -3.662  13.929  24.329  0.00  0.00    +0.000 A 
ATOM      5  C   UNL     1      -2.890  15.087  24.141  0.00  0.00    +0.000 A 
ATOM      6  N   UNL     1      -3.089  16.443  24.341  0.00  0.00    +0.000 N 
ATOM      7  N   UNL     1      -2.085  17.222  23.865  0.00  0.00    +0.000 NA
ATOM      8  C   UNL     1      -1.211  16.353  23.370  0.00  0.00    +0.000 A 
ATOM      9  C   UNL     1      -1.650  14.995  23.549  0.00  0.00    +0.000 A 
ATOM     10  C   UNL     1      -1.226  13.739  23.045  0.00  0.00    +0.000 A 
ATOM     11  C   UNL     1      -0.096  13.726  22.155  0.00  0.00    +0.000 C 
ATOM     12  C   UNL     1      -0.802  13.996  20.789  0.00  0.00    +0.000 C 
ATOM     13  C   UNL     1       0.497  13.736  19.967  0.00  0.00    +0.000 C 
ATOM     14  N   UNL     1      -2.158  13.199  20.531  0.00  0.00    +0.000 NA
ATOM     15  H   UNL     1      -3.903  16.923  24.706  0.00  0.00    +0.000 HD
ENDROOT
BRANCH   1  21
ATOM     16  C   UNL     1      -1.198  11.108  18.742  0.00  0.00    +0.000 A 
ATOM     17  C   UNL     1      -0.353  10.159  18.001  0.00  0.00    +0.000 A 
ATOM     18  C   UNL     1       0.711   9.413  18.540  0.00  0.00    +0.000 A 
ATOM     19  C   UNL     1       1.026   9.691  19.852  0.00  0.00    +0.000 A 
ATOM     20  C   UNL     1       0.209  10.601  20.596  0.00  0.00    +0.000 A 
ATOM     21  C   UNL     1      -1.052  11.229  20.120  0.00  0.00    +0.000 A 
BRANCH  16  23
ATOM     22  C   UNL     1      -2.479  11.362  16.816  0.00  0.00    +0.000 C 
ATOM     23  O   UNL     1      -2.038  11.920  18.060  0.00  0.00    +0.000 OA
ENDBRANCH  16  23
BRANCH  18  24
ATOM     24  O   UNL     1       1.420   8.634  17.662  0.00  0.00    +0.000 OA
BRANCH  24  25
ATOM     25  C   UNL     1       2.830   8.323  17.834  0.00  0.00    +0.000 C 
BRANCH  25  26
ATOM     26  C   UNL     1       2.922   6.813  18.258  0.00  0.00    +0.000 C 
BRANCH  26  27
ATOM     27  N   UNL     1       4.211   6.101  18.046  0.00  0.00    +0.000 NA
ATOM     28  C   UNL     1       3.980   4.837  17.279  0.00  0.00    +0.000 C 
ATOM     29  C   UNL     1       5.220   5.169  16.425  0.00  0.00    +0.000 C 
ATOM     30  C   UNL     1       4.957   6.626  16.868  0.00  0.00    +0.000 C 
BRANCH  29  31
ATOM     31  C   UNL     1       6.529   4.535  16.859  0.00  0.00    +0.000 C 
ATOM     32  F   UNL     1       7.361   4.512  15.780  0.00  0.00    +0.000 F 
ENDBRANCH  29  31
ENDBRANCH  26  27
ENDBRANCH  25  26
ENDBRANCH  24  25
ENDBRANCH  18  24
ENDBRANCH   1  21
BRANCH  14  33
ATOM     33  C   UNL     1      -3.555  13.701  20.679  0.00  0.00    +0.000 C 
BRANCH  33  34
ATOM     34  C   UNL     1      -4.757  12.772  20.238  0.00  0.00    +0.000 C 
ATOM     35  F   UNL     1      -4.374  11.718  19.393  0.00  0.00    +0.000 F 
ATOM     36  C   UNL     1      -5.851  12.364  21.211  0.00  0.00    +0.000 C 
ATOM     37  C   UNL     1      -6.202  13.194  20.016  0.00  0.00    +0.000 C 
ENDBRANCH  33  34
ENDBRANCH  14  33
TORSDOF 9
ENDMDL
