MODEL 1
REMARK VINA RESULT:      -5.2      0.000      0.000
REMARK  Name = 
REMARK  17 active torsions:
REMARK  status: ('A' for Active; 'I' for Inactive)
REMARK    1  A    between atoms: C_1  and  O_2
REMARK    2  A    between atoms: O_2  and  C_3
REMARK    3  A    between atoms: C_3  and  C_4
REMARK    4  A    between atoms: C_6  and  C_7
REMARK    5  A    between atoms: C_6  and  C_11
REMARK    6  A    between atoms: C_7  and  C_8
REMARK    7  A    between atoms: C_8  and  C_9
REMARK    8  A    between atoms: C_8  and  C_10
REMARK    9  A    between atoms: C_11  and  O_13
REMARK   10  A    between atoms: C_15  and  C_17
REMARK   11  A    between atoms: C_20  and  C_21
REMARK   12  A    between atoms: C_21  and  C_22
REMARK   13  A    between atoms: C_21  and  C_23
REMARK   14  A    between atoms: C_21  and  C_24
REMARK   15  A    between atoms: C_25  and  O_26
REMARK   16  A    between atoms: O_26  and  C_27
REMARK   17  A    between atoms: C_29  and  C_30
REMARK                            x       y       z     vdW  Elec       q    Type
REMARK                         _______ _______ _______ _____ _____    ______ ____
ROOT
ATOM      1  C   UNL     1       4.710  14.705  21.857  0.00  0.00    +0.000 C 
ATOM      2  C   UNL     1       3.678  15.705  21.362  0.00  0.00    +0.000 C 
ATOM      3  C   UNL     1       3.639  15.503  19.822  0.00  0.00    +0.000 C 
ATOM      4  N   UNL     1       5.123  15.223  19.521  0.00  0.00    +0.000 N 
ATOM      5  C   UNL     1       5.603  15.072  18.195  0.00  0.00    +0.000 C 
ATOM      6  O   UNL     1       4.865  15.306  17.235  0.00  0.00    +0.000 OA
ATOM      7  C   UNL     1       5.826  14.802  20.781  0.00  0.00    +0.000 C 
ENDROOT
BRANCH   5   8
ATOM      8  C   UNL     1       7.055  14.767  17.907  0.00  0.00    +0.000 A 
ATOM      9  C   UNL     1       7.976  15.809  17.796  0.00  0.00    +0.000 A 
ATOM     10  C   UNL     1       9.359  15.551  17.915  0.00  0.00    +0.000 A 
ATOM     11  C   UNL     1       9.854  14.261  18.224  0.00  0.00    +0.000 A 
ATOM     12  C   UNL     1       8.901  13.217  18.226  0.00  0.00    +0.000 A 
ATOM     13  C   UNL     1       7.548  13.468  17.928  0.00  0.00    +0.000 A 
BRANCH  11  14
ATOM     14  C   UNL     1      11.351  14.073  18.622  0.00  0.00    +0.000 C 
ATOM     15  C   UNL     1      12.051  15.453  18.640  0.00  0.00    +0.000 C 
ATOM     16  C   UNL     1      11.596  13.422  20.008  0.00  0.00    +0.000 C 
ATOM     17  C   UNL     1      12.106  13.172  17.614  0.00  0.00    +0.000 C 
ENDBRANCH  11  14
BRANCH  12  18
ATOM     18  O   UNL     1       9.305  12.010  18.728  0.00  0.00    +0.000 OA
ATOM     19  C   UNL     1       8.980  10.798  18.066  0.00  0.00    +0.000 C 
ENDBRANCH  12  18
ENDBRANCH   5   8
BRANCH   7  20
ATOM     20  C   UNL     1       7.169  15.520  21.115  0.00  0.00    +0.000 C 
ATOM     21  C   UNL     1       7.131  16.952  21.562  0.00  0.00    +0.000 C 
ATOM     22  O   UNL     1       8.275  17.099  22.394  0.00  0.00    +0.000 OA
ATOM     23  C   UNL     1       8.705  15.860  22.730  0.00  0.00    +0.000 C 
ATOM     24  O   UNL     1       9.617  15.606  23.498  0.00  0.00    +0.000 OA
ATOM     25  O   UNL     1       7.956  14.898  22.112  0.00  0.00    +0.000 OA
ENDBRANCH   7  20
BRANCH   3  26
ATOM     26  C   UNL     1       3.065  16.837  19.236  0.00  0.00    +0.000 C 
ATOM     27  O   UNL     1       3.093  17.914  19.817  0.00  0.00    +0.000 OA
BRANCH  26  28
ATOM     28  O   UNL     1       2.441  16.718  18.043  0.00  0.00    +0.000 OA
ATOM     29  H   UNL     1       3.064  16.608  17.282  0.00  0.00    +0.000 HD
ENDBRANCH  26  28
ENDBRANCH   3  26
BRANCH   1  30
ATOM     30  C   UNL     1       5.097  14.896  23.320  0.00  0.00    +0.000 C 
BRANCH  30  32
ATOM     31  C   UNL     1       6.026  13.623  25.046  0.00  0.00    +0.000 C 
ATOM     32  O   UNL     1       5.016  13.665  24.035  0.00  0.00    +0.000 OA
ENDBRANCH  30  32
ENDBRANCH   1  30
BRANCH   3  33
ATOM     33  C   UNL     1       2.777  14.265  19.381  0.00  0.00    +0.000 C 
BRANCH  33  34
ATOM     34  C   UNL     1       1.383  13.996  20.014  0.00  0.00    +0.000 C 
ATOM     35  C   UNL     1       0.193  14.082  19.056  0.00  0.00    +0.000 C 
ATOM     36  C   UNL     1       1.371  12.580  20.622  0.00  0.00    +0.000 C 
ENDBRANCH  33  34
ENDBRANCH   3  33
TORSDOF 10
ENDMDL
MODEL 2
REMARK VINA RESULT:      -5.2      7.614     11.814
REMARK  Name = 
REMARK  17 active torsions:
REMARK  status: ('A' for Active; 'I' for Inactive)
REMARK    1  A    between atoms: C_1  and  O_2
REMARK    2  A    between atoms: O_2  and  C_3
REMARK    3  A    between atoms: C_3  and  C_4
REMARK    4  A    between atoms: C_6  and  C_7
REMARK    5  A    between atoms: C_6  and  C_11
REMARK    6  A    between atoms: C_7  and  C_8
REMARK    7  A    between atoms: C_8  and  C_9
REMARK    8  A    between atoms: C_8  and  C_10
REMARK    9  A    between atoms: C_11  and  O_13
REMARK   10  A    between atoms: C_15  and  C_17
REMARK   11  A    between atoms: C_20  and  C_21
REMARK   12  A    between atoms: C_21  and  C_22
REMARK   13  A    between atoms: C_21  and  C_23
REMARK   14  A    between atoms: C_21  and  C_24
REMARK   15  A    between atoms: C_25  and  O_26
REMARK   16  A    between atoms: O_26  and  C_27
REMARK   17  A    between atoms: C_29  and  C_30
REMARK                            x       y       z     vdW  Elec       q    Type
REMARK                         _______ _______ _______ _____ _____    ______ ____
ROOT
ATOM      1  C   UNL     1      -6.534  14.292  20.592  0.00  0.00    +0.000 C 
ATOM      2  C   UNL     1      -7.398  13.897  21.778  0.00  0.00    +0.000 C 
ATOM      3  C   UNL     1      -6.461  14.029  23.012  0.00  0.00    +0.000 C 
ATOM      4  N   UNL     1      -5.124  13.544  22.422  0.00  0.00    +0.000 N 
ATOM      5  C   UNL     1      -3.964  13.390  23.224  0.00  0.00    +0.000 C 
ATOM      6  O   UNL     1      -4.034  13.503  24.450  0.00  0.00    +0.000 OA
ATOM      7  C   UNL     1      -5.171  13.623  20.922  0.00  0.00    +0.000 C 
ENDROOT
BRANCH   5   8
ATOM      8  C   UNL     1      -2.646  12.942  22.634  0.00  0.00    +0.000 A 
ATOM      9  C   UNL     1      -2.137  11.681  22.945  0.00  0.00    +0.000 A 
ATOM     10  C   UNL     1      -1.142  11.096  22.131  0.00  0.00    +0.000 A 
ATOM     11  C   UNL     1      -0.685  11.720  20.946  0.00  0.00    +0.000 A 
ATOM     12  C   UNL     1      -1.147  13.037  20.722  0.00  0.00    +0.000 A 
ATOM     13  C   UNL     1      -2.003  13.672  21.642  0.00  0.00    +0.000 A 
BRANCH  11  14
ATOM     14  C   UNL     1       0.199  10.924  19.935  0.00  0.00    +0.000 C 
ATOM     15  C   UNL     1       1.412  11.791  19.527  0.00  0.00    +0.000 C 
ATOM     16  C   UNL     1       0.760   9.576  20.458  0.00  0.00    +0.000 C 
ATOM     17  C   UNL     1      -0.582  10.564  18.647  0.00  0.00    +0.000 C 
ENDBRANCH  11  14
BRANCH  12  18
ATOM     18  O   UNL     1      -0.899  13.579  19.491  0.00  0.00    +0.000 OA
ATOM     19  C   UNL     1      -0.469  14.925  19.360  0.00  0.00    +0.000 C 
ENDBRANCH  12  18
ENDBRANCH   5   8
BRANCH   7  20
ATOM     20  C   UNL     1      -4.713  12.360  20.132  0.00  0.00    +0.000 C 
ATOM     21  C   UNL     1      -5.744  11.347  19.729  0.00  0.00    +0.000 C 
ATOM     22  O   UNL     1      -5.225  10.757  18.544  0.00  0.00    +0.000 OA
ATOM     23  C   UNL     1      -4.243  11.563  18.076  0.00  0.00    +0.000 C 
ATOM     24  O   UNL     1      -3.631  11.408  17.034  0.00  0.00    +0.000 OA
ATOM     25  O   UNL     1      -4.033  12.618  18.920  0.00  0.00    +0.000 OA
ENDBRANCH   7  20
BRANCH   3  26
ATOM     26  C   UNL     1      -7.089  13.117  24.118  0.00  0.00    +0.000 C 
ATOM     27  O   UNL     1      -7.916  13.495  24.937  0.00  0.00    +0.000 OA
BRANCH  26  28
ATOM     28  O   UNL     1      -6.591  11.862  24.177  0.00  0.00    +0.000 OA
ATOM     29  H   UNL     1      -7.136  11.247  24.729  0.00  0.00    +0.000 HD
ENDBRANCH  26  28
ENDBRANCH   3  26
BRANCH   1  30
ATOM     30  C   UNL     1      -7.177  13.998  19.241  0.00  0.00    +0.000 C 
BRANCH  30  32
ATOM     31  C   UNL     1      -6.777  14.352  16.965  0.00  0.00    +0.000 C 
ATOM     32  O   UNL     1      -6.770  14.953  18.263  0.00  0.00    +0.000 OA
ENDBRANCH  30  32
ENDBRANCH   1  30
BRANCH   3  33
ATOM     33  C   UNL     1      -6.301  15.510  23.512  0.00  0.00    +0.000 C 
BRANCH  33  34
ATOM     34  C   UNL     1      -5.163  16.419  22.968  0.00  0.00    +0.000 C 
ATOM     35  C   UNL     1      -5.613  17.590  22.091  0.00  0.00    +0.000 C 
ATOM     36  C   UNL     1      -4.384  17.017  24.155  0.00  0.00    +0.000 C 
ENDBRANCH  33  34
ENDBRANCH   3  33
TORSDOF 10
ENDMDL
MODEL 3
REMARK VINA RESULT:      -5.2      5.753      9.974
REMARK  Name = 
REMARK  17 active torsions:
REMARK  status: ('A' for Active; 'I' for Inactive)
REMARK    1  A    between atoms: C_1  and  O_2
REMARK    2  A    between atoms: O_2  and  C_3
REMARK    3  A    between atoms: C_3  and  C_4
REMARK    4  A    between atoms: C_6  and  C_7
REMARK    5  A    between atoms: C_6  and  C_11
REMARK    6  A    between atoms: C_7  and  C_8
REMARK    7  A    between atoms: C_8  and  C_9
REMARK    8  A    between atoms: C_8  and  C_10
REMARK    9  A    between atoms: C_11  and  O_13
REMARK   10  A    between atoms: C_15  and  C_17
REMARK   11  A    between atoms: C_20  and  C_21
REMARK   12  A    between atoms: C_21  and  C_22
REMARK   13  A    between atoms: C_21  and  C_23
REMARK   14  A    between atoms: C_21  and  C_24
REMARK   15  A    between atoms: C_25  and  O_26
REMARK   16  A    between atoms: O_26  and  C_27
REMARK   17  A    between atoms: C_29  and  C_30
REMARK                            x       y       z     vdW  Elec       q    Type
REMARK                         _______ _______ _______ _____ _____    ______ ____
ROOT
ATOM      1  C   UNL     1      -4.536  13.069  20.384  0.00  0.00    +0.000 C 
ATOM      2  C   UNL     1      -4.924  12.641  21.790  0.00  0.00    +0.000 C 
ATOM      3  C   UNL     1      -4.345  13.747  22.715  0.00  0.00    +0.000 C 
ATOM      4  N   UNL     1      -3.023  14.074  21.996  0.00  0.00    +0.000 N 
ATOM      5  C   UNL     1      -2.079  14.982  22.541  0.00  0.00    +0.000 C 
ATOM      6  O   UNL     1      -2.228  15.426  23.681  0.00  0.00    +0.000 OA
ATOM      7  C   UNL     1      -3.086  13.595  20.573  0.00  0.00    +0.000 C 
ENDROOT
BRANCH   5   8
ATOM      8  C   UNL     1      -0.796  15.321  21.816  0.00  0.00    +0.000 A 
ATOM      9  C   UNL     1       0.402  14.719  22.201  0.00  0.00    +0.000 A 
ATOM     10  C   UNL     1       1.508  14.714  21.324  0.00  0.00    +0.000 A 
ATOM     11  C   UNL     1       1.425  15.242  20.014  0.00  0.00    +0.000 A 
ATOM     12  C   UNL     1       0.233  15.933  19.700  0.00  0.00    +0.000 A 
ATOM     13  C   UNL     1      -0.793  16.081  20.653  0.00  0.00    +0.000 A 
BRANCH  11  14
ATOM     14  C   UNL     1       2.569  14.968  18.988  0.00  0.00    +0.000 C 
ATOM     15  C   UNL     1       2.765  16.218  18.098  0.00  0.00    +0.000 C 
ATOM     16  C   UNL     1       3.951  14.628  19.604  0.00  0.00    +0.000 C 
ATOM     17  C   UNL     1       2.236  13.774  18.059  0.00  0.00    +0.000 C 
ENDBRANCH  11  14
BRANCH  12  18
ATOM     18  O   UNL     1       0.036  16.263  18.387  0.00  0.00    +0.000 OA
ATOM     19  C   UNL     1      -0.760  17.381  18.027  0.00  0.00    +0.000 C 
ENDBRANCH  12  18
ENDBRANCH   5   8
BRANCH   7  20
ATOM     20  C   UNL     1      -1.881  12.753  20.055  0.00  0.00    +0.000 C 
ATOM     21  C   UNL     1      -1.350  11.645  20.917  0.00  0.00    +0.000 C 
ATOM     22  O   UNL     1      -0.809  10.703  19.999  0.00  0.00    +0.000 OA
ATOM     23  C   UNL     1      -1.299  10.995  18.771  0.00  0.00    +0.000 C 
ATOM     24  O   UNL     1      -1.109  10.346  17.756  0.00  0.00    +0.000 OA
ATOM     25  O   UNL     1      -2.077  12.117  18.808  0.00  0.00    +0.000 OA
ENDBRANCH   7  20
BRANCH   3  26
ATOM     26  C   UNL     1      -4.207  13.087  24.128  0.00  0.00    +0.000 C 
ATOM     27  O   UNL     1      -4.293  11.885  24.339  0.00  0.00    +0.000 OA
BRANCH  26  28
ATOM     28  O   UNL     1      -4.062  13.954  25.155  0.00  0.00    +0.000 OA
ATOM     29  H   UNL     1      -4.405  14.861  24.956  0.00  0.00    +0.000 HD
ENDBRANCH  26  28
ENDBRANCH   3  26
BRANCH   1  30
ATOM     30  C   UNL     1      -4.787  12.000  19.326  0.00  0.00    +0.000 C 
BRANCH  30  32
ATOM     31  C   UNL     1      -6.865  11.774  18.282  0.00  0.00    +0.000 C 
ATOM     32  O   UNL     1      -5.631  12.496  18.289  0.00  0.00    +0.000 OA
ENDBRANCH  30  32
ENDBRANCH   1  30
BRANCH   3  33
ATOM     33  C   UNL     1      -5.239  15.039  22.770  0.00  0.00    +0.000 C 
BRANCH  33  34
ATOM     34  C   UNL     1      -6.785  14.946  22.643  0.00  0.00    +0.000 C 
ATOM     35  C   UNL     1      -7.529  14.511  23.908  0.00  0.00    +0.000 C 
ATOM     36  C   UNL     1      -7.342  16.327  22.246  0.00  0.00    +0.000 C 
ENDBRANCH  33  34
ENDBRANCH   3  33
TORSDOF 10
ENDMDL
MODEL 4
REMARK VINA RESULT:      -5.1      7.519     11.610
REMARK  Name = 
REMARK  17 active torsions:
REMARK  status: ('A' for Active; 'I' for Inactive)
REMARK    1  A    between atoms: C_1  and  O_2
REMARK    2  A    between atoms: O_2  and  C_3
REMARK    3  A    between atoms: C_3  and  C_4
REMARK    4  A    between atoms: C_6  and  C_7
REMARK    5  A    between atoms: C_6  and  C_11
REMARK    6  A    between atoms: C_7  and  C_8
REMARK    7  A    between atoms: C_8  and  C_9
REMARK    8  A    between atoms: C_8  and  C_10
REMARK    9  A    between atoms: C_11  and  O_13
REMARK   10  A    between atoms: C_15  and  C_17
REMARK   11  A    between atoms: C_20  and  C_21
REMARK   12  A    between atoms: C_21  and  C_22
REMARK   13  A    between atoms: C_21  and  C_23
REMARK   14  A    between atoms: C_21  and  C_24
REMARK   15  A    between atoms: C_25  and  O_26
REMARK   16  A    between atoms: O_26  and  C_27
REMARK   17  A    between atoms: C_29  and  C_30
REMARK                            x       y       z     vdW  Elec       q    Type
REMARK                         _______ _______ _______ _____ _____    ______ ____
ROOT
ATOM      1  C   UNL     1       5.114   3.562  18.519  0.00  0.00    +0.000 C 
ATOM      2  C   UNL     1       5.539   3.507  17.061  0.00  0.00    +0.000 C 
ATOM      3  C   UNL     1       5.623   4.995  16.617  0.00  0.00    +0.000 C 
ATOM      4  N   UNL     1       4.437   5.602  17.389  0.00  0.00    +0.000 N 
ATOM      5  C   UNL     1       4.046   6.955  17.218  0.00  0.00    +0.000 C 
ATOM      6  O   UNL     1       4.558   7.644  16.332  0.00  0.00    +0.000 OA
ATOM      7  C   UNL     1       4.052   4.696  18.525  0.00  0.00    +0.000 C 
ENDROOT
BRANCH   5   8
ATOM      8  C   UNL     1       2.900   7.554  18.000  0.00  0.00    +0.000 A 
ATOM      9  C   UNL     1       2.623   7.098  19.289  0.00  0.00    +0.000 A 
ATOM     10  C   UNL     1       1.838   7.879  20.166  0.00  0.00    +0.000 A 
ATOM     11  C   UNL     1       1.374   9.166  19.807  0.00  0.00    +0.000 A 
ATOM     12  C   UNL     1       1.586   9.548  18.462  0.00  0.00    +0.000 A 
ATOM     13  C   UNL     1       2.216   8.677  17.552  0.00  0.00    +0.000 A 
BRANCH  11  14
ATOM     14  C   UNL     1       0.757  10.105  20.890  0.00  0.00    +0.000 C 
ATOM     15  C   UNL     1       0.817   9.403  22.267  0.00  0.00    +0.000 C 
ATOM     16  C   UNL     1       1.451  11.483  21.052  0.00  0.00    +0.000 C 
ATOM     17  C   UNL     1      -0.727  10.433  20.590  0.00  0.00    +0.000 C 
ENDBRANCH  11  14
BRANCH  12  18
ATOM     18  O   UNL     1       1.346  10.856  18.144  0.00  0.00    +0.000 OA
ATOM     19  C   UNL     1       2.415  11.753  17.888  0.00  0.00    +0.000 C 
ENDBRANCH  12  18
ENDBRANCH   5   8
BRANCH   7  20
ATOM     20  C   UNL     1       2.540   4.346  18.670  0.00  0.00    +0.000 C 
ATOM     21  C   UNL     1       1.926   3.380  17.699  0.00  0.00    +0.000 C 
ATOM     22  O   UNL     1       0.869   2.765  18.423  0.00  0.00    +0.000 OA
ATOM     23  C   UNL     1       1.069   3.014  19.739  0.00  0.00    +0.000 C 
ATOM     24  O   UNL     1       0.400   2.572  20.657  0.00  0.00    +0.000 OA
ATOM     25  O   UNL     1       2.159   3.817  19.925  0.00  0.00    +0.000 OA
ENDBRANCH   7  20
BRANCH   3  26
ATOM     26  C   UNL     1       5.483   4.978  15.058  0.00  0.00    +0.000 C 
ATOM     27  O   UNL     1       5.095   4.015  14.410  0.00  0.00    +0.000 OA
BRANCH  26  28
ATOM     28  O   UNL     1       5.906   6.099  14.432  0.00  0.00    +0.000 OA
ATOM     29  H   UNL     1       6.891   6.159  14.353  0.00  0.00    +0.000 HD
ENDBRANCH  26  28
ENDBRANCH   3  26
BRANCH   1  30
ATOM     30  C   UNL     1       4.726   2.205  19.096  0.00  0.00    +0.000 C 
BRANCH  30  32
ATOM     31  C   UNL     1       5.291   0.836  20.905  0.00  0.00    +0.000 C 
ATOM     32  O   UNL     1       4.950   2.166  20.504  0.00  0.00    +0.000 OA
ENDBRANCH  30  32
ENDBRANCH   1  30
BRANCH   3  33
ATOM     33  C   UNL     1       6.952   5.701  17.067  0.00  0.00    +0.000 C 
BRANCH  33  34
ATOM     34  C   UNL     1       7.027   6.484  18.408  0.00  0.00    +0.000 C 
ATOM     35  C   UNL     1       7.667   5.734  19.578  0.00  0.00    +0.000 C 
ATOM     36  C   UNL     1       7.847   7.771  18.195  0.00  0.00    +0.000 C 
ENDBRANCH  33  34
ENDBRANCH   3  33
TORSDOF 10
ENDMDL
MODEL 5
REMARK VINA RESULT:      -4.9      3.967      6.992
REMARK  Name = 
REMARK  17 active torsions:
REMARK  status: ('A' for Active; 'I' for Inactive)
REMARK    1  A    between atoms: C_1  and  O_2
REMARK    2  A    between atoms: O_2  and  C_3
REMARK    3  A    between atoms: C_3  and  C_4
REMARK    4  A    between atoms: C_6  and  C_7
REMARK    5  A    between atoms: C_6  and  C_11
REMARK    6  A    between atoms: C_7  and  C_8
REMARK    7  A    between atoms: C_8  and  C_9
REMARK    8  A    between atoms: C_8  and  C_10
REMARK    9  A    between atoms: C_11  and  O_13
REMARK   10  A    between atoms: C_15  and  C_17
REMARK   11  A    between atoms: C_20  and  C_21
REMARK   12  A    between atoms: C_21  and  C_22
REMARK   13  A    between atoms: C_21  and  C_23
REMARK   14  A    between atoms: C_21  and  C_24
REMARK   15  A    between atoms: C_25  and  O_26
REMARK   16  A    between atoms: O_26  and  C_27
REMARK   17  A    between atoms: C_29  and  C_30
REMARK                            x       y       z     vdW  Elec       q    Type
REMARK                         _______ _______ _______ _____ _____    ______ ____
ROOT
ATOM      1  C   UNL     1      -0.951  12.332  22.435  0.00  0.00    +0.000 C 
ATOM      2  C   UNL     1      -1.609  11.808  21.169  0.00  0.00    +0.000 C 
ATOM      3  C   UNL     1      -0.436  11.595  20.172  0.00  0.00    +0.000 C 
ATOM      4  N   UNL     1       0.471  12.790  20.520  0.00  0.00    +0.000 N 
ATOM      5  C   UNL     1       1.647  13.078  19.781  0.00  0.00    +0.000 C 
ATOM      6  O   UNL     1       1.898  12.460  18.745  0.00  0.00    +0.000 OA
ATOM      7  C   UNL     1       0.120  13.314  21.884  0.00  0.00    +0.000 C 
ENDROOT
BRANCH   5   8
ATOM      8  C   UNL     1       2.548  14.235  20.146  0.00  0.00    +0.000 A 
ATOM      9  C   UNL     1       3.580  14.052  21.067  0.00  0.00    +0.000 A 
ATOM     10  C   UNL     1       4.647  14.974  21.132  0.00  0.00    +0.000 A 
ATOM     11  C   UNL     1       4.752  16.060  20.230  0.00  0.00    +0.000 A 
ATOM     12  C   UNL     1       3.639  16.271  19.384  0.00  0.00    +0.000 A 
ATOM     13  C   UNL     1       2.503  15.442  19.458  0.00  0.00    +0.000 A 
BRANCH  11  14
ATOM     14  C   UNL     1       6.075  16.884  20.151  0.00  0.00    +0.000 C 
ATOM     15  C   UNL     1       7.114  16.276  21.122  0.00  0.00    +0.000 C 
ATOM     16  C   UNL     1       6.741  16.942  18.751  0.00  0.00    +0.000 C 
ATOM     17  C   UNL     1       5.856  18.363  20.555  0.00  0.00    +0.000 C 
ENDBRANCH  11  14
BRANCH  12  18
ATOM     18  O   UNL     1       3.798  17.168  18.364  0.00  0.00    +0.000 OA
ATOM     19  C   UNL     1       3.029  17.067  17.176  0.00  0.00    +0.000 C 
ENDBRANCH  12  18
ENDBRANCH   5   8
BRANCH   7  20
ATOM     20  C   UNL     1      -0.094  14.852  22.018  0.00  0.00    +0.000 C 
ATOM     21  C   UNL     1      -1.343  15.460  21.450  0.00  0.00    +0.000 C 
ATOM     22  O   UNL     1      -1.587  16.604  22.260  0.00  0.00    +0.000 OA
ATOM     23  C   UNL     1      -0.846  16.479  23.386  0.00  0.00    +0.000 C 
ATOM     24  O   UNL     1      -0.867  17.238  24.339  0.00  0.00    +0.000 OA
ATOM     25  O   UNL     1      -0.071  15.354  23.340  0.00  0.00    +0.000 OA
ENDBRANCH   7  20
BRANCH   3  26
ATOM     26  C   UNL     1      -1.083  11.623  18.747  0.00  0.00    +0.000 C 
ATOM     27  O   UNL     1      -2.159  12.145  18.488  0.00  0.00    +0.000 OA
BRANCH  26  28
ATOM     28  O   UNL     1      -0.403  10.945  17.795  0.00  0.00    +0.000 OA
ATOM     29  H   UNL     1      -0.878  10.901  16.928  0.00  0.00    +0.000 HD
ENDBRANCH  26  28
ENDBRANCH   3  26
BRANCH   1  30
ATOM     30  C   UNL     1      -1.941  12.848  23.473  0.00  0.00    +0.000 C 
BRANCH  30  32
ATOM     31  C   UNL     1      -4.212  12.698  24.007  0.00  0.00    +0.000 C 
ATOM     32  O   UNL     1      -3.267  12.869  22.948  0.00  0.00    +0.000 OA
ENDBRANCH  30  32
ENDBRANCH   1  30
BRANCH   3  33
ATOM     33  C   UNL     1       0.352  10.258  20.419  0.00  0.00    +0.000 C 
BRANCH  33  34
ATOM     34  C   UNL     1       0.101   9.406  21.695  0.00  0.00    +0.000 C 
ATOM     35  C   UNL     1      -0.487   8.014  21.457  0.00  0.00    +0.000 C 
ATOM     36  C   UNL     1       1.435   9.211  22.441  0.00  0.00    +0.000 C 
ENDBRANCH  33  34
ENDBRANCH   3  33
TORSDOF 10
ENDMDL
MODEL 6
REMARK VINA RESULT:      -4.8      5.809      9.896
REMARK  Name = 
REMARK  17 active torsions:
REMARK  status: ('A' for Active; 'I' for Inactive)
REMARK    1  A    between atoms: C_1  and  O_2
REMARK    2  A    between atoms: O_2  and  C_3
REMARK    3  A    between atoms: C_3  and  C_4
REMARK    4  A    between atoms: C_6  and  C_7
REMARK    5  A    between atoms: C_6  and  C_11
REMARK    6  A    between atoms: C_7  and  C_8
REMARK    7  A    between atoms: C_8  and  C_9
REMARK    8  A    between atoms: C_8  and  C_10
REMARK    9  A    between atoms: C_11  and  O_13
REMARK   10  A    between atoms: C_15  and  C_17
REMARK   11  A    between atoms: C_20  and  C_21
REMARK   12  A    between atoms: C_21  and  C_22
REMARK   13  A    between atoms: C_21  and  C_23
REMARK   14  A    between atoms: C_21  and  C_24
REMARK   15  A    between atoms: C_25  and  O_26
REMARK   16  A    between atoms: O_26  and  C_27
REMARK   17  A    between atoms: C_29  and  C_30
REMARK                            x       y       z     vdW  Elec       q    Type
REMARK                         _______ _______ _______ _____ _____    ______ ____
ROOT
ATOM      1  C   UNL     1      -4.520  12.818  19.908  0.00  0.00    +0.000 C 
ATOM      2  C   UNL     1      -5.091  12.521  21.285  0.00  0.00    +0.000 C 
ATOM      3  C   UNL     1      -4.689  13.747  22.153  0.00  0.00    +0.000 C 
ATOM      4  N   UNL     1      -3.289  14.061  21.592  0.00  0.00    +0.000 N 
ATOM      5  C   UNL     1      -2.464  15.067  22.158  0.00  0.00    +0.000 C 
ATOM      6  O   UNL     1      -2.790  15.621  23.210  0.00  0.00    +0.000 OA
ATOM      7  C   UNL     1      -3.131  13.432  20.237  0.00  0.00    +0.000 C 
ENDROOT
BRANCH   5   8
ATOM      8  C   UNL     1      -1.104  15.391  21.585  0.00  0.00    +0.000 A 
ATOM      9  C   UNL     1       0.036  14.779  22.107  0.00  0.00    +0.000 A 
ATOM     10  C   UNL     1       1.236  14.760  21.363  0.00  0.00    +0.000 A 
ATOM     11  C   UNL     1       1.310  15.284  20.050  0.00  0.00    +0.000 A 
ATOM     12  C   UNL     1       0.168  15.986  19.599  0.00  0.00    +0.000 A 
ATOM     13  C   UNL     1      -0.959  16.147  20.428  0.00  0.00    +0.000 A 
BRANCH  11  14
ATOM     14  C   UNL     1       2.561  14.996  19.163  0.00  0.00    +0.000 C 
ATOM     15  C   UNL     1       2.261  13.798  18.232  0.00  0.00    +0.000 C 
ATOM     16  C   UNL     1       3.022  16.169  18.259  0.00  0.00    +0.000 C 
ATOM     17  C   UNL     1       3.801  14.633  20.018  0.00  0.00    +0.000 C 
ENDBRANCH  11  14
BRANCH  12  18
ATOM     18  O   UNL     1       0.127  16.312  18.272  0.00  0.00    +0.000 OA
ATOM     19  C   UNL     1      -0.499  17.508  17.834  0.00  0.00    +0.000 C 
ENDBRANCH  12  18
ENDBRANCH   5   8
BRANCH   7  20
ATOM     20  C   UNL     1      -1.836  12.601  19.988  0.00  0.00    +0.000 C 
ATOM     21  C   UNL     1      -1.463  11.532  20.972  0.00  0.00    +0.000 C 
ATOM     22  O   UNL     1      -0.742  10.574  20.207  0.00  0.00    +0.000 OA
ATOM     23  C   UNL     1      -0.991  10.818  18.899  0.00  0.00    +0.000 C 
ATOM     24  O   UNL     1      -0.600  10.143  17.962  0.00  0.00    +0.000 OA
ATOM     25  O   UNL     1      -1.780  11.924  18.748  0.00  0.00    +0.000 OA
ENDBRANCH   7  20
BRANCH   3  26
ATOM     26  C   UNL     1      -4.732  13.247  23.636  0.00  0.00    +0.000 C 
ATOM     27  O   UNL     1      -4.481  12.101  23.985  0.00  0.00    +0.000 OA
BRANCH  26  28
ATOM     28  O   UNL     1      -5.155  14.161  24.537  0.00  0.00    +0.000 OA
ATOM     29  H   UNL     1      -4.426  14.727  24.896  0.00  0.00    +0.000 HD
ENDBRANCH  26  28
ENDBRANCH   3  26
BRANCH   1  30
ATOM     30  C   UNL     1      -4.580  11.632  18.951  0.00  0.00    +0.000 C 
BRANCH  30  32
ATOM     31  C   UNL     1      -6.191  12.764  17.691  0.00  0.00    +0.000 C 
ATOM     32  O   UNL     1      -4.952  12.052  17.640  0.00  0.00    +0.000 OA
ENDBRANCH  30  32
ENDBRANCH   1  30
BRANCH   3  33
ATOM     33  C   UNL     1      -5.625  14.991  21.939  0.00  0.00    +0.000 C 
BRANCH  33  34
ATOM     34  C   UNL     1      -5.807  15.620  20.530  0.00  0.00    +0.000 C 
ATOM     35  C   UNL     1      -7.255  15.797  20.066  0.00  0.00    +0.000 C 
ATOM     36  C   UNL     1      -5.155  17.017  20.513  0.00  0.00    +0.000 C 
ENDBRANCH  33  34
ENDBRANCH   3  33
TORSDOF 10
ENDMDL
MODEL 7
REMARK VINA RESULT:      -4.8      5.484      9.578
REMARK  Name = 
REMARK  17 active torsions:
REMARK  status: ('A' for Active; 'I' for Inactive)
REMARK    1  A    between atoms: C_1  and  O_2
REMARK    2  A    between atoms: O_2  and  C_3
REMARK    3  A    between atoms: C_3  and  C_4
REMARK    4  A    between atoms: C_6  and  C_7
REMARK    5  A    between atoms: C_6  and  C_11
REMARK    6  A    between atoms: C_7  and  C_8
REMARK    7  A    between atoms: C_8  and  C_9
REMARK    8  A    between atoms: C_8  and  C_10
REMARK    9  A    between atoms: C_11  and  O_13
REMARK   10  A    between atoms: C_15  and  C_17
REMARK   11  A    between atoms: C_20  and  C_21
REMARK   12  A    between atoms: C_21  and  C_22
REMARK   13  A    between atoms: C_21  and  C_23
REMARK   14  A    between atoms: C_21  and  C_24
REMARK   15  A    between atoms: C_25  and  O_26
REMARK   16  A    between atoms: O_26  and  C_27
REMARK   17  A    between atoms: C_29  and  C_30
REMARK                            x       y       z     vdW  Elec       q    Type
REMARK                         _______ _______ _______ _____ _____    ______ ____
ROOT
ATOM      1  C   UNL     1      -4.581  12.921  20.031  0.00  0.00    +0.000 C 
ATOM      2  C   UNL     1      -4.647  12.611  21.517  0.00  0.00    +0.000 C 
ATOM      3  C   UNL     1      -3.715  13.662  22.183  0.00  0.00    +0.000 C 
ATOM      4  N   UNL     1      -2.591  13.767  21.136  0.00  0.00    +0.000 N 
ATOM      5  C   UNL     1      -1.431  14.554  21.358  0.00  0.00    +0.000 C 
ATOM      6  O   UNL     1      -1.225  15.061  22.463  0.00  0.00    +0.000 OA
ATOM      7  C   UNL     1      -3.076  13.243  19.814  0.00  0.00    +0.000 C 
ENDROOT
BRANCH   5   8
ATOM      8  C   UNL     1      -0.344  14.677  20.315  0.00  0.00    +0.000 A 
ATOM      9  C   UNL     1      -0.423  15.672  19.341  0.00  0.00    +0.000 A 
ATOM     10  C   UNL     1       0.729  16.052  18.618  0.00  0.00    +0.000 A 
ATOM     11  C   UNL     1       2.002  15.502  18.900  0.00  0.00    +0.000 A 
ATOM     12  C   UNL     1       2.023  14.426  19.817  0.00  0.00    +0.000 A 
ATOM     13  C   UNL     1       0.833  13.943  20.396  0.00  0.00    +0.000 A 
BRANCH  11  14
ATOM     14  C   UNL     1       3.284  16.142  18.281  0.00  0.00    +0.000 C 
ATOM     15  C   UNL     1       4.229  15.020  17.791  0.00  0.00    +0.000 C 
ATOM     16  C   UNL     1       3.041  17.089  17.076  0.00  0.00    +0.000 C 
ATOM     17  C   UNL     1       4.058  16.996  19.315  0.00  0.00    +0.000 C 
ENDBRANCH  11  14
BRANCH  12  18
ATOM     18  O   UNL     1       3.248  14.021  20.269  0.00  0.00    +0.000 OA
ATOM     19  C   UNL     1       3.638  14.240  21.616  0.00  0.00    +0.000 C 
ENDBRANCH  12  18
ENDBRANCH   5   8
BRANCH   7  20
ATOM     20  C   UNL     1      -2.160  12.218  19.079  0.00  0.00    +0.000 C 
ATOM     21  C   UNL     1      -1.617  11.051  19.851  0.00  0.00    +0.000 C 
ATOM     22  O   UNL     1      -1.448  10.025  18.880  0.00  0.00    +0.000 OA
ATOM     23  C   UNL     1      -2.156  10.375  17.781  0.00  0.00    +0.000 C 
ATOM     24  O   UNL     1      -2.303   9.692  16.782  0.00  0.00    +0.000 OA
ATOM     25  O   UNL     1      -2.730  11.606  17.939  0.00  0.00    +0.000 OA
ENDBRANCH   7  20
BRANCH   3  26
ATOM     26  C   UNL     1      -3.305  13.048  23.563  0.00  0.00    +0.000 C 
ATOM     27  O   UNL     1      -3.276  11.848  23.803  0.00  0.00    +0.000 OA
BRANCH  26  28
ATOM     28  O   UNL     1      -3.052  13.948  24.539  0.00  0.00    +0.000 OA
ATOM     29  H   UNL     1      -3.786  14.033  25.197  0.00  0.00    +0.000 HD
ENDBRANCH  26  28
ENDBRANCH   3  26
BRANCH   1  30
ATOM     30  C   UNL     1      -5.228  11.856  19.152  0.00  0.00    +0.000 C 
BRANCH  30  32
ATOM     31  C   UNL     1      -6.830  10.159  19.033  0.00  0.00    +0.000 C 
ATOM     32  O   UNL     1      -6.325  11.239  19.822  0.00  0.00    +0.000 OA
ENDBRANCH  30  32
ENDBRANCH   1  30
BRANCH   3  33
ATOM     33  C   UNL     1      -4.393  15.068  22.359  0.00  0.00    +0.000 C 
BRANCH  33  34
ATOM     34  C   UNL     1      -5.940  15.205  22.438  0.00  0.00    +0.000 C 
ATOM     35  C   UNL     1      -6.549  15.046  23.832  0.00  0.00    +0.000 C 
ATOM     36  C   UNL     1      -6.349  16.599  21.923  0.00  0.00    +0.000 C 
ENDBRANCH  33  34
ENDBRANCH   3  33
TORSDOF 10
ENDMDL
MODEL 8
REMARK VINA RESULT:      -4.8      5.448      9.696
REMARK  Name = 
REMARK  17 active torsions:
REMARK  status: ('A' for Active; 'I' for Inactive)
REMARK    1  A    between atoms: C_1  and  O_2
REMARK    2  A    between atoms: O_2  and  C_3
REMARK    3  A    between atoms: C_3  and  C_4
REMARK    4  A    between atoms: C_6  and  C_7
REMARK    5  A    between atoms: C_6  and  C_11
REMARK    6  A    between atoms: C_7  and  C_8
REMARK    7  A    between atoms: C_8  and  C_9
REMARK    8  A    between atoms: C_8  and  C_10
REMARK    9  A    between atoms: C_11  and  O_13
REMARK   10  A    between atoms: C_15  and  C_17
REMARK   11  A    between atoms: C_20  and  C_21
REMARK   12  A    between atoms: C_21  and  C_22
REMARK   13  A    between atoms: C_21  and  C_23
REMARK   14  A    between atoms: C_21  and  C_24
REMARK   15  A    between atoms: C_25  and  O_26
REMARK   16  A    between atoms: O_26  and  C_27
REMARK   17  A    between atoms: C_29  and  C_30
REMARK                            x       y       z     vdW  Elec       q    Type
REMARK                         _______ _______ _______ _____ _____    ______ ____
ROOT
ATOM      1  C   UNL     1      -4.671  12.764  19.908  0.00  0.00    +0.000 C 
ATOM      2  C   UNL     1      -4.692  12.322  21.361  0.00  0.00    +0.000 C 
ATOM      3  C   UNL     1      -3.750  13.319  22.092  0.00  0.00    +0.000 C 
ATOM      4  N   UNL     1      -2.658  13.530  21.028  0.00  0.00    +0.000 N 
ATOM      5  C   UNL     1      -1.499  14.306  21.288  0.00  0.00    +0.000 C 
ATOM      6  O   UNL     1      -1.266  14.715  22.428  0.00  0.00    +0.000 OA
ATOM      7  C   UNL     1      -3.176  13.121  19.679  0.00  0.00    +0.000 C 
ENDROOT
BRANCH   5   8
ATOM      8  C   UNL     1      -0.444  14.534  20.230  0.00  0.00    +0.000 A 
ATOM      9  C   UNL     1      -0.551  15.620  19.361  0.00  0.00    +0.000 A 
ATOM     10  C   UNL     1       0.579  16.072  18.645  0.00  0.00    +0.000 A 
ATOM     11  C   UNL     1       1.860  15.501  18.834  0.00  0.00    +0.000 A 
ATOM     12  C   UNL     1       1.908  14.341  19.641  0.00  0.00    +0.000 A 
ATOM     13  C   UNL     1       0.736  13.800  20.204  0.00  0.00    +0.000 A 
BRANCH  11  14
ATOM     14  C   UNL     1       3.123  16.202  18.243  0.00  0.00    +0.000 C 
ATOM     15  C   UNL     1       3.811  17.032  19.352  0.00  0.00    +0.000 C 
ATOM     16  C   UNL     1       4.198  15.253  17.652  0.00  0.00    +0.000 C 
ATOM     17  C   UNL     1       2.757  17.167  17.087  0.00  0.00    +0.000 C 
ENDBRANCH  11  14
BRANCH  12  18
ATOM     18  O   UNL     1       3.146  13.897  20.015  0.00  0.00    +0.000 OA
ATOM     19  C   UNL     1       3.577  13.988  21.363  0.00  0.00    +0.000 C 
ENDBRANCH  12  18
ENDBRANCH   5   8
BRANCH   7  20
ATOM     20  C   UNL     1      -2.273  12.176  18.830  0.00  0.00    +0.000 C 
ATOM     21  C   UNL     1      -1.716  10.939  19.472  0.00  0.00    +0.000 C 
ATOM     22  O   UNL     1      -1.563  10.015  18.402  0.00  0.00    +0.000 OA
ATOM     23  C   UNL     1      -2.291  10.471  17.355  0.00  0.00    +0.000 C 
ATOM     24  O   UNL     1      -2.455   9.890  16.296  0.00  0.00    +0.000 OA
ATOM     25  O   UNL     1      -2.863  11.678  17.645  0.00  0.00    +0.000 OA
ENDBRANCH   7  20
BRANCH   3  26
ATOM     26  C   UNL     1      -3.296  12.589  23.400  0.00  0.00    +0.000 C 
ATOM     27  O   UNL     1      -2.477  11.680  23.434  0.00  0.00    +0.000 OA
BRANCH  26  28
ATOM     28  O   UNL     1      -3.938  12.975  24.525  0.00  0.00    +0.000 OA
ATOM     29  H   UNL     1      -4.570  12.296  24.870  0.00  0.00    +0.000 HD
ENDBRANCH  26  28
ENDBRANCH   3  26
BRANCH   1  30
ATOM     30  C   UNL     1      -5.334  11.775  18.955  0.00  0.00    +0.000 C 
BRANCH  30  32
ATOM     31  C   UNL     1      -7.374  12.873  18.649  0.00  0.00    +0.000 C 
ATOM     32  O   UNL     1      -6.165  12.450  18.014  0.00  0.00    +0.000 OA
ENDBRANCH  30  32
ENDBRANCH   1  30
BRANCH   3  33
ATOM     33  C   UNL     1      -4.435  14.696  22.413  0.00  0.00    +0.000 C 
BRANCH  33  34
ATOM     34  C   UNL     1      -5.984  14.829  22.450  0.00  0.00    +0.000 C 
ATOM     35  C   UNL     1      -6.571  15.365  23.757  0.00  0.00    +0.000 C 
ATOM     36  C   UNL     1      -6.435  15.785  21.328  0.00  0.00    +0.000 C 
ENDBRANCH  33  34
ENDBRANCH   3  33
TORSDOF 10
ENDMDL
MODEL 9
REMARK VINA RESULT:      -4.8      3.814      7.127
REMARK  Name = 
REMARK  17 active torsions:
REMARK  status: ('A' for Active; 'I' for Inactive)
REMARK    1  A    between atoms: C_1  and  O_2
REMARK    2  A    between atoms: O_2  and  C_3
REMARK    3  A    between atoms: C_3  and  C_4
REMARK    4  A    between atoms: C_6  and  C_7
REMARK    5  A    between atoms: C_6  and  C_11
REMARK    6  A    between atoms: C_7  and  C_8
REMARK    7  A    between atoms: C_8  and  C_9
REMARK    8  A    between atoms: C_8  and  C_10
REMARK    9  A    between atoms: C_11  and  O_13
REMARK   10  A    between atoms: C_15  and  C_17
REMARK   11  A    between atoms: C_20  and  C_21
REMARK   12  A    between atoms: C_21  and  C_22
REMARK   13  A    between atoms: C_21  and  C_23
REMARK   14  A    between atoms: C_21  and  C_24
REMARK   15  A    between atoms: C_25  and  O_26
REMARK   16  A    between atoms: O_26  and  C_27
REMARK   17  A    between atoms: C_29  and  C_30
REMARK                            x       y       z     vdW  Elec       q    Type
REMARK                         _______ _______ _______ _____ _____    ______ ____
ROOT
ATOM      1  C   UNL     1      -1.943  13.038  21.808  0.00  0.00    +0.000 C 
ATOM      2  C   UNL     1      -2.470  12.347  20.562  0.00  0.00    +0.000 C 
ATOM      3  C   UNL     1      -1.206  11.777  19.860  0.00  0.00    +0.000 C 
ATOM      4  N   UNL     1      -0.182  12.891  20.142  0.00  0.00    +0.000 N 
ATOM      5  C   UNL     1       1.127  12.861  19.597  0.00  0.00    +0.000 C 
ATOM      6  O   UNL     1       1.434  12.010  18.759  0.00  0.00    +0.000 OA
ATOM      7  C   UNL     1      -0.652  13.734  21.294  0.00  0.00    +0.000 C 
ENDROOT
BRANCH   5   8
ATOM      8  C   UNL     1       2.138  13.943  19.902  0.00  0.00    +0.000 A 
ATOM      9  C   UNL     1       3.034  13.782  20.959  0.00  0.00    +0.000 A 
ATOM     10  C   UNL     1       4.206  14.566  21.024  0.00  0.00    +0.000 A 
ATOM     11  C   UNL     1       4.553  15.476  19.997  0.00  0.00    +0.000 A 
ATOM     12  C   UNL     1       3.573  15.686  18.999  0.00  0.00    +0.000 A 
ATOM     13  C   UNL     1       2.332  15.023  19.050  0.00  0.00    +0.000 A 
BRANCH  11  14
ATOM     14  C   UNL     1       5.978  16.111  19.964  0.00  0.00    +0.000 C 
ATOM     15  C   UNL     1       6.778  15.631  21.197  0.00  0.00    +0.000 C 
ATOM     16  C   UNL     1       6.829  15.774  18.712  0.00  0.00    +0.000 C 
ATOM     17  C   UNL     1       5.920  17.658  20.009  0.00  0.00    +0.000 C 
ENDBRANCH  11  14
BRANCH  12  18
ATOM     18  O   UNL     1       3.960  16.386  17.889  0.00  0.00    +0.000 OA
ATOM     19  C   UNL     1       3.000  16.995  17.039  0.00  0.00    +0.000 C 
ENDBRANCH  12  18
ENDBRANCH   5   8
BRANCH   7  20
ATOM     20  C   UNL     1      -0.629  15.280  21.097  0.00  0.00    +0.000 C 
ATOM     21  C   UNL     1      -1.674  15.913  20.226  0.00  0.00    +0.000 C 
ATOM     22  O   UNL     1      -1.834  17.224  20.751  0.00  0.00    +0.000 OA
ATOM     23  C   UNL     1      -1.282  17.245  21.988  0.00  0.00    +0.000 C 
ATOM     24  O   UNL     1      -1.307  18.185  22.763  0.00  0.00    +0.000 OA
ATOM     25  O   UNL     1      -0.702  16.043  22.285  0.00  0.00    +0.000 OA
ENDBRANCH   7  20
BRANCH   3  26
ATOM     26  C   UNL     1      -1.607  11.585  18.359  0.00  0.00    +0.000 C 
ATOM     27  O   UNL     1      -2.070  10.551  17.895  0.00  0.00    +0.000 OA
BRANCH  26  28
ATOM     28  O   UNL     1      -1.331  12.634  17.552  0.00  0.00    +0.000 OA
ATOM     29  H   UNL     1      -1.863  13.442  17.761  0.00  0.00    +0.000 HD
ENDBRANCH  26  28
ENDBRANCH   3  26
BRANCH   1  30
ATOM     30  C   UNL     1      -2.986  13.887  22.527  0.00  0.00    +0.000 C 
BRANCH  30  32
ATOM     31  C   UNL     1      -3.322  15.100  24.496  0.00  0.00    +0.000 C 
ATOM     32  O   UNL     1      -2.734  13.926  23.930  0.00  0.00    +0.000 OA
ENDBRANCH  30  32
ENDBRANCH   1  30
BRANCH   3  33
ATOM     33  C   UNL     1      -0.699  10.432  20.494  0.00  0.00    +0.000 C 
BRANCH  33  34
ATOM     34  C   UNL     1       0.068  10.426  21.847  0.00  0.00    +0.000 C 
ATOM     35  C   UNL     1      -0.752  10.014  23.071  0.00  0.00    +0.000 C 
ATOM     36  C   UNL     1       1.255   9.448  21.749  0.00  0.00    +0.000 C 
ENDBRANCH  33  34
ENDBRANCH   3  33
TORSDOF 10
ENDMDL
