MODEL 1
REMARK VINA RESULT:      -7.7      0.000      0.000
REMARK  Name = 
REMARK  5 active torsions:
REMARK  status: ('A' for Active; 'I' for Inactive)
REMARK    1  A    between atoms: C_2  and  C_5
REMARK    2  A    between atoms: C_5  and  C_6
REMARK    3  A    between atoms: C_6  and  C_7
REMARK    4  A    between atoms: N_15  and  C_16
REMARK    5  A    between atoms: C_16  and  C_17
REMARK                            x       y       z     vdW  Elec       q    Type
REMARK                         _______ _______ _______ _____ _____    ______ ____
ROOT
ATOM      1  C   UNL     1       6.357   3.879  12.535  0.00  0.00    +0.000 A 
ATOM      2  C   UNL     1       7.462   4.573  12.105  0.00  0.00    +0.000 A 
ATOM      3  C   UNL     1       8.066   5.362  13.050  0.00  0.00    +0.000 A 
ATOM      4  N   UNL     1       7.641   5.458  14.324  0.00  0.00    +0.000 NA
ATOM      5  C   UNL     1       6.573   4.731  14.678  0.00  0.00    +0.000 A 
ATOM      6  N   UNL     1       6.137   4.753  15.975  0.00  0.00    +0.000 N 
ATOM      7  C   UNL     1       4.946   4.016  16.387  0.00  0.00    +0.000 C 
ATOM      8  C   UNL     1       5.180   3.348  17.768  0.00  0.00    +0.000 C 
ATOM      9  N   UNL     1       5.749   4.225  18.825  0.00  0.00    +0.000 NA
ATOM     10  C   UNL     1       6.964   4.876  18.267  0.00  0.00    +0.000 C 
ATOM     11  C   UNL     1       6.743   5.651  16.949  0.00  0.00    +0.000 C 
ATOM     12  N   UNL     1       5.929   3.942  13.810  0.00  0.00    +0.000 NA
ENDROOT
BRANCH   1  13
ATOM     13  C   UNL     1       5.581   2.982  11.605  0.00  0.00    +0.000 C 
BRANCH  13  14
ATOM     14  C   UNL     1       4.073   3.220  11.718  0.00  0.00    +0.000 C 
BRANCH  14  16
ATOM     15  F   UNL     1       2.339   2.642  10.194  0.00  0.00    +0.000 F 
ATOM     16  C   UNL     1       3.414   3.437  10.379  0.00  0.00    +0.000 C 
ATOM     17  F   UNL     1       4.282   3.189   9.374  0.00  0.00    +0.000 F 
ATOM     18  F   UNL     1       3.001   4.718  10.249  0.00  0.00    +0.000 F 
ENDBRANCH  14  16
ENDBRANCH  13  14
ENDBRANCH   1  13
BRANCH   9  19
ATOM     19  C   UNL     1       4.738   5.215  19.255  0.00  0.00    +0.000 C 
BRANCH  19  20
ATOM     20  C   UNL     1       3.418   4.630  19.722  0.00  0.00    +0.000 A 
ATOM     21  C   UNL     1       2.252   4.835  18.989  0.00  0.00    +0.000 A 
ATOM     22  C   UNL     1       1.056   4.311  19.468  0.00  0.00    +0.000 A 
ATOM     23  C   UNL     1       1.056   3.594  20.661  0.00  0.00    +0.000 A 
ATOM     24  C   UNL     1       2.261   3.419  21.319  0.00  0.00    +0.000 A 
ATOM     25  N   UNL     1       3.437   3.916  20.878  0.00  0.00    +0.000 NA
ENDBRANCH  19  20
ENDBRANCH   9  19
TORSDOF 5
ENDMDL
MODEL 2
REMARK VINA RESULT:      -7.6      0.639      1.205
REMARK  Name = 
REMARK  5 active torsions:
REMARK  status: ('A' for Active; 'I' for Inactive)
REMARK    1  A    between atoms: C_2  and  C_5
REMARK    2  A    between atoms: C_5  and  C_6
REMARK    3  A    between atoms: C_6  and  C_7
REMARK    4  A    between atoms: N_15  and  C_16
REMARK    5  A    between atoms: C_16  and  C_17
REMARK                            x       y       z     vdW  Elec       q    Type
REMARK                         _______ _______ _______ _____ _____    ______ ____
ROOT
ATOM      1  C   UNL     1       6.122   3.792  12.446  0.00  0.00    +0.000 A 
ATOM      2  C   UNL     1       7.232   4.443  11.966  0.00  0.00    +0.000 A 
ATOM      3  C   UNL     1       7.892   5.231  12.875  0.00  0.00    +0.000 A 
ATOM      4  N   UNL     1       7.515   5.363  14.160  0.00  0.00    +0.000 NA
ATOM      5  C   UNL     1       6.438   4.676  14.564  0.00  0.00    +0.000 A 
ATOM      6  N   UNL     1       6.047   4.735  15.875  0.00  0.00    +0.000 N 
ATOM      7  C   UNL     1       4.850   4.043  16.341  0.00  0.00    +0.000 C 
ATOM      8  C   UNL     1       5.111   3.393  17.726  0.00  0.00    +0.000 C 
ATOM      9  N   UNL     1       5.743   4.271  18.745  0.00  0.00    +0.000 NA
ATOM     10  C   UNL     1       6.957   4.875  18.134  0.00  0.00    +0.000 C 
ATOM     11  C   UNL     1       6.713   5.632  16.810  0.00  0.00    +0.000 C 
ATOM     12  N   UNL     1       5.741   3.891  13.734  0.00  0.00    +0.000 NA
ENDROOT
BRANCH   1  13
ATOM     13  C   UNL     1       5.288   2.902  11.561  0.00  0.00    +0.000 C 
BRANCH  13  14
ATOM     14  C   UNL     1       3.823   3.343  11.538  0.00  0.00    +0.000 C 
BRANCH  14  16
ATOM     15  F   UNL     1       2.671   4.839  10.088  0.00  0.00    +0.000 F 
ATOM     16  C   UNL     1       3.330   3.662  10.149  0.00  0.00    +0.000 C 
ATOM     17  F   UNL     1       2.489   2.701   9.707  0.00  0.00    +0.000 F 
ATOM     18  F   UNL     1       4.362   3.728   9.277  0.00  0.00    +0.000 F 
ENDBRANCH  14  16
ENDBRANCH  13  14
ENDBRANCH   1  13
BRANCH   9  19
ATOM     19  C   UNL     1       4.777   5.300  19.190  0.00  0.00    +0.000 C 
BRANCH  19  20
ATOM     20  C   UNL     1       3.422   4.771  19.620  0.00  0.00    +0.000 A 
ATOM     21  C   UNL     1       3.256   4.174  20.868  0.00  0.00    +0.000 A 
ATOM     22  C   UNL     1       2.006   3.670  21.211  0.00  0.00    +0.000 A 
ATOM     23  C   UNL     1       0.955   3.779  20.304  0.00  0.00    +0.000 A 
ATOM     24  C   UNL     1       1.199   4.402  19.092  0.00  0.00    +0.000 A 
ATOM     25  N   UNL     1       2.401   4.900  18.732  0.00  0.00    +0.000 NA
ENDBRANCH  19  20
ENDBRANCH   9  19
TORSDOF 5
ENDMDL
MODEL 3
REMARK VINA RESULT:      -7.5      7.452      9.521
REMARK  Name = 
REMARK  5 active torsions:
REMARK  status: ('A' for Active; 'I' for Inactive)
REMARK    1  A    between atoms: C_2  and  C_5
REMARK    2  A    between atoms: C_5  and  C_6
REMARK    3  A    between atoms: C_6  and  C_7
REMARK    4  A    between atoms: N_15  and  C_16
REMARK    5  A    between atoms: C_16  and  C_17
REMARK                            x       y       z     vdW  Elec       q    Type
REMARK                         _______ _______ _______ _____ _____    ______ ____
ROOT
ATOM      1  C   UNL     1       2.883   6.095  19.342  0.00  0.00    +0.000 A 
ATOM      2  C   UNL     1       3.360   6.500  18.119  0.00  0.00    +0.000 A 
ATOM      3  C   UNL     1       2.981   7.758  17.726  0.00  0.00    +0.000 A 
ATOM      4  N   UNL     1       2.212   8.573  18.471  0.00  0.00    +0.000 NA
ATOM      5  C   UNL     1       1.806   8.121  19.665  0.00  0.00    +0.000 A 
ATOM      6  N   UNL     1       1.067   8.933  20.483  0.00  0.00    +0.000 N 
ATOM      7  C   UNL     1       0.562   8.457  21.768  0.00  0.00    +0.000 C 
ATOM      8  C   UNL     1       0.706   9.567  22.844  0.00  0.00    +0.000 C 
ATOM      9  N   UNL     1       0.211  10.914  22.456  0.00  0.00    +0.000 NA
ATOM     10  C   UNL     1       0.834  11.267  21.152  0.00  0.00    +0.000 C 
ATOM     11  C   UNL     1       0.612  10.237  20.022  0.00  0.00    +0.000 C 
ATOM     12  N   UNL     1       2.131   6.903  20.115  0.00  0.00    +0.000 NA
ENDROOT
BRANCH   1  13
ATOM     13  C   UNL     1       3.203   4.733  19.900  0.00  0.00    +0.000 C 
BRANCH  13  14
ATOM     14  C   UNL     1       2.303   4.382  21.086  0.00  0.00    +0.000 C 
BRANCH  14  16
ATOM     15  F   UNL     1       0.280   3.578  20.121  0.00  0.00    +0.000 F 
ATOM     16  C   UNL     1       1.389   3.216  20.801  0.00  0.00    +0.000 C 
ATOM     17  F   UNL     1       0.988   2.631  21.951  0.00  0.00    +0.000 F 
ATOM     18  F   UNL     1       2.026   2.274  20.070  0.00  0.00    +0.000 F 
ENDBRANCH  14  16
ENDBRANCH  13  14
ENDBRANCH   1  13
BRANCH   9  19
ATOM     19  C   UNL     1      -1.266  10.904  22.379  0.00  0.00    +0.000 C 
BRANCH  19  20
ATOM     20  C   UNL     1      -1.957  12.067  23.067  0.00  0.00    +0.000 A 
ATOM     21  C   UNL     1      -1.303  13.288  23.225  0.00  0.00    +0.000 A 
ATOM     22  C   UNL     1      -1.956  14.319  23.891  0.00  0.00    +0.000 A 
ATOM     23  C   UNL     1      -3.244  14.107  24.377  0.00  0.00    +0.000 A 
ATOM     24  C   UNL     1      -3.830  12.872  24.162  0.00  0.00    +0.000 A 
ATOM     25  N   UNL     1      -3.220  11.853  23.519  0.00  0.00    +0.000 NA
ENDBRANCH  19  20
ENDBRANCH   9  19
TORSDOF 5
ENDMDL
MODEL 4
REMARK VINA RESULT:      -7.4      7.555      9.584
REMARK  Name = 
REMARK  5 active torsions:
REMARK  status: ('A' for Active; 'I' for Inactive)
REMARK    1  A    between atoms: C_2  and  C_5
REMARK    2  A    between atoms: C_5  and  C_6
REMARK    3  A    between atoms: C_6  and  C_7
REMARK    4  A    between atoms: N_15  and  C_16
REMARK    5  A    between atoms: C_16  and  C_17
REMARK                            x       y       z     vdW  Elec       q    Type
REMARK                         _______ _______ _______ _____ _____    ______ ____
ROOT
ATOM      1  C   UNL     1       2.794   6.032  19.306  0.00  0.00    +0.000 A 
ATOM      2  C   UNL     1       3.327   6.370  18.086  0.00  0.00    +0.000 A 
ATOM      3  C   UNL     1       3.037   7.636  17.647  0.00  0.00    +0.000 A 
ATOM      4  N   UNL     1       2.299   8.518  18.346  0.00  0.00    +0.000 NA
ATOM      5  C   UNL     1       1.835   8.128  19.541  0.00  0.00    +0.000 A 
ATOM      6  N   UNL     1       1.126   9.008  20.314  0.00  0.00    +0.000 N 
ATOM      7  C   UNL     1       0.560   8.603  21.597  0.00  0.00    +0.000 C 
ATOM      8  C   UNL     1       0.743   9.735  22.644  0.00  0.00    +0.000 C 
ATOM      9  N   UNL     1       0.343  11.097  22.204  0.00  0.00    +0.000 NA
ATOM     10  C   UNL     1       1.020  11.371  20.908  0.00  0.00    +0.000 C 
ATOM     11  C   UNL     1       0.764  10.323  19.803  0.00  0.00    +0.000 C 
ATOM     12  N   UNL     1       2.073   6.907  20.034  0.00  0.00    +0.000 NA
ENDROOT
BRANCH   1  13
ATOM     13  C   UNL     1       3.015   4.670  19.912  0.00  0.00    +0.000 C 
BRANCH  13  14
ATOM     14  C   UNL     1       1.925   4.319  20.926  0.00  0.00    +0.000 C 
BRANCH  14  16
ATOM     15  F   UNL     1       1.589   2.088  20.168  0.00  0.00    +0.000 F 
ATOM     16  C   UNL     1       1.878   2.846  21.247  0.00  0.00    +0.000 C 
ATOM     17  F   UNL     1       0.941   2.592  22.187  0.00  0.00    +0.000 F 
ATOM     18  F   UNL     1       3.065   2.423  21.736  0.00  0.00    +0.000 F 
ENDBRANCH  14  16
ENDBRANCH  13  14
ENDBRANCH   1  13
BRANCH   9  19
ATOM     19  C   UNL     1      -1.130  11.174  22.087  0.00  0.00    +0.000 C 
BRANCH  19  20
ATOM     20  C   UNL     1      -1.788  12.262  22.915  0.00  0.00    +0.000 A 
ATOM     21  C   UNL     1      -3.107  12.128  23.342  0.00  0.00    +0.000 A 
ATOM     22  C   UNL     1      -3.686  13.162  24.070  0.00  0.00    +0.000 A 
ATOM     23  C   UNL     1      -2.933  14.297  24.357  0.00  0.00    +0.000 A 
ATOM     24  C   UNL     1      -1.623  14.343  23.913  0.00  0.00    +0.000 A 
ATOM     25  N   UNL     1      -1.035  13.356  23.204  0.00  0.00    +0.000 NA
ENDBRANCH  19  20
ENDBRANCH   9  19
TORSDOF 5
ENDMDL
MODEL 5
REMARK VINA RESULT:      -7.3      1.647      2.186
REMARK  Name = 
REMARK  5 active torsions:
REMARK  status: ('A' for Active; 'I' for Inactive)
REMARK    1  A    between atoms: C_2  and  C_5
REMARK    2  A    between atoms: C_5  and  C_6
REMARK    3  A    between atoms: C_6  and  C_7
REMARK    4  A    between atoms: N_15  and  C_16
REMARK    5  A    between atoms: C_16  and  C_17
REMARK                            x       y       z     vdW  Elec       q    Type
REMARK                         _______ _______ _______ _____ _____    ______ ____
ROOT
ATOM      1  C   UNL     1       6.321   4.106  12.452  0.00  0.00    +0.000 A 
ATOM      2  C   UNL     1       7.467   4.761  12.074  0.00  0.00    +0.000 A 
ATOM      3  C   UNL     1       8.106   5.454  13.070  0.00  0.00    +0.000 A 
ATOM      4  N   UNL     1       7.675   5.494  14.345  0.00  0.00    +0.000 NA
ATOM      5  C   UNL     1       6.564   4.809  14.646  0.00  0.00    +0.000 A 
ATOM      6  N   UNL     1       6.117   4.774  15.939  0.00  0.00    +0.000 N 
ATOM      7  C   UNL     1       4.883   4.082  16.297  0.00  0.00    +0.000 C 
ATOM      8  C   UNL     1       5.066   3.316  17.634  0.00  0.00    +0.000 C 
ATOM      9  N   UNL     1       5.674   4.091  18.748  0.00  0.00    +0.000 NA
ATOM     10  C   UNL     1       6.929   4.706  18.239  0.00  0.00    +0.000 C 
ATOM     11  C   UNL     1       6.764   5.573  16.971  0.00  0.00    +0.000 C 
ATOM     12  N   UNL     1       5.885   4.113  13.726  0.00  0.00    +0.000 NA
ENDROOT
BRANCH   1  13
ATOM     13  C   UNL     1       5.504   3.315  11.463  0.00  0.00    +0.000 C 
BRANCH  13  14
ATOM     14  C   UNL     1       5.522   1.819  11.785  0.00  0.00    +0.000 C 
BRANCH  14  16
ATOM     15  F   UNL     1       7.815   1.259  11.472  0.00  0.00    +0.000 F 
ATOM     16  C   UNL     1       6.565   1.065  10.999  0.00  0.00    +0.000 C 
ATOM     17  F   UNL     1       6.556   1.447   9.703  0.00  0.00    +0.000 F 
ATOM     18  F   UNL     1       6.321  -0.265  11.029  0.00  0.00    +0.000 F 
ENDBRANCH  14  16
ENDBRANCH  13  14
ENDBRANCH   1  13
BRANCH   9  19
ATOM     19  C   UNL     1       4.715   5.109  19.233  0.00  0.00    +0.000 C 
BRANCH  19  20
ATOM     20  C   UNL     1       3.455   4.556  19.873  0.00  0.00    +0.000 A 
ATOM     21  C   UNL     1       3.460   3.305  20.485  0.00  0.00    +0.000 A 
ATOM     22  C   UNL     1       2.277   2.818  21.030  0.00  0.00    +0.000 A 
ATOM     23  C   UNL     1       1.123   3.594  20.954  0.00  0.00    +0.000 A 
ATOM     24  C   UNL     1       1.207   4.834  20.346  0.00  0.00    +0.000 A 
ATOM     25  N   UNL     1       2.341   5.332  19.809  0.00  0.00    +0.000 NA
ENDBRANCH  19  20
ENDBRANCH   9  19
TORSDOF 5
ENDMDL
MODEL 6
REMARK VINA RESULT:      -7.3      7.277      9.352
REMARK  Name = 
REMARK  5 active torsions:
REMARK  status: ('A' for Active; 'I' for Inactive)
REMARK    1  A    between atoms: C_2  and  C_5
REMARK    2  A    between atoms: C_5  and  C_6
REMARK    3  A    between atoms: C_6  and  C_7
REMARK    4  A    between atoms: N_15  and  C_16
REMARK    5  A    between atoms: C_16  and  C_17
REMARK                            x       y       z     vdW  Elec       q    Type
REMARK                         _______ _______ _______ _____ _____    ______ ____
ROOT
ATOM      1  C   UNL     1       2.491   6.149  19.684  0.00  0.00    +0.000 A 
ATOM      2  C   UNL     1       3.185   6.418  18.530  0.00  0.00    +0.000 A 
ATOM      3  C   UNL     1       3.028   7.685  18.030  0.00  0.00    +0.000 A 
ATOM      4  N   UNL     1       2.268   8.629  18.614  0.00  0.00    +0.000 NA
ATOM      5  C   UNL     1       1.642   8.304  19.753  0.00  0.00    +0.000 A 
ATOM      6  N   UNL     1       0.901   9.246  20.414  0.00  0.00    +0.000 N 
ATOM      7  C   UNL     1       0.162   8.915  21.628  0.00  0.00    +0.000 C 
ATOM      8  C   UNL     1       0.288  10.065  22.663  0.00  0.00    +0.000 C 
ATOM      9  N   UNL     1       0.028  11.434  22.146  0.00  0.00    +0.000 NA
ATOM     10  C   UNL     1       0.870  11.629  20.936  0.00  0.00    +0.000 C 
ATOM     11  C   UNL     1       0.684  10.564  19.833  0.00  0.00    +0.000 C 
ATOM     12  N   UNL     1       1.744   7.086  20.299  0.00  0.00    +0.000 NA
ENDROOT
BRANCH   1  13
ATOM     13  C   UNL     1       2.554   4.796  20.344  0.00  0.00    +0.000 C 
BRANCH  13  14
ATOM     14  C   UNL     1       1.260   4.006  20.137  0.00  0.00    +0.000 C 
BRANCH  14  16
ATOM     15  F   UNL     1       1.048   3.998  17.766  0.00  0.00    +0.000 F 
ATOM     16  C   UNL     1       1.254   3.220  18.850  0.00  0.00    +0.000 C 
ATOM     17  F   UNL     1       0.282   2.281  18.868  0.00  0.00    +0.000 F 
ATOM     18  F   UNL     1       2.432   2.579  18.673  0.00  0.00    +0.000 F 
ENDBRANCH  14  16
ENDBRANCH  13  14
ENDBRANCH   1  13
BRANCH   9  19
ATOM     19  C   UNL     1      -1.414  11.594  21.850  0.00  0.00    +0.000 C 
BRANCH  19  20
ATOM     20  C   UNL     1      -2.185  12.451  22.835  0.00  0.00    +0.000 A 
ATOM     21  C   UNL     1      -1.781  13.756  23.108  0.00  0.00    +0.000 A 
ATOM     22  C   UNL     1      -2.494  14.498  24.044  0.00  0.00    +0.000 A 
ATOM     23  C   UNL     1      -3.591  13.922  24.677  0.00  0.00    +0.000 A 
ATOM     24  C   UNL     1      -3.938  12.626  24.335  0.00  0.00    +0.000 A 
ATOM     25  N   UNL     1      -3.266  11.882  23.432  0.00  0.00    +0.000 NA
ENDBRANCH  19  20
ENDBRANCH   9  19
TORSDOF 5
ENDMDL
MODEL 7
REMARK VINA RESULT:      -7.2      4.654      8.260
REMARK  Name = 
REMARK  5 active torsions:
REMARK  status: ('A' for Active; 'I' for Inactive)
REMARK    1  A    between atoms: C_2  and  C_5
REMARK    2  A    between atoms: C_5  and  C_6
REMARK    3  A    between atoms: C_6  and  C_7
REMARK    4  A    between atoms: N_15  and  C_16
REMARK    5  A    between atoms: C_16  and  C_17
REMARK                            x       y       z     vdW  Elec       q    Type
REMARK                         _______ _______ _______ _____ _____    ______ ____
ROOT
ATOM      1  C   UNL     1       1.453   8.886  19.046  0.00  0.00    +0.000 A 
ATOM      2  C   UNL     1       1.069   8.526  20.315  0.00  0.00    +0.000 A 
ATOM      3  C   UNL     1       1.636   7.375  20.798  0.00  0.00    +0.000 A 
ATOM      4  N   UNL     1       2.524   6.635  20.109  0.00  0.00    +0.000 NA
ATOM      5  C   UNL     1       2.873   7.062  18.888  0.00  0.00    +0.000 A 
ATOM      6  N   UNL     1       3.814   6.373  18.171  0.00  0.00    +0.000 N 
ATOM      7  C   UNL     1       4.181   6.777  16.817  0.00  0.00    +0.000 C 
ATOM      8  C   UNL     1       5.715   6.650  16.617  0.00  0.00    +0.000 C 
ATOM      9  N   UNL     1       6.321   5.365  17.055  0.00  0.00    +0.000 NA
ATOM     10  C   UNL     1       5.882   5.110  18.452  0.00  0.00    +0.000 C 
ATOM     11  C   UNL     1       4.352   5.113  18.666  0.00  0.00    +0.000 C 
ATOM     12  N   UNL     1       2.359   8.174  18.349  0.00  0.00    +0.000 NA
ENDROOT
BRANCH   1  13
ATOM     13  C   UNL     1       0.904  10.119  18.377  0.00  0.00    +0.000 C 
BRANCH  13  14
ATOM     14  C   UNL     1      -0.518  10.432  18.849  0.00  0.00    +0.000 C 
BRANCH  14  16
ATOM     15  F   UNL     1      -2.688   9.666  18.241  0.00  0.00    +0.000 F 
ATOM     16  C   UNL     1      -1.551  10.221  17.771  0.00  0.00    +0.000 C 
ATOM     17  F   UNL     1      -1.071   9.409  16.803  0.00  0.00    +0.000 F 
ATOM     18  F   UNL     1      -1.882  11.394  17.187  0.00  0.00    +0.000 F 
ENDBRANCH  14  16
ENDBRANCH  13  14
ENDBRANCH   1  13
BRANCH   9  19
ATOM     19  C   UNL     1       5.913   4.278  16.138  0.00  0.00    +0.000 C 
BRANCH  19  20
ATOM     20  C   UNL     1       6.431   4.403  14.717  0.00  0.00    +0.000 A 
ATOM     21  C   UNL     1       5.843   3.680  13.681  0.00  0.00    +0.000 A 
ATOM     22  C   UNL     1       6.368   3.795  12.399  0.00  0.00    +0.000 A 
ATOM     23  C   UNL     1       7.461   4.630  12.183  0.00  0.00    +0.000 A 
ATOM     24  C   UNL     1       7.975   5.327  13.263  0.00  0.00    +0.000 A 
ATOM     25  N   UNL     1       7.486   5.236  14.517  0.00  0.00    +0.000 NA
ENDBRANCH  19  20
ENDBRANCH   9  19
TORSDOF 5
ENDMDL
MODEL 8
REMARK VINA RESULT:      -7.2      7.137      9.080
REMARK  Name = 
REMARK  5 active torsions:
REMARK  status: ('A' for Active; 'I' for Inactive)
REMARK    1  A    between atoms: C_2  and  C_5
REMARK    2  A    between atoms: C_5  and  C_6
REMARK    3  A    between atoms: C_6  and  C_7
REMARK    4  A    between atoms: N_15  and  C_16
REMARK    5  A    between atoms: C_16  and  C_17
REMARK                            x       y       z     vdW  Elec       q    Type
REMARK                         _______ _______ _______ _____ _____    ______ ____
ROOT
ATOM      1  C   UNL     1       2.577   5.962  19.451  0.00  0.00    +0.000 A 
ATOM      2  C   UNL     1       3.217   6.293  18.281  0.00  0.00    +0.000 A 
ATOM      3  C   UNL     1       3.024   7.579  17.847  0.00  0.00    +0.000 A 
ATOM      4  N   UNL     1       2.280   8.486  18.508  0.00  0.00    +0.000 NA
ATOM      5  C   UNL     1       1.708   8.100  19.656  0.00  0.00    +0.000 A 
ATOM      6  N   UNL     1       0.986   9.002  20.391  0.00  0.00    +0.000 N 
ATOM      7  C   UNL     1       0.305   8.605  21.620  0.00  0.00    +0.000 C 
ATOM      8  C   UNL     1       0.463   9.708  22.700  0.00  0.00    +0.000 C 
ATOM      9  N   UNL     1       0.166  11.096  22.259  0.00  0.00    +0.000 NA
ATOM     10  C   UNL     1       0.952  11.357  21.024  0.00  0.00    +0.000 C 
ATOM     11  C   UNL     1       0.730  10.342  19.882  0.00  0.00    +0.000 C 
ATOM     12  N   UNL     1       1.847   6.860  20.140  0.00  0.00    +0.000 NA
ENDROOT
BRANCH   1  13
ATOM     13  C   UNL     1       2.684   4.581  20.044  0.00  0.00    +0.000 C 
BRANCH  13  14
ATOM     14  C   UNL     1       3.113   3.550  18.997  0.00  0.00    +0.000 C 
BRANCH  14  16
ATOM     15  F   UNL     1       1.484   1.876  19.459  0.00  0.00    +0.000 F 
ATOM     16  C   UNL     1       1.964   2.704  18.507  0.00  0.00    +0.000 C 
ATOM     17  F   UNL     1       2.346   1.941  17.459  0.00  0.00    +0.000 F 
ATOM     18  F   UNL     1       0.940   3.481  18.088  0.00  0.00    +0.000 F 
ENDBRANCH  14  16
ENDBRANCH  13  14
ENDBRANCH   1  13
BRANCH   9  19
ATOM     19  C   UNL     1      -1.289  11.250  22.033  0.00  0.00    +0.000 C 
BRANCH  19  20
ATOM     20  C   UNL     1      -1.975  12.275  22.916  0.00  0.00    +0.000 A 
ATOM     21  C   UNL     1      -1.348  13.481  23.222  0.00  0.00    +0.000 A 
ATOM     22  C   UNL     1      -1.995  14.380  24.064  0.00  0.00    +0.000 A 
ATOM     23  C   UNL     1      -3.249  14.055  24.572  0.00  0.00    +0.000 A 
ATOM     24  C   UNL     1      -3.811  12.845  24.204  0.00  0.00    +0.000 A 
ATOM     25  N   UNL     1      -3.207  11.953  23.390  0.00  0.00    +0.000 NA
ENDBRANCH  19  20
ENDBRANCH   9  19
TORSDOF 5
ENDMDL
MODEL 9
REMARK VINA RESULT:      -7.1      7.238      9.445
REMARK  Name = 
REMARK  5 active torsions:
REMARK  status: ('A' for Active; 'I' for Inactive)
REMARK    1  A    between atoms: C_2  and  C_5
REMARK    2  A    between atoms: C_5  and  C_6
REMARK    3  A    between atoms: C_6  and  C_7
REMARK    4  A    between atoms: N_15  and  C_16
REMARK    5  A    between atoms: C_16  and  C_17
REMARK                            x       y       z     vdW  Elec       q    Type
REMARK                         _______ _______ _______ _____ _____    ______ ____
ROOT
ATOM      1  C   UNL     1       2.244   5.786  20.099  0.00  0.00    +0.000 A 
ATOM      2  C   UNL     1       3.101   5.960  19.039  0.00  0.00    +0.000 A 
ATOM      3  C   UNL     1       3.112   7.216  18.490  0.00  0.00    +0.000 A 
ATOM      4  N   UNL     1       2.362   8.237  18.946  0.00  0.00    +0.000 NA
ATOM      5  C   UNL     1       1.570   8.001  20.000  0.00  0.00    +0.000 A 
ATOM      6  N   UNL     1       0.829   9.021  20.534  0.00  0.00    +0.000 N 
ATOM      7  C   UNL     1      -0.084   8.790  21.650  0.00  0.00    +0.000 C 
ATOM      8  C   UNL     1      -0.000   9.964  22.662  0.00  0.00    +0.000 C 
ATOM      9  N   UNL     1      -0.080  11.329  22.081  0.00  0.00    +0.000 NA
ATOM     10  C   UNL     1       0.924  11.416  20.987  0.00  0.00    +0.000 C 
ATOM     11  C   UNL     1       0.796  10.329  19.897  0.00  0.00    +0.000 C 
ATOM     12  N   UNL     1       1.502   6.799  20.586  0.00  0.00    +0.000 NA
ENDROOT
BRANCH   1  13
ATOM     13  C   UNL     1       2.113   4.457  20.795  0.00  0.00    +0.000 C 
BRANCH  13  14
ATOM     14  C   UNL     1       0.898   3.674  20.293  0.00  0.00    +0.000 C 
BRANCH  14  16
ATOM     15  F   UNL     1       0.333   1.940  18.763  0.00  0.00    +0.000 F 
ATOM     16  C   UNL     1       1.145   3.000  18.966  0.00  0.00    +0.000 C 
ATOM     17  F   UNL     1       2.419   2.559  18.885  0.00  0.00    +0.000 F 
ATOM     18  F   UNL     1       0.950   3.864  17.945  0.00  0.00    +0.000 F 
ENDBRANCH  14  16
ENDBRANCH  13  14
ENDBRANCH   1  13
BRANCH   9  19
ATOM     19  C   UNL     1      -1.454  11.588  21.595  0.00  0.00    +0.000 C 
BRANCH  19  20
ATOM     20  C   UNL     1      -2.269  12.546  22.442  0.00  0.00    +0.000 A 
ATOM     21  C   UNL     1      -2.998  12.082  23.535  0.00  0.00    +0.000 A 
ATOM     22  C   UNL     1      -3.761  12.986  24.267  0.00  0.00    +0.000 A 
ATOM     23  C   UNL     1      -3.773  14.326  23.893  0.00  0.00    +0.000 A 
ATOM     24  C   UNL     1      -3.007  14.709  22.805  0.00  0.00    +0.000 A 
ATOM     25  N   UNL     1      -2.257  13.855  22.077  0.00  0.00    +0.000 NA
ENDBRANCH  19  20
ENDBRANCH   9  19
TORSDOF 5
ENDMDL
