MODEL 1
REMARK VINA RESULT:      -8.3      0.000      0.000
REMARK  Name = 
REMARK  4 active torsions:
REMARK  status: ('A' for Active; 'I' for Inactive)
REMARK    1  A    between atoms: C_1  and  N_2
REMARK    2  A    between atoms: N_5  and  C_6
REMARK    3  A    between atoms: C_12  and  S_13
REMARK    4  A    between atoms: S_13  and  C_16
REMARK                            x       y       z     vdW  Elec       q    Type
REMARK                         _______ _______ _______ _____ _____    ______ ____
ROOT
ATOM      1  C   UNL     1       3.425   5.602  18.749  0.00  0.00    +0.000 A 
ATOM      2  C   UNL     1       3.129   4.610  19.716  0.00  0.00    +0.000 A 
ATOM      3  C   UNL     1       2.270   4.848  20.778  0.00  0.00    +0.000 A 
ATOM      4  C   UNL     1       1.667   6.089  20.893  0.00  0.00    +0.000 A 
ATOM      5  C   UNL     1       1.914   7.091  19.946  0.00  0.00    +0.000 A 
ATOM      6  C   UNL     1       1.270   8.324  20.077  0.00  0.00    +0.000 A 
ATOM      7  C   UNL     1       1.491   9.317  19.135  0.00  0.00    +0.000 A 
ATOM      8  C   UNL     1       2.378   9.069  18.113  0.00  0.00    +0.000 A 
ATOM      9  N   UNL     1       3.011   7.880  17.957  0.00  0.00    +0.000 NA
ATOM     10  C   UNL     1       2.801   6.876  18.853  0.00  0.00    +0.000 A 
ENDROOT
BRANCH   1  15
ATOM     11  C   UNL     1       7.064   4.857  14.548  0.00  0.00    +0.000 C 
ATOM     12  N   UNL     1       6.437   4.597  15.842  0.00  0.00    +0.000 NA
ATOM     13  C   UNL     1       5.011   4.219  15.662  0.00  0.00    +0.000 C 
ATOM     14  C   UNL     1       4.258   4.016  17.005  0.00  0.00    +0.000 C 
ATOM     15  N   UNL     1       4.387   5.248  17.797  0.00  0.00    +0.000 N 
ATOM     16  C   UNL     1       5.792   5.606  18.063  0.00  0.00    +0.000 C 
ATOM     17  C   UNL     1       6.523   5.795  16.712  0.00  0.00    +0.000 C 
ENDBRANCH   1  15
BRANCH   7  18
ATOM     18  S   UNL     1       0.718  10.888  19.277  0.00  0.00    +0.000 S 
ATOM     19  O   UNL     1       0.541  11.153  20.694  0.00  0.00    +0.000 OA
ATOM     20  O   UNL     1       1.464  11.820  18.452  0.00  0.00    +0.000 OA
BRANCH  18  21
ATOM     21  C   UNL     1      -0.905  10.740  18.567  0.00  0.00    +0.000 A 
ATOM     22  C   UNL     1      -1.113   9.878  17.482  0.00  0.00    +0.000 A 
ATOM     23  C   UNL     1      -2.375   9.808  16.888  0.00  0.00    +0.000 A 
ATOM     24  C   UNL     1      -3.416  10.599  17.370  0.00  0.00    +0.000 A 
ATOM     25  C   UNL     1      -3.190  11.459  18.441  0.00  0.00    +0.000 A 
ATOM     26  F   UNL     1      -4.192  12.225  18.892  0.00  0.00    +0.000 F 
ATOM     27  C   UNL     1      -1.942  11.545  19.046  0.00  0.00    +0.000 A 
ENDBRANCH  18  21
ENDBRANCH   7  18
TORSDOF 3
ENDMDL
MODEL 2
REMARK VINA RESULT:      -8.2      0.908      1.300
REMARK  Name = 
REMARK  4 active torsions:
REMARK  status: ('A' for Active; 'I' for Inactive)
REMARK    1  A    between atoms: C_1  and  N_2
REMARK    2  A    between atoms: N_5  and  C_6
REMARK    3  A    between atoms: C_12  and  S_13
REMARK    4  A    between atoms: S_13  and  C_16
REMARK                            x       y       z     vdW  Elec       q    Type
REMARK                         _______ _______ _______ _____ _____    ______ ____
ROOT
ATOM      1  C   UNL     1       3.343   5.690  18.784  0.00  0.00    +0.000 A 
ATOM      2  C   UNL     1       3.021   4.702  19.747  0.00  0.00    +0.000 A 
ATOM      3  C   UNL     1       2.153   4.952  20.799  0.00  0.00    +0.000 A 
ATOM      4  C   UNL     1       1.567   6.202  20.908  0.00  0.00    +0.000 A 
ATOM      5  C   UNL     1       1.840   7.200  19.964  0.00  0.00    +0.000 A 
ATOM      6  C   UNL     1       1.213   8.443  20.088  0.00  0.00    +0.000 A 
ATOM      7  C   UNL     1       1.459   9.432  19.148  0.00  0.00    +0.000 A 
ATOM      8  C   UNL     1       2.354   9.172  18.137  0.00  0.00    +0.000 A 
ATOM      9  N   UNL     1       2.972   7.973  17.988  0.00  0.00    +0.000 NA
ATOM     10  C   UNL     1       2.737   6.972  18.881  0.00  0.00    +0.000 A 
ENDROOT
BRANCH   1  15
ATOM     11  C   UNL     1       6.995   4.874  14.608  0.00  0.00    +0.000 C 
ATOM     12  N   UNL     1       6.371   4.643  15.908  0.00  0.00    +0.000 NA
ATOM     13  C   UNL     1       4.951   4.238  15.739  0.00  0.00    +0.000 C 
ATOM     14  C   UNL     1       4.200   4.065  17.088  0.00  0.00    +0.000 C 
ATOM     15  N   UNL     1       4.310   5.322  17.842  0.00  0.00    +0.000 N 
ATOM     16  C   UNL     1       5.710   5.709  18.098  0.00  0.00    +0.000 C 
ATOM     17  C   UNL     1       6.439   5.868  16.742  0.00  0.00    +0.000 C 
ENDBRANCH   1  15
BRANCH   7  18
ATOM     18  S   UNL     1       0.708  11.015  19.283  0.00  0.00    +0.000 S 
ATOM     19  O   UNL     1       0.486  11.267  20.695  0.00  0.00    +0.000 OA
ATOM     20  O   UNL     1       1.498  11.943  18.495  0.00  0.00    +0.000 OA
BRANCH  18  21
ATOM     21  C   UNL     1      -0.892  10.902  18.515  0.00  0.00    +0.000 A 
ATOM     22  C   UNL     1      -1.971  11.616  19.050  0.00  0.00    +0.000 A 
ATOM     23  C   UNL     1      -3.240  11.479  18.482  0.00  0.00    +0.000 A 
ATOM     24  C   UNL     1      -3.427  10.629  17.394  0.00  0.00    +0.000 A 
ATOM     25  C   UNL     1      -2.346   9.917  16.881  0.00  0.00    +0.000 A 
ATOM     26  F   UNL     1      -2.535   9.092  15.843  0.00  0.00    +0.000 F 
ATOM     27  C   UNL     1      -1.076  10.038  17.433  0.00  0.00    +0.000 A 
ENDBRANCH  18  21
ENDBRANCH   7  18
TORSDOF 3
ENDMDL
MODEL 3
REMARK VINA RESULT:      -7.8      4.547      8.301
REMARK  Name = 
REMARK  4 active torsions:
REMARK  status: ('A' for Active; 'I' for Inactive)
REMARK    1  A    between atoms: C_1  and  N_2
REMARK    2  A    between atoms: N_5  and  C_6
REMARK    3  A    between atoms: C_12  and  S_13
REMARK    4  A    between atoms: S_13  and  C_16
REMARK                            x       y       z     vdW  Elec       q    Type
REMARK                         _______ _______ _______ _____ _____    ______ ____
ROOT
ATOM      1  C   UNL     1       2.246   6.893  19.608  0.00  0.00    +0.000 A 
ATOM      2  C   UNL     1       1.706   5.924  20.489  0.00  0.00    +0.000 A 
ATOM      3  C   UNL     1       2.261   4.661  20.626  0.00  0.00    +0.000 A 
ATOM      4  C   UNL     1       3.389   4.337  19.892  0.00  0.00    +0.000 A 
ATOM      5  C   UNL     1       3.968   5.273  19.026  0.00  0.00    +0.000 A 
ATOM      6  C   UNL     1       5.121   4.922  18.318  0.00  0.00    +0.000 A 
ATOM      7  C   UNL     1       5.716   5.848  17.474  0.00  0.00    +0.000 A 
ATOM      8  C   UNL     1       5.122   7.080  17.326  0.00  0.00    +0.000 A 
ATOM      9  N   UNL     1       4.008   7.450  18.005  0.00  0.00    +0.000 NA
ATOM     10  C   UNL     1       3.411   6.573  18.859  0.00  0.00    +0.000 A 
ENDROOT
BRANCH   1  15
ATOM     11  C   UNL     1      -1.323  11.196  19.168  0.00  0.00    +0.000 C 
ATOM     12  N   UNL     1      -0.035  10.537  19.369  0.00  0.00    +0.000 NA
ATOM     13  C   UNL     1       0.352   9.770  18.157  0.00  0.00    +0.000 C 
ATOM     14  C   UNL     1       1.670   8.968  18.336  0.00  0.00    +0.000 C 
ATOM     15  N   UNL     1       1.518   8.084  19.501  0.00  0.00    +0.000 N 
ATOM     16  C   UNL     1       1.214   8.825  20.739  0.00  0.00    +0.000 C 
ATOM     17  C   UNL     1      -0.097   9.621  20.534  0.00  0.00    +0.000 C 
ENDBRANCH   1  15
BRANCH   7  18
ATOM     18  S   UNL     1       7.152   5.438  16.549  0.00  0.00    +0.000 S 
ATOM     19  O   UNL     1       7.853   6.679  16.272  0.00  0.00    +0.000 OA
ATOM     20  O   UNL     1       7.830   4.361  17.247  0.00  0.00    +0.000 OA
BRANCH  18  21
ATOM     21  C   UNL     1       6.601   4.789  14.988  0.00  0.00    +0.000 A 
ATOM     22  C   UNL     1       5.419   4.040  14.925  0.00  0.00    +0.000 A 
ATOM     23  C   UNL     1       5.020   3.480  13.708  0.00  0.00    +0.000 A 
ATOM     24  C   UNL     1       5.802   3.662  12.569  0.00  0.00    +0.000 A 
ATOM     25  C   UNL     1       6.980   4.399  12.651  0.00  0.00    +0.000 A 
ATOM     26  F   UNL     1       7.733   4.561  11.555  0.00  0.00    +0.000 F 
ATOM     27  C   UNL     1       7.395   4.963  13.852  0.00  0.00    +0.000 A 
ENDBRANCH  18  21
ENDBRANCH   7  18
TORSDOF 3
ENDMDL
MODEL 4
REMARK VINA RESULT:      -7.7      1.864      2.462
REMARK  Name = 
REMARK  4 active torsions:
REMARK  status: ('A' for Active; 'I' for Inactive)
REMARK    1  A    between atoms: C_1  and  N_2
REMARK    2  A    between atoms: N_5  and  C_6
REMARK    3  A    between atoms: C_12  and  S_13
REMARK    4  A    between atoms: S_13  and  C_16
REMARK                            x       y       z     vdW  Elec       q    Type
REMARK                         _______ _______ _______ _____ _____    ______ ____
ROOT
ATOM      1  C   UNL     1       3.165   4.247  18.854  0.00  0.00    +0.000 A 
ATOM      2  C   UNL     1       2.700   2.957  19.212  0.00  0.00    +0.000 A 
ATOM      3  C   UNL     1       1.725   2.768  20.180  0.00  0.00    +0.000 A 
ATOM      4  C   UNL     1       1.175   3.872  20.808  0.00  0.00    +0.000 A 
ATOM      5  C   UNL     1       1.590   5.166  20.468  0.00  0.00    +0.000 A 
ATOM      6  C   UNL     1       0.997   6.260  21.103  0.00  0.00    +0.000 A 
ATOM      7  C   UNL     1       1.385   7.546  20.759  0.00  0.00    +0.000 A 
ATOM      8  C   UNL     1       2.382   7.705  19.824  0.00  0.00    +0.000 A 
ATOM      9  N   UNL     1       2.969   6.662  19.187  0.00  0.00    +0.000 NA
ATOM     10  C   UNL     1       2.598   5.387  19.485  0.00  0.00    +0.000 A 
ENDROOT
BRANCH   1  15
ATOM     11  C   UNL     1       7.262   5.142  15.131  0.00  0.00    +0.000 C 
ATOM     12  N   UNL     1       6.469   4.385  16.096  0.00  0.00    +0.000 NA
ATOM     13  C   UNL     1       5.062   4.267  15.634  0.00  0.00    +0.000 C 
ATOM     14  C   UNL     1       4.140   3.551  16.658  0.00  0.00    +0.000 C 
ATOM     15  N   UNL     1       4.222   4.273  17.937  0.00  0.00    +0.000 N 
ATOM     16  C   UNL     1       5.597   4.337  18.464  0.00  0.00    +0.000 C 
ATOM     17  C   UNL     1       6.497   5.046  17.423  0.00  0.00    +0.000 C 
ENDBRANCH   1  15
BRANCH   7  18
ATOM     18  S   UNL     1       0.680   8.947  21.551  0.00  0.00    +0.000 S 
ATOM     19  O   UNL     1      -0.610   8.537  22.080  0.00  0.00    +0.000 OA
ATOM     20  O   UNL     1       1.685   9.501  22.439  0.00  0.00    +0.000 OA
BRANCH  18  21
ATOM     21  C   UNL     1       0.365  10.159  20.289  0.00  0.00    +0.000 A 
ATOM     22  C   UNL     1       0.981  11.415  20.364  0.00  0.00    +0.000 A 
ATOM     23  C   UNL     1       0.686  12.387  19.404  0.00  0.00    +0.000 A 
ATOM     24  C   UNL     1      -0.222  12.106  18.386  0.00  0.00    +0.000 A 
ATOM     25  C   UNL     1      -0.834  10.856  18.333  0.00  0.00    +0.000 A 
ATOM     26  F   UNL     1      -1.715  10.597  17.357  0.00  0.00    +0.000 F 
ATOM     27  C   UNL     1      -0.556   9.877  19.278  0.00  0.00    +0.000 A 
ENDBRANCH  18  21
ENDBRANCH   7  18
TORSDOF 3
ENDMDL
MODEL 5
REMARK VINA RESULT:      -7.7      2.136      2.704
REMARK  Name = 
REMARK  4 active torsions:
REMARK  status: ('A' for Active; 'I' for Inactive)
REMARK    1  A    between atoms: C_1  and  N_2
REMARK    2  A    between atoms: N_5  and  C_6
REMARK    3  A    between atoms: C_12  and  S_13
REMARK    4  A    between atoms: S_13  and  C_16
REMARK                            x       y       z     vdW  Elec       q    Type
REMARK                         _______ _______ _______ _____ _____    ______ ____
ROOT
ATOM      1  C   UNL     1       3.537   5.585  18.709  0.00  0.00    +0.000 A 
ATOM      2  C   UNL     1       3.295   4.616  19.714  0.00  0.00    +0.000 A 
ATOM      3  C   UNL     1       2.430   4.851  20.771  0.00  0.00    +0.000 A 
ATOM      4  C   UNL     1       1.767   6.065  20.844  0.00  0.00    +0.000 A 
ATOM      5  C   UNL     1       1.961   7.042  19.859  0.00  0.00    +0.000 A 
ATOM      6  C   UNL     1       1.257   8.246  19.948  0.00  0.00    +0.000 A 
ATOM      7  C   UNL     1       1.425   9.212  18.968  0.00  0.00    +0.000 A 
ATOM      8  C   UNL     1       2.319   8.970  17.951  0.00  0.00    +0.000 A 
ATOM      9  N   UNL     1       3.009   7.808  17.835  0.00  0.00    +0.000 NA
ATOM     10  C   UNL     1       2.852   6.829  18.769  0.00  0.00    +0.000 A 
ENDROOT
BRANCH   1  15
ATOM     11  C   UNL     1       7.181   4.854  14.509  0.00  0.00    +0.000 C 
ATOM     12  N   UNL     1       6.581   4.620  15.821  0.00  0.00    +0.000 NA
ATOM     13  C   UNL     1       5.180   4.149  15.675  0.00  0.00    +0.000 C 
ATOM     14  C   UNL     1       4.451   3.968  17.035  0.00  0.00    +0.000 C 
ATOM     15  N   UNL     1       4.511   5.243  17.764  0.00  0.00    +0.000 N 
ATOM     16  C   UNL     1       5.894   5.697  17.997  0.00  0.00    +0.000 C 
ATOM     17  C   UNL     1       6.601   5.863  16.630  0.00  0.00    +0.000 C 
ENDBRANCH   1  15
BRANCH   7  18
ATOM     18  S   UNL     1       0.577  10.748  19.057  0.00  0.00    +0.000 S 
ATOM     19  O   UNL     1       1.582  11.796  19.023  0.00  0.00    +0.000 OA
ATOM     20  O   UNL     1      -0.481  10.723  18.063  0.00  0.00    +0.000 OA
BRANCH  18  21
ATOM     21  C   UNL     1      -0.202  10.825  20.653  0.00  0.00    +0.000 A 
ATOM     22  C   UNL     1      -1.205  11.774  20.892  0.00  0.00    +0.000 A 
ATOM     23  C   UNL     1      -1.774  11.872  22.164  0.00  0.00    +0.000 A 
ATOM     24  C   UNL     1      -1.337  11.034  23.188  0.00  0.00    +0.000 A 
ATOM     25  C   UNL     1      -0.331  10.104  22.937  0.00  0.00    +0.000 A 
ATOM     26  F   UNL     1       0.093   9.310  23.929  0.00  0.00    +0.000 F 
ATOM     27  C   UNL     1       0.248   9.992  21.680  0.00  0.00    +0.000 A 
ENDBRANCH  18  21
ENDBRANCH   7  18
TORSDOF 3
ENDMDL
MODEL 6
REMARK VINA RESULT:      -7.7      4.800      8.319
REMARK  Name = 
REMARK  4 active torsions:
REMARK  status: ('A' for Active; 'I' for Inactive)
REMARK    1  A    between atoms: C_1  and  N_2
REMARK    2  A    between atoms: N_5  and  C_6
REMARK    3  A    between atoms: C_12  and  S_13
REMARK    4  A    between atoms: S_13  and  C_16
REMARK                            x       y       z     vdW  Elec       q    Type
REMARK                         _______ _______ _______ _____ _____    ______ ____
ROOT
ATOM      1  C   UNL     1       2.438   6.812  19.644  0.00  0.00    +0.000 A 
ATOM      2  C   UNL     1       1.845   5.809  20.449  0.00  0.00    +0.000 A 
ATOM      3  C   UNL     1       2.319   4.506  20.472  0.00  0.00    +0.000 A 
ATOM      4  C   UNL     1       3.417   4.173  19.697  0.00  0.00    +0.000 A 
ATOM      5  C   UNL     1       4.048   5.140  18.904  0.00  0.00    +0.000 A 
ATOM      6  C   UNL     1       5.169   4.778  18.153  0.00  0.00    +0.000 A 
ATOM      7  C   UNL     1       5.814   5.732  17.380  0.00  0.00    +0.000 A 
ATOM      8  C   UNL     1       5.301   7.007  17.344  0.00  0.00    +0.000 A 
ATOM      9  N   UNL     1       4.219   7.388  18.068  0.00  0.00    +0.000 NA
ATOM     10  C   UNL     1       3.574   6.483  18.854  0.00  0.00    +0.000 A 
ENDROOT
BRANCH   1  15
ATOM     11  C   UNL     1       0.569  12.099  19.659  0.00  0.00    +0.000 C 
ATOM     12  N   UNL     1       0.477  10.644  19.563  0.00  0.00    +0.000 NA
ATOM     13  C   UNL     1       0.916  10.011  20.834  0.00  0.00    +0.000 C 
ATOM     14  C   UNL     1       0.931   8.459  20.770  0.00  0.00    +0.000 C 
ATOM     15  N   UNL     1       1.788   8.051  19.647  0.00  0.00    +0.000 N 
ATOM     16  C   UNL     1       1.330   8.598  18.357  0.00  0.00    +0.000 C 
ATOM     17  C   UNL     1       1.316  10.143  18.447  0.00  0.00    +0.000 C 
ENDBRANCH   1  15
BRANCH   7  18
ATOM     18  S   UNL     1       7.213   5.310  16.404  0.00  0.00    +0.000 S 
ATOM     19  O   UNL     1       7.934   6.542  16.132  0.00  0.00    +0.000 OA
ATOM     20  O   UNL     1       7.887   4.203  17.058  0.00  0.00    +0.000 OA
BRANCH  18  21
ATOM     21  C   UNL     1       6.602   4.709  14.846  0.00  0.00    +0.000 A 
ATOM     22  C   UNL     1       5.358   4.067  14.790  0.00  0.00    +0.000 A 
ATOM     23  C   UNL     1       4.907   3.541  13.576  0.00  0.00    +0.000 A 
ATOM     24  C   UNL     1       5.697   3.651  12.434  0.00  0.00    +0.000 A 
ATOM     25  C   UNL     1       6.937   4.281  12.510  0.00  0.00    +0.000 A 
ATOM     26  F   UNL     1       7.697   4.373  11.411  0.00  0.00    +0.000 F 
ATOM     27  C   UNL     1       7.404   4.809  13.707  0.00  0.00    +0.000 A 
ENDBRANCH  18  21
ENDBRANCH   7  18
TORSDOF 3
ENDMDL
MODEL 7
REMARK VINA RESULT:      -7.6      1.888      2.524
REMARK  Name = 
REMARK  4 active torsions:
REMARK  status: ('A' for Active; 'I' for Inactive)
REMARK    1  A    between atoms: C_1  and  N_2
REMARK    2  A    between atoms: N_5  and  C_6
REMARK    3  A    between atoms: C_12  and  S_13
REMARK    4  A    between atoms: S_13  and  C_16
REMARK                            x       y       z     vdW  Elec       q    Type
REMARK                         _______ _______ _______ _____ _____    ______ ____
ROOT
ATOM      1  C   UNL     1       3.818   4.697  18.685  0.00  0.00    +0.000 A 
ATOM      2  C   UNL     1       3.686   3.347  19.093  0.00  0.00    +0.000 A 
ATOM      3  C   UNL     1       2.846   2.968  20.128  0.00  0.00    +0.000 A 
ATOM      4  C   UNL     1       2.096   3.935  20.778  0.00  0.00    +0.000 A 
ATOM      5  C   UNL     1       2.180   5.279  20.391  0.00  0.00    +0.000 A 
ATOM      6  C   UNL     1       1.391   6.226  21.050  0.00  0.00    +0.000 A 
ATOM      7  C   UNL     1       1.449   7.556  20.661  0.00  0.00    +0.000 A 
ATOM      8  C   UNL     1       2.321   7.912  19.658  0.00  0.00    +0.000 A 
ATOM      9  N   UNL     1       3.091   7.013  18.996  0.00  0.00    +0.000 NA
ATOM     10  C   UNL     1       3.044   5.696  19.338  0.00  0.00    +0.000 A 
ENDROOT
BRANCH   1  15
ATOM     11  C   UNL     1       7.313   5.070  14.316  0.00  0.00    +0.000 C 
ATOM     12  N   UNL     1       6.702   5.466  15.582  0.00  0.00    +0.000 NA
ATOM     13  C   UNL     1       6.915   4.417  16.612  0.00  0.00    +0.000 C 
ATOM     14  C   UNL     1       6.211   4.732  17.961  0.00  0.00    +0.000 C 
ATOM     15  N   UNL     1       4.779   4.938  17.697  0.00  0.00    +0.000 N 
ATOM     16  C   UNL     1       4.531   6.030  16.738  0.00  0.00    +0.000 C 
ATOM     17  C   UNL     1       5.248   5.697  15.407  0.00  0.00    +0.000 C 
ENDBRANCH   1  15
BRANCH   7  18
ATOM     18  S   UNL     1       0.492   8.781  21.480  0.00  0.00    +0.000 S 
ATOM     19  O   UNL     1      -0.808   8.195  21.757  0.00  0.00    +0.000 OA
ATOM     20  O   UNL     1       1.295   9.312  22.566  0.00  0.00    +0.000 OA
BRANCH  18  21
ATOM     21  C   UNL     1       0.233  10.104  20.321  0.00  0.00    +0.000 A 
ATOM     22  C   UNL     1       0.926  11.311  20.479  0.00  0.00    +0.000 A 
ATOM     23  C   UNL     1       0.676  12.371  19.603  0.00  0.00    +0.000 A 
ATOM     24  C   UNL     1      -0.264  12.224  18.585  0.00  0.00    +0.000 A 
ATOM     25  C   UNL     1      -0.953  11.022  18.449  0.00  0.00    +0.000 A 
ATOM     26  F   UNL     1      -1.864  10.892  17.476  0.00  0.00    +0.000 F 
ATOM     27  C   UNL     1      -0.720   9.957  19.311  0.00  0.00    +0.000 A 
ENDBRANCH  18  21
ENDBRANCH   7  18
TORSDOF 3
ENDMDL
MODEL 8
REMARK VINA RESULT:      -7.6      1.100      1.664
REMARK  Name = 
REMARK  4 active torsions:
REMARK  status: ('A' for Active; 'I' for Inactive)
REMARK    1  A    between atoms: C_1  and  N_2
REMARK    2  A    between atoms: N_5  and  C_6
REMARK    3  A    between atoms: C_12  and  S_13
REMARK    4  A    between atoms: S_13  and  C_16
REMARK                            x       y       z     vdW  Elec       q    Type
REMARK                         _______ _______ _______ _____ _____    ______ ____
ROOT
ATOM      1  C   UNL     1       3.089   6.101  18.716  0.00  0.00    +0.000 A 
ATOM      2  C   UNL     1       2.909   5.129  19.731  0.00  0.00    +0.000 A 
ATOM      3  C   UNL     1       2.146   5.377  20.862  0.00  0.00    +0.000 A 
ATOM      4  C   UNL     1       1.526   6.607  21.002  0.00  0.00    +0.000 A 
ATOM      5  C   UNL     1       1.660   7.588  20.011  0.00  0.00    +0.000 A 
ATOM      6  C   UNL     1       1.000   8.810  20.171  0.00  0.00    +0.000 A 
ATOM      7  C   UNL     1       1.108   9.781  19.187  0.00  0.00    +0.000 A 
ATOM      8  C   UNL     1       1.902   9.525  18.093  0.00  0.00    +0.000 A 
ATOM      9  N   UNL     1       2.547   8.346  17.909  0.00  0.00    +0.000 NA
ATOM     10  C   UNL     1       2.446   7.363  18.845  0.00  0.00    +0.000 A 
ENDROOT
BRANCH   1  15
ATOM     11  C   UNL     1       7.090   4.399  15.175  0.00  0.00    +0.000 C 
ATOM     12  N   UNL     1       5.779   4.903  15.575  0.00  0.00    +0.000 NA
ATOM     13  C   UNL     1       5.914   6.208  16.271  0.00  0.00    +0.000 C 
ATOM     14  C   UNL     1       4.563   6.758  16.806  0.00  0.00    +0.000 C 
ATOM     15  N   UNL     1       3.967   5.743  17.686  0.00  0.00    +0.000 N 
ATOM     16  C   UNL     1       3.745   4.458  17.000  0.00  0.00    +0.000 C 
ATOM     17  C   UNL     1       5.101   3.934  16.470  0.00  0.00    +0.000 C 
ENDBRANCH   1  15
BRANCH   7  18
ATOM     18  S   UNL     1       0.313  11.338  19.362  0.00  0.00    +0.000 S 
ATOM     19  O   UNL     1       0.135  11.572  20.784  0.00  0.00    +0.000 OA
ATOM     20  O   UNL     1       1.044  12.296  18.553  0.00  0.00    +0.000 OA
BRANCH  18  21
ATOM     21  C   UNL     1      -1.310  11.180  18.652  0.00  0.00    +0.000 A 
ATOM     22  C   UNL     1      -2.376  11.916  19.185  0.00  0.00    +0.000 A 
ATOM     23  C   UNL     1      -3.661  11.745  18.665  0.00  0.00    +0.000 A 
ATOM     24  C   UNL     1      -3.877  10.841  17.627  0.00  0.00    +0.000 A 
ATOM     25  C   UNL     1      -2.809  10.108  17.116  0.00  0.00    +0.000 A 
ATOM     26  F   UNL     1      -3.025   9.232  16.126  0.00  0.00    +0.000 F 
ATOM     27  C   UNL     1      -1.523  10.263  17.620  0.00  0.00    +0.000 A 
ENDBRANCH  18  21
ENDBRANCH   7  18
TORSDOF 3
ENDMDL
MODEL 9
REMARK VINA RESULT:      -7.5      2.042      2.522
REMARK  Name = 
REMARK  4 active torsions:
REMARK  status: ('A' for Active; 'I' for Inactive)
REMARK    1  A    between atoms: C_1  and  N_2
REMARK    2  A    between atoms: N_5  and  C_6
REMARK    3  A    between atoms: C_12  and  S_13
REMARK    4  A    between atoms: S_13  and  C_16
REMARK                            x       y       z     vdW  Elec       q    Type
REMARK                         _______ _______ _______ _____ _____    ______ ____
ROOT
ATOM      1  C   UNL     1       3.164   4.262  18.850  0.00  0.00    +0.000 A 
ATOM      2  C   UNL     1       2.703   2.972  19.211  0.00  0.00    +0.000 A 
ATOM      3  C   UNL     1       1.730   2.781  20.180  0.00  0.00    +0.000 A 
ATOM      4  C   UNL     1       1.177   3.884  20.808  0.00  0.00    +0.000 A 
ATOM      5  C   UNL     1       1.588   5.179  20.464  0.00  0.00    +0.000 A 
ATOM      6  C   UNL     1       0.992   6.272  21.099  0.00  0.00    +0.000 A 
ATOM      7  C   UNL     1       1.375   7.559  20.752  0.00  0.00    +0.000 A 
ATOM      8  C   UNL     1       2.371   7.719  19.816  0.00  0.00    +0.000 A 
ATOM      9  N   UNL     1       2.961   6.677  19.180  0.00  0.00    +0.000 NA
ATOM     10  C   UNL     1       2.594   5.401  19.480  0.00  0.00    +0.000 A 
ENDROOT
BRANCH   1  15
ATOM     11  C   UNL     1       7.253   5.165  15.120  0.00  0.00    +0.000 C 
ATOM     12  N   UNL     1       6.464   4.407  16.088  0.00  0.00    +0.000 NA
ATOM     13  C   UNL     1       5.057   4.282  15.628  0.00  0.00    +0.000 C 
ATOM     14  C   UNL     1       4.139   3.565  16.655  0.00  0.00    +0.000 C 
ATOM     15  N   UNL     1       4.220   4.290  17.932  0.00  0.00    +0.000 N 
ATOM     16  C   UNL     1       5.595   4.360  18.457  0.00  0.00    +0.000 C 
ATOM     17  C   UNL     1       6.492   5.070  17.414  0.00  0.00    +0.000 C 
ENDBRANCH   1  15
BRANCH   7  18
ATOM     18  S   UNL     1       0.666   8.958  21.543  0.00  0.00    +0.000 S 
ATOM     19  O   UNL     1      -0.594   8.531  22.124  0.00  0.00    +0.000 OA
ATOM     20  O   UNL     1       1.690   9.551  22.385  0.00  0.00    +0.000 OA
BRANCH  18  21
ATOM     21  C   UNL     1       0.282  10.139  20.271  0.00  0.00    +0.000 A 
ATOM     22  C   UNL     1      -0.759   9.876  19.371  0.00  0.00    +0.000 A 
ATOM     23  C   UNL     1      -1.021  10.777  18.335  0.00  0.00    +0.000 A 
ATOM     24  C   UNL     1      -0.242  11.924  18.198  0.00  0.00    +0.000 A 
ATOM     25  C   UNL     1       0.796  12.165  19.094  0.00  0.00    +0.000 A 
ATOM     26  F   UNL     1       1.548  13.264  18.949  0.00  0.00    +0.000 F 
ATOM     27  C   UNL     1       1.073  11.281  20.130  0.00  0.00    +0.000 A 
ENDBRANCH  18  21
ENDBRANCH   7  18
TORSDOF 3
ENDMDL
