MODEL 1
REMARK VINA RESULT:      -7.5      0.000      0.000
REMARK  Name = 
REMARK  11 active torsions:
REMARK  status: ('A' for Active; 'I' for Inactive)
REMARK    1  A    between atoms: C_1  and  C_2
REMARK    2  A    between atoms: C_5  and  N_6
REMARK    3  A    between atoms: N_6  and  O_7
REMARK    4  A    between atoms: N_10  and  C_11
REMARK    5  A    between atoms: C_11  and  C_12
REMARK    6  A    between atoms: C_12  and  C_13
REMARK    7  A    between atoms: C_13  and  C_14
REMARK    8  A    between atoms: C_14  and  N_15
REMARK    9  A    between atoms: N_18  and  O_19
REMARK   10  A    between atoms: N_18  and  C_20
REMARK   11  A    between atoms: C_23  and  C_24
REMARK                            x       y       z     vdW  Elec       q    Type
REMARK                         _______ _______ _______ _____ _____    ______ ____
ROOT
ATOM      1  C   UNL     1       2.172   2.014  18.955  0.00  0.00    +0.000 C 
ENDROOT
BRANCH   1   2
ATOM      2  C   UNL     1       3.579   1.474  18.684  0.00  0.00    +0.000 C 
BRANCH   2   6
ATOM      3  N   UNL     1       5.698   4.210  17.437  0.00  0.00    +0.000 N 
ATOM      4  C   UNL     1       4.841   3.558  18.325  0.00  0.00    +0.000 C 
ATOM      5  O   UNL     1       4.498   3.964  19.433  0.00  0.00    +0.000 OA
ATOM      6  N   UNL     1       4.344   2.363  17.832  0.00  0.00    +0.000 N 
ATOM      7  H   UNL     1       4.838   2.000  17.026  0.00  0.00    +0.000 HD
BRANCH   3  12
ATOM      8  C   UNL     1       8.577   9.143  18.226  0.00  0.00    +0.000 C 
ATOM      9  C   UNL     1       7.821   7.865  18.022  0.00  0.00    +0.000 A 
ATOM     10  C   UNL     1       6.757   7.799  17.125  0.00  0.00    +0.000 A 
ATOM     11  C   UNL     1       6.054   6.603  16.938  0.00  0.00    +0.000 A 
ATOM     12  C   UNL     1       6.387   5.438  17.639  0.00  0.00    +0.000 A 
ATOM     13  C   UNL     1       7.455   5.521  18.550  0.00  0.00    +0.000 A 
ATOM     14  C   UNL     1       8.170   6.715  18.732  0.00  0.00    +0.000 A 
ENDBRANCH   3  12
BRANCH   3  15
ATOM     15  O   UNL     1       5.973   3.532  16.218  0.00  0.00    +0.000 OA
ATOM     16  H   UNL     1       6.795   3.066  16.459  0.00  0.00    +0.000 HD
ENDBRANCH   3  15
ENDBRANCH   2   6
ENDBRANCH   1   2
BRANCH   1  17
ATOM     17  C   UNL     1       1.880   2.223  20.445  0.00  0.00    +0.000 C 
BRANCH  17  18
ATOM     18  C   UNL     1       1.297   3.608  20.747  0.00  0.00    +0.000 C 
BRANCH  18  19
ATOM     19  N   UNL     1       1.802   4.627  19.845  0.00  0.00    +0.000 N 
ATOM     20  C   UNL     1       1.575   5.964  20.126  0.00  0.00    +0.000 C 
ATOM     21  O   UNL     1       0.985   6.287  21.155  0.00  0.00    +0.000 OA
ATOM     22  N   UNL     1       2.087   6.826  19.161  0.00  0.00    +0.000 N 
ATOM     23  H   UNL     1       1.918   4.416  18.862  0.00  0.00    +0.000 HD
BRANCH  22  24
ATOM     24  C   UNL     1       1.885   8.232  19.092  0.00  0.00    +0.000 A 
ATOM     25  C   UNL     1       1.237   8.928  20.124  0.00  0.00    +0.000 A 
ATOM     26  C   UNL     1       0.949  10.288  20.016  0.00  0.00    +0.000 A 
ATOM     27  C   UNL     1       1.312  11.002  18.875  0.00  0.00    +0.000 A 
ATOM     28  C   UNL     1       0.926  12.443  18.733  0.00  0.00    +0.000 C 
ATOM     29  C   UNL     1       2.010  10.337  17.861  0.00  0.00    +0.000 A 
ATOM     30  C   UNL     1       2.303   8.968  17.972  0.00  0.00    +0.000 A 
ENDBRANCH  22  24
BRANCH  22  31
ATOM     31  O   UNL     1       2.719   6.223  18.042  0.00  0.00    +0.000 OA
ATOM     32  H   UNL     1       3.222   5.522  18.500  0.00  0.00    +0.000 HD
ENDBRANCH  22  31
ENDBRANCH  18  19
ENDBRANCH  17  18
ENDBRANCH   1  17
TORSDOF 9
ENDMDL
MODEL 2
REMARK VINA RESULT:      -7.1      0.936      1.626
REMARK  Name = 
REMARK  11 active torsions:
REMARK  status: ('A' for Active; 'I' for Inactive)
REMARK    1  A    between atoms: C_1  and  C_2
REMARK    2  A    between atoms: C_5  and  N_6
REMARK    3  A    between atoms: N_6  and  O_7
REMARK    4  A    between atoms: N_10  and  C_11
REMARK    5  A    between atoms: C_11  and  C_12
REMARK    6  A    between atoms: C_12  and  C_13
REMARK    7  A    between atoms: C_13  and  C_14
REMARK    8  A    between atoms: C_14  and  N_15
REMARK    9  A    between atoms: N_18  and  O_19
REMARK   10  A    between atoms: N_18  and  C_20
REMARK   11  A    between atoms: C_23  and  C_24
REMARK                            x       y       z     vdW  Elec       q    Type
REMARK                         _______ _______ _______ _____ _____    ______ ____
ROOT
ATOM      1  C   UNL     1       2.309   2.267  18.427  0.00  0.00    +0.000 C 
ENDROOT
BRANCH   1   2
ATOM      2  C   UNL     1       3.680   1.684  18.072  0.00  0.00    +0.000 C 
BRANCH   2   6
ATOM      3  N   UNL     1       5.964   4.438  17.216  0.00  0.00    +0.000 N 
ATOM      4  C   UNL     1       5.065   3.720  18.006  0.00  0.00    +0.000 C 
ATOM      5  O   UNL     1       4.740   3.987  19.160  0.00  0.00    +0.000 OA
ATOM      6  N   UNL     1       4.502   2.637  17.351  0.00  0.00    +0.000 N 
ATOM      7  H   UNL     1       4.978   2.362  16.501  0.00  0.00    +0.000 HD
BRANCH   3  12
ATOM      8  C   UNL     1       8.952   9.131  18.733  0.00  0.00    +0.000 C 
ATOM      9  C   UNL     1       8.183   7.906  18.338  0.00  0.00    +0.000 A 
ATOM     10  C   UNL     1       8.325   6.714  19.046  0.00  0.00    +0.000 A 
ATOM     11  C   UNL     1       7.604   5.573  18.674  0.00  0.00    +0.000 A 
ATOM     12  C   UNL     1       6.722   5.583  17.586  0.00  0.00    +0.000 A 
ATOM     13  C   UNL     1       6.597   6.789  16.874  0.00  0.00    +0.000 A 
ATOM     14  C   UNL     1       7.309   7.938  17.251  0.00  0.00    +0.000 A 
ENDBRANCH   3  12
BRANCH   3  15
ATOM     15  O   UNL     1       6.206   3.922  15.913  0.00  0.00    +0.000 OA
ATOM     16  H   UNL     1       6.847   4.579  15.582  0.00  0.00    +0.000 HD
ENDBRANCH   3  15
ENDBRANCH   2   6
ENDBRANCH   1   2
BRANCH   1  17
ATOM     17  C   UNL     1       1.674   1.613  19.660  0.00  0.00    +0.000 C 
BRANCH  17  18
ATOM     18  C   UNL     1       1.785   2.482  20.916  0.00  0.00    +0.000 C 
BRANCH  18  19
ATOM     19  N   UNL     1       2.430   3.755  20.650  0.00  0.00    +0.000 N 
ATOM     20  C   UNL     1       1.658   4.889  20.459  0.00  0.00    +0.000 C 
ATOM     21  O   UNL     1       0.434   4.824  20.556  0.00  0.00    +0.000 OA
ATOM     22  N   UNL     1       2.407   6.028  20.182  0.00  0.00    +0.000 N 
ATOM     23  H   UNL     1       3.331   3.776  20.189  0.00  0.00    +0.000 HD
BRANCH  22  24
ATOM     24  C   UNL     1       1.899   7.299  19.796  0.00  0.00    +0.000 A 
ATOM     25  C   UNL     1       2.112   7.810  18.506  0.00  0.00    +0.000 A 
ATOM     26  C   UNL     1       1.701   9.095  18.155  0.00  0.00    +0.000 A 
ATOM     27  C   UNL     1       1.052   9.910  19.081  0.00  0.00    +0.000 A 
ATOM     28  C   UNL     1       0.689  11.319  18.721  0.00  0.00    +0.000 C 
ATOM     29  C   UNL     1       0.782   9.398  20.354  0.00  0.00    +0.000 A 
ATOM     30  C   UNL     1       1.192   8.101  20.706  0.00  0.00    +0.000 A 
ENDBRANCH  22  24
BRANCH  22  31
ATOM     31  O   UNL     1       3.814   5.859  20.103  0.00  0.00    +0.000 OA
ATOM     32  H   UNL     1       3.868   4.893  20.244  0.00  0.00    +0.000 HD
ENDBRANCH  22  31
ENDBRANCH  18  19
ENDBRANCH  17  18
ENDBRANCH   1  17
TORSDOF 9
ENDMDL
MODEL 3
REMARK VINA RESULT:      -7.1      4.035      6.160
REMARK  Name = 
REMARK  11 active torsions:
REMARK  status: ('A' for Active; 'I' for Inactive)
REMARK    1  A    between atoms: C_1  and  C_2
REMARK    2  A    between atoms: C_5  and  N_6
REMARK    3  A    between atoms: N_6  and  O_7
REMARK    4  A    between atoms: N_10  and  C_11
REMARK    5  A    between atoms: C_11  and  C_12
REMARK    6  A    between atoms: C_12  and  C_13
REMARK    7  A    between atoms: C_13  and  C_14
REMARK    8  A    between atoms: C_14  and  N_15
REMARK    9  A    between atoms: N_18  and  O_19
REMARK   10  A    between atoms: N_18  and  C_20
REMARK   11  A    between atoms: C_23  and  C_24
REMARK                            x       y       z     vdW  Elec       q    Type
REMARK                         _______ _______ _______ _____ _____    ______ ____
ROOT
ATOM      1  C   UNL     1      -0.043   8.828  22.436  0.00  0.00    +0.000 C 
ENDROOT
BRANCH   1   2
ATOM      2  C   UNL     1       1.153   8.883  21.480  0.00  0.00    +0.000 C 
BRANCH   2   6
ATOM      3  N   UNL     1       2.762   6.053  19.769  0.00  0.00    +0.000 N 
ATOM      4  C   UNL     1       2.217   7.331  19.891  0.00  0.00    +0.000 C 
ATOM      5  O   UNL     1       2.209   8.202  19.024  0.00  0.00    +0.000 OA
ATOM      6  N   UNL     1       1.618   7.558  21.119  0.00  0.00    +0.000 N 
ATOM      7  H   UNL     1       1.858   6.887  21.837  0.00  0.00    +0.000 HD
BRANCH   3  12
ATOM      8  C   UNL     1       5.666   3.828  15.311  0.00  0.00    +0.000 C 
ATOM      9  C   UNL     1       4.904   4.407  16.465  0.00  0.00    +0.000 A 
ATOM     10  C   UNL     1       3.694   3.850  16.874  0.00  0.00    +0.000 A 
ATOM     11  C   UNL     1       2.986   4.393  17.953  0.00  0.00    +0.000 A 
ATOM     12  C   UNL     1       3.459   5.508  18.655  0.00  0.00    +0.000 A 
ATOM     13  C   UNL     1       4.675   6.068  18.225  0.00  0.00    +0.000 A 
ATOM     14  C   UNL     1       5.394   5.519  17.152  0.00  0.00    +0.000 A 
ENDBRANCH   3  12
BRANCH   3  15
ATOM     15  O   UNL     1       2.678   5.221  20.920  0.00  0.00    +0.000 OA
ATOM     16  H   UNL     1       3.608   5.235  21.214  0.00  0.00    +0.000 HD
ENDBRANCH   3  15
ENDBRANCH   2   6
ENDBRANCH   1   2
BRANCH   1  17
ATOM     17  C   UNL     1      -0.606  10.211  22.781  0.00  0.00    +0.000 C 
BRANCH  17  18
ATOM     18  C   UNL     1      -0.152  11.298  21.802  0.00  0.00    +0.000 C 
BRANCH  18  19
ATOM     19  N   UNL     1      -1.216  11.712  20.906  0.00  0.00    +0.000 N 
ATOM     20  C   UNL     1      -1.474  10.978  19.760  0.00  0.00    +0.000 C 
ATOM     21  O   UNL     1      -0.830   9.957  19.525  0.00  0.00    +0.000 OA
ATOM     22  N   UNL     1      -2.498  11.509  18.982  0.00  0.00    +0.000 N 
ATOM     23  H   UNL     1      -1.472  12.690  20.846  0.00  0.00    +0.000 HD
BRANCH  22  24
ATOM     24  C   UNL     1      -2.887  11.069  17.686  0.00  0.00    +0.000 A 
ATOM     25  C   UNL     1      -2.123  10.135  16.971  0.00  0.00    +0.000 A 
ATOM     26  C   UNL     1      -2.448   9.778  15.663  0.00  0.00    +0.000 A 
ATOM     27  C   UNL     1      -3.558  10.333  15.030  0.00  0.00    +0.000 A 
ATOM     28  C   UNL     1      -3.851  10.006  13.597  0.00  0.00    +0.000 C 
ATOM     29  C   UNL     1      -4.364  11.223  15.748  0.00  0.00    +0.000 A 
ATOM     30  C   UNL     1      -4.039  11.581  17.066  0.00  0.00    +0.000 A 
ENDBRANCH  22  24
BRANCH  22  31
ATOM     31  O   UNL     1      -3.089  12.712  19.445  0.00  0.00    +0.000 OA
ATOM     32  H   UNL     1      -3.040  12.555  20.409  0.00  0.00    +0.000 HD
ENDBRANCH  22  31
ENDBRANCH  18  19
ENDBRANCH  17  18
ENDBRANCH   1  17
TORSDOF 9
ENDMDL
MODEL 4
REMARK VINA RESULT:      -6.9      2.196      7.332
REMARK  Name = 
REMARK  11 active torsions:
REMARK  status: ('A' for Active; 'I' for Inactive)
REMARK    1  A    between atoms: C_1  and  C_2
REMARK    2  A    between atoms: C_5  and  N_6
REMARK    3  A    between atoms: N_6  and  O_7
REMARK    4  A    between atoms: N_10  and  C_11
REMARK    5  A    between atoms: C_11  and  C_12
REMARK    6  A    between atoms: C_12  and  C_13
REMARK    7  A    between atoms: C_13  and  C_14
REMARK    8  A    between atoms: C_14  and  N_15
REMARK    9  A    between atoms: N_18  and  O_19
REMARK   10  A    between atoms: N_18  and  C_20
REMARK   11  A    between atoms: C_23  and  C_24
REMARK                            x       y       z     vdW  Elec       q    Type
REMARK                         _______ _______ _______ _____ _____    ______ ____
ROOT
ATOM      1  C   UNL     1       1.310   4.565  20.647  0.00  0.00    +0.000 C 
ENDROOT
BRANCH   1   2
ATOM      2  C   UNL     1       2.177   5.775  20.288  0.00  0.00    +0.000 C 
BRANCH   2   6
ATOM      3  N   UNL     1       0.890   9.191  20.740  0.00  0.00    +0.000 N 
ATOM      4  C   UNL     1       1.570   8.155  20.100  0.00  0.00    +0.000 C 
ATOM      5  O   UNL     1       2.089   8.206  18.987  0.00  0.00    +0.000 OA
ATOM      6  N   UNL     1       1.656   7.001  20.861  0.00  0.00    +0.000 N 
ATOM      7  H   UNL     1       1.027   6.969  21.653  0.00  0.00    +0.000 HD
BRANCH   3  12
ATOM      8  C   UNL     1      -0.338  14.446  18.706  0.00  0.00    +0.000 C 
ATOM      9  C   UNL     1      -0.009  13.082  19.234  0.00  0.00    +0.000 A 
ATOM     10  C   UNL     1       0.879  12.920  20.296  0.00  0.00    +0.000 A 
ATOM     11  C   UNL     1       1.181  11.644  20.786  0.00  0.00    +0.000 A 
ATOM     12  C   UNL     1       0.612  10.491  20.233  0.00  0.00    +0.000 A 
ATOM     13  C   UNL     1      -0.274  10.667  19.155  0.00  0.00    +0.000 A 
ATOM     14  C   UNL     1      -0.589  11.945  18.669  0.00  0.00    +0.000 A 
ENDBRANCH   3  12
BRANCH   3  15
ATOM     15  O   UNL     1       0.348   8.891  22.020  0.00  0.00    +0.000 OA
ATOM     16  H   UNL     1       1.080   9.183  22.594  0.00  0.00    +0.000 HD
ENDBRANCH   3  15
ENDBRANCH   2   6
ENDBRANCH   1   2
BRANCH   1  17
ATOM     17  C   UNL     1       0.999   3.666  19.444  0.00  0.00    +0.000 C 
BRANCH  17  18
ATOM     18  C   UNL     1       1.989   2.506  19.299  0.00  0.00    +0.000 C 
BRANCH  18  19
ATOM     19  N   UNL     1       3.345   2.966  19.056  0.00  0.00    +0.000 N 
ATOM     20  C   UNL     1       3.719   3.354  17.781  0.00  0.00    +0.000 C 
ATOM     21  O   UNL     1       2.895   3.348  16.867  0.00  0.00    +0.000 OA
ATOM     22  N   UNL     1       5.053   3.740  17.689  0.00  0.00    +0.000 N 
ATOM     23  H   UNL     1       4.103   2.623  19.632  0.00  0.00    +0.000 HD
BRANCH  22  24
ATOM     24  C   UNL     1       5.763   4.044  16.495  0.00  0.00    +0.000 A 
ATOM     25  C   UNL     1       6.930   4.823  16.518  0.00  0.00    +0.000 A 
ATOM     26  C   UNL     1       7.573   5.206  15.341  0.00  0.00    +0.000 A 
ATOM     27  C   UNL     1       7.076   4.811  14.100  0.00  0.00    +0.000 A 
ATOM     28  C   UNL     1       7.725   5.295  12.839  0.00  0.00    +0.000 C 
ATOM     29  C   UNL     1       5.946   3.987  14.061  0.00  0.00    +0.000 A 
ATOM     30  C   UNL     1       5.301   3.599  15.246  0.00  0.00    +0.000 A 
ENDBRANCH  22  24
BRANCH  22  31
ATOM     31  O   UNL     1       5.823   3.648  18.877  0.00  0.00    +0.000 OA
ATOM     32  H   UNL     1       5.101   3.563  19.531  0.00  0.00    +0.000 HD
ENDBRANCH  22  31
ENDBRANCH  18  19
ENDBRANCH  17  18
ENDBRANCH   1  17
TORSDOF 9
ENDMDL
MODEL 5
REMARK VINA RESULT:      -6.8      3.998      8.817
REMARK  Name = 
REMARK  11 active torsions:
REMARK  status: ('A' for Active; 'I' for Inactive)
REMARK    1  A    between atoms: C_1  and  C_2
REMARK    2  A    between atoms: C_5  and  N_6
REMARK    3  A    between atoms: N_6  and  O_7
REMARK    4  A    between atoms: N_10  and  C_11
REMARK    5  A    between atoms: C_11  and  C_12
REMARK    6  A    between atoms: C_12  and  C_13
REMARK    7  A    between atoms: C_13  and  C_14
REMARK    8  A    between atoms: C_14  and  N_15
REMARK    9  A    between atoms: N_18  and  O_19
REMARK   10  A    between atoms: N_18  and  C_20
REMARK   11  A    between atoms: C_23  and  C_24
REMARK                            x       y       z     vdW  Elec       q    Type
REMARK                         _______ _______ _______ _____ _____    ______ ____
ROOT
ATOM      1  C   UNL     1      -0.092  10.422  22.653  0.00  0.00    +0.000 C 
ENDROOT
BRANCH   1   2
ATOM      2  C   UNL     1      -0.015  11.718  21.840  0.00  0.00    +0.000 C 
BRANCH   2   6
ATOM      3  N   UNL     1      -2.474  11.543  19.110  0.00  0.00    +0.000 N 
ATOM      4  C   UNL     1      -1.218  11.438  19.709  0.00  0.00    +0.000 C 
ATOM      5  O   UNL     1      -0.195  11.011  19.179  0.00  0.00    +0.000 OA
ATOM      6  N   UNL     1      -1.190  11.907  21.012  0.00  0.00    +0.000 N 
ATOM      7  H   UNL     1      -2.100  12.031  21.437  0.00  0.00    +0.000 HD
BRANCH   3  12
ATOM      8  C   UNL     1      -3.993   9.808  13.824  0.00  0.00    +0.000 C 
ATOM      9  C   UNL     1      -3.598  10.268  15.195  0.00  0.00    +0.000 A 
ATOM     10  C   UNL     1      -4.356  11.219  15.876  0.00  0.00    +0.000 A 
ATOM     11  C   UNL     1      -3.984  11.645  17.157  0.00  0.00    +0.000 A 
ATOM     12  C   UNL     1      -2.847  11.139  17.798  0.00  0.00    +0.000 A 
ATOM     13  C   UNL     1      -2.085  10.187  17.096  0.00  0.00    +0.000 A 
ATOM     14  C   UNL     1      -2.461   9.750  15.817  0.00  0.00    +0.000 A 
ENDBRANCH   3  12
BRANCH   3  15
ATOM     15  O   UNL     1      -3.522  12.043  19.930  0.00  0.00    +0.000 OA
ATOM     16  H   UNL     1      -3.073  12.803  20.344  0.00  0.00    +0.000 HD
ENDBRANCH   3  15
ENDBRANCH   2   6
ENDBRANCH   1   2
BRANCH   1  17
ATOM     17  C   UNL     1       1.048   9.445  22.343  0.00  0.00    +0.000 C 
BRANCH  17  18
ATOM     18  C   UNL     1       0.600   8.270  21.468  0.00  0.00    +0.000 C 
BRANCH  18  19
ATOM     19  N   UNL     1       1.209   8.300  20.150  0.00  0.00    +0.000 N 
ATOM     20  C   UNL     1       1.983   7.232  19.728  0.00  0.00    +0.000 C 
ATOM     21  O   UNL     1       2.120   6.246  20.450  0.00  0.00    +0.000 OA
ATOM     22  N   UNL     1       2.528   7.412  18.460  0.00  0.00    +0.000 N 
ATOM     23  H   UNL     1       1.447   9.187  19.727  0.00  0.00    +0.000 HD
BRANCH  22  24
ATOM     24  C   UNL     1       3.478   6.567  17.823  0.00  0.00    +0.000 A 
ATOM     25  C   UNL     1       4.641   7.088  17.234  0.00  0.00    +0.000 A 
ATOM     26  C   UNL     1       5.523   6.276  16.523  0.00  0.00    +0.000 A 
ATOM     27  C   UNL     1       5.279   4.911  16.387  0.00  0.00    +0.000 A 
ATOM     28  C   UNL     1       6.189   4.062  15.552  0.00  0.00    +0.000 C 
ATOM     29  C   UNL     1       4.155   4.364  17.015  0.00  0.00    +0.000 A 
ATOM     30  C   UNL     1       3.268   5.181  17.734  0.00  0.00    +0.000 A 
ENDBRANCH  22  24
BRANCH  22  31
ATOM     31  O   UNL     1       2.247   8.645  17.818  0.00  0.00    +0.000 OA
ATOM     32  H   UNL     1       2.347   9.250  18.579  0.00  0.00    +0.000 HD
ENDBRANCH  22  31
ENDBRANCH  18  19
ENDBRANCH  17  18
ENDBRANCH   1  17
TORSDOF 9
ENDMDL
MODEL 6
REMARK VINA RESULT:      -6.7      3.470      8.639
REMARK  Name = 
REMARK  11 active torsions:
REMARK  status: ('A' for Active; 'I' for Inactive)
REMARK    1  A    between atoms: C_1  and  C_2
REMARK    2  A    between atoms: C_5  and  N_6
REMARK    3  A    between atoms: N_6  and  O_7
REMARK    4  A    between atoms: N_10  and  C_11
REMARK    5  A    between atoms: C_11  and  C_12
REMARK    6  A    between atoms: C_12  and  C_13
REMARK    7  A    between atoms: C_13  and  C_14
REMARK    8  A    between atoms: C_14  and  N_15
REMARK    9  A    between atoms: N_18  and  O_19
REMARK   10  A    between atoms: N_18  and  C_20
REMARK   11  A    between atoms: C_23  and  C_24
REMARK                            x       y       z     vdW  Elec       q    Type
REMARK                         _______ _______ _______ _____ _____    ______ ____
ROOT
ATOM      1  C   UNL     1      -0.116   9.343  23.160  0.00  0.00    +0.000 C 
ENDROOT
BRANCH   1   2
ATOM      2  C   UNL     1      -0.801  10.710  23.079  0.00  0.00    +0.000 C 
BRANCH   2   6
ATOM      3  N   UNL     1      -0.203  12.859  20.154  0.00  0.00    +0.000 N 
ATOM      4  C   UNL     1      -0.342  12.551  21.507  0.00  0.00    +0.000 C 
ATOM      5  O   UNL     1      -0.152  13.317  22.449  0.00  0.00    +0.000 OA
ATOM      6  N   UNL     1      -0.767  11.252  21.734  0.00  0.00    +0.000 N 
ATOM      7  H   UNL     1      -0.687  10.636  20.936  0.00  0.00    +0.000 HD
BRANCH   3  12
ATOM      8  C   UNL     1       1.581  17.791  17.758  0.00  0.00    +0.000 C 
ATOM      9  C   UNL     1       1.114  16.514  18.387  0.00  0.00    +0.000 A 
ATOM     10  C   UNL     1      -0.218  16.347  18.761  0.00  0.00    +0.000 A 
ATOM     11  C   UNL     1      -0.650  15.151  19.348  0.00  0.00    +0.000 A 
ATOM     12  C   UNL     1       0.230  14.088  19.583  0.00  0.00    +0.000 A 
ATOM     13  C   UNL     1       1.574  14.274  19.212  0.00  0.00    +0.000 A 
ATOM     14  C   UNL     1       2.008  15.466  18.612  0.00  0.00    +0.000 A 
ENDBRANCH   3  12
BRANCH   3  15
ATOM     15  O   UNL     1      -0.451  11.799  19.239  0.00  0.00    +0.000 OA
ATOM     16  H   UNL     1       0.435  11.394  19.197  0.00  0.00    +0.000 HD
ENDBRANCH   3  15
ENDBRANCH   2   6
ENDBRANCH   1   2
BRANCH   1  17
ATOM     17  C   UNL     1       1.092   9.214  22.225  0.00  0.00    +0.000 C 
BRANCH  17  18
ATOM     18  C   UNL     1       0.787   8.382  20.974  0.00  0.00    +0.000 C 
BRANCH  18  19
ATOM     19  N   UNL     1       1.597   7.180  20.902  0.00  0.00    +0.000 N 
ATOM     20  C   UNL     1       2.393   6.954  19.791  0.00  0.00    +0.000 C 
ATOM     21  O   UNL     1       2.445   7.790  18.889  0.00  0.00    +0.000 OA
ATOM     22  N   UNL     1       3.088   5.750  19.843  0.00  0.00    +0.000 N 
ATOM     23  H   UNL     1       1.296   6.341  21.382  0.00  0.00    +0.000 HD
BRANCH  22  24
ATOM     24  C   UNL     1       3.861   5.175  18.797  0.00  0.00    +0.000 A 
ATOM     25  C   UNL     1       5.242   5.404  18.698  0.00  0.00    +0.000 A 
ATOM     26  C   UNL     1       5.984   4.925  17.619  0.00  0.00    +0.000 A 
ATOM     27  C   UNL     1       5.371   4.188  16.607  0.00  0.00    +0.000 A 
ATOM     28  C   UNL     1       6.160   3.749  15.412  0.00  0.00    +0.000 C 
ATOM     29  C   UNL     1       4.006   3.903  16.718  0.00  0.00    +0.000 A 
ATOM     30  C   UNL     1       3.259   4.382  17.806  0.00  0.00    +0.000 A 
ENDBRANCH  22  24
BRANCH  22  31
ATOM     31  O   UNL     1       2.858   4.934  20.981  0.00  0.00    +0.000 OA
ATOM     32  H   UNL     1       1.962   5.242  21.222  0.00  0.00    +0.000 HD
ENDBRANCH  22  31
ENDBRANCH  18  19
ENDBRANCH  17  18
ENDBRANCH   1  17
TORSDOF 9
ENDMDL
MODEL 7
REMARK VINA RESULT:      -6.7      4.096      5.708
REMARK  Name = 
REMARK  11 active torsions:
REMARK  status: ('A' for Active; 'I' for Inactive)
REMARK    1  A    between atoms: C_1  and  C_2
REMARK    2  A    between atoms: C_5  and  N_6
REMARK    3  A    between atoms: N_6  and  O_7
REMARK    4  A    between atoms: N_10  and  C_11
REMARK    5  A    between atoms: C_11  and  C_12
REMARK    6  A    between atoms: C_12  and  C_13
REMARK    7  A    between atoms: C_13  and  C_14
REMARK    8  A    between atoms: C_14  and  N_15
REMARK    9  A    between atoms: N_18  and  O_19
REMARK   10  A    between atoms: N_18  and  C_20
REMARK   11  A    between atoms: C_23  and  C_24
REMARK                            x       y       z     vdW  Elec       q    Type
REMARK                         _______ _______ _______ _____ _____    ______ ____
ROOT
ATOM      1  C   UNL     1       1.523   7.432  21.016  0.00  0.00    +0.000 C 
ENDROOT
BRANCH   1   2
ATOM      2  C   UNL     1       1.683   5.958  20.633  0.00  0.00    +0.000 C 
BRANCH   2   6
ATOM      3  N   UNL     1       4.597   5.293  18.489  0.00  0.00    +0.000 N 
ATOM      4  C   UNL     1       3.243   5.377  18.818  0.00  0.00    +0.000 C 
ATOM      5  O   UNL     1       2.298   5.195  18.055  0.00  0.00    +0.000 OA
ATOM      6  N   UNL     1       3.020   5.666  20.154  0.00  0.00    +0.000 N 
ATOM      7  H   UNL     1       3.829   6.013  20.653  0.00  0.00    +0.000 HD
BRANCH   3  12
ATOM      8  C   UNL     1       6.992   4.247  13.349  0.00  0.00    +0.000 C 
ATOM      9  C   UNL     1       6.361   4.517  14.681  0.00  0.00    +0.000 A 
ATOM     10  C   UNL     1       5.522   3.579  15.278  0.00  0.00    +0.000 A 
ATOM     11  C   UNL     1       4.935   3.835  16.523  0.00  0.00    +0.000 A 
ATOM     12  C   UNL     1       5.164   5.033  17.211  0.00  0.00    +0.000 A 
ATOM     13  C   UNL     1       6.005   5.976  16.592  0.00  0.00    +0.000 A 
ATOM     14  C   UNL     1       6.604   5.718  15.350  0.00  0.00    +0.000 A 
ENDBRANCH   3  12
BRANCH   3  15
ATOM     15  O   UNL     1       5.517   5.573  19.536  0.00  0.00    +0.000 OA
ATOM     16  H   UNL     1       5.957   4.707  19.618  0.00  0.00    +0.000 HD
ENDBRANCH   3  15
ENDBRANCH   2   6
ENDBRANCH   1   2
BRANCH   1  17
ATOM     17  C   UNL     1       1.741   8.390  19.839  0.00  0.00    +0.000 C 
BRANCH  17  18
ATOM     18  C   UNL     1       0.705   9.519  19.794  0.00  0.00    +0.000 C 
BRANCH  18  19
ATOM     19  N   UNL     1       0.247   9.899  21.118  0.00  0.00    +0.000 N 
ATOM     20  C   UNL     1      -0.598  10.987  21.265  0.00  0.00    +0.000 C 
ATOM     21  O   UNL     1      -0.991  11.601  20.275  0.00  0.00    +0.000 OA
ATOM     22  N   UNL     1      -0.930  11.254  22.590  0.00  0.00    +0.000 N 
ATOM     23  H   UNL     1       0.823   9.701  21.926  0.00  0.00    +0.000 HD
BRANCH  22  24
ATOM     24  C   UNL     1      -1.650  12.384  23.068  0.00  0.00    +0.000 A 
ATOM     25  C   UNL     1      -1.018  13.618  23.281  0.00  0.00    +0.000 A 
ATOM     26  C   UNL     1      -1.698  14.697  23.843  0.00  0.00    +0.000 A 
ATOM     27  C   UNL     1      -3.040  14.582  24.200  0.00  0.00    +0.000 A 
ATOM     28  C   UNL     1      -3.740  15.720  24.878  0.00  0.00    +0.000 C 
ATOM     29  C   UNL     1      -3.702  13.377  23.942  0.00  0.00    +0.000 A 
ATOM     30  C   UNL     1      -3.018  12.291  23.373  0.00  0.00    +0.000 A 
ENDBRANCH  22  24
BRANCH  22  31
ATOM     31  O   UNL     1      -0.341  10.418  23.573  0.00  0.00    +0.000 OA
ATOM     32  H   UNL     1       0.600  10.510  23.321  0.00  0.00    +0.000 HD
ENDBRANCH  22  31
ENDBRANCH  18  19
ENDBRANCH  17  18
ENDBRANCH   1  17
TORSDOF 9
ENDMDL
MODEL 8
REMARK VINA RESULT:      -6.7      2.910      7.810
REMARK  Name = 
REMARK  11 active torsions:
REMARK  status: ('A' for Active; 'I' for Inactive)
REMARK    1  A    between atoms: C_1  and  C_2
REMARK    2  A    between atoms: C_5  and  N_6
REMARK    3  A    between atoms: N_6  and  O_7
REMARK    4  A    between atoms: N_10  and  C_11
REMARK    5  A    between atoms: C_11  and  C_12
REMARK    6  A    between atoms: C_12  and  C_13
REMARK    7  A    between atoms: C_13  and  C_14
REMARK    8  A    between atoms: C_14  and  N_15
REMARK    9  A    between atoms: N_18  and  O_19
REMARK   10  A    between atoms: N_18  and  C_20
REMARK   11  A    between atoms: C_23  and  C_24
REMARK                            x       y       z     vdW  Elec       q    Type
REMARK                         _______ _______ _______ _____ _____    ______ ____
ROOT
ATOM      1  C   UNL     1       1.319   8.224  21.616  0.00  0.00    +0.000 C 
ENDROOT
BRANCH   1   2
ATOM      2  C   UNL     1      -0.019   8.946  21.433  0.00  0.00    +0.000 C 
BRANCH   2   6
ATOM      3  N   UNL     1       0.722  11.722  19.136  0.00  0.00    +0.000 N 
ATOM      4  C   UNL     1       0.644  11.064  20.364  0.00  0.00    +0.000 C 
ATOM      5  O   UNL     1       1.057  11.486  21.441  0.00  0.00    +0.000 OA
ATOM      6  N   UNL     1       0.001   9.839  20.291  0.00  0.00    +0.000 N 
ATOM      7  H   UNL     1      -0.108   9.474  19.353  0.00  0.00    +0.000 HD
BRANCH   3  12
ATOM      8  C   UNL     1       3.196  16.788  17.925  0.00  0.00    +0.000 C 
ATOM      9  C   UNL     1       2.551  15.474  18.248  0.00  0.00    +0.000 A 
ATOM     10  C   UNL     1       1.261  15.420  18.772  0.00  0.00    +0.000 A 
ATOM     11  C   UNL     1       0.662  14.191  19.071  0.00  0.00    +0.000 A 
ATOM     12  C   UNL     1       1.330  12.978  18.861  0.00  0.00    +0.000 A 
ATOM     13  C   UNL     1       2.636  13.046  18.343  0.00  0.00    +0.000 A 
ATOM     14  C   UNL     1       3.234  14.276  18.030  0.00  0.00    +0.000 A 
ENDBRANCH   3  12
BRANCH   3  15
ATOM     15  O   UNL     1       0.199  11.023  18.014  0.00  0.00    +0.000 OA
ATOM     16  H   UNL     1       0.758  11.388  17.304  0.00  0.00    +0.000 HD
ENDBRANCH   3  15
ENDBRANCH   2   6
ENDBRANCH   1   2
BRANCH   1  17
ATOM     17  C   UNL     1       1.845   7.588  20.324  0.00  0.00    +0.000 C 
BRANCH  17  18
ATOM     18  C   UNL     1       2.043   6.074  20.447  0.00  0.00    +0.000 C 
BRANCH  18  19
ATOM     19  N   UNL     1       3.367   5.655  20.023  0.00  0.00    +0.000 N 
ATOM     20  C   UNL     1       3.671   5.604  18.673  0.00  0.00    +0.000 C 
ATOM     21  O   UNL     1       2.836   5.952  17.839  0.00  0.00    +0.000 OA
ATOM     22  N   UNL     1       4.962   5.156  18.413  0.00  0.00    +0.000 N 
ATOM     23  H   UNL     1       3.901   5.017  20.600  0.00  0.00    +0.000 HD
BRANCH  22  24
ATOM     24  C   UNL     1       5.511   4.857  17.136  0.00  0.00    +0.000 A 
ATOM     25  C   UNL     1       6.625   5.550  16.639  0.00  0.00    +0.000 A 
ATOM     26  C   UNL     1       7.104   5.328  15.348  0.00  0.00    +0.000 A 
ATOM     27  C   UNL     1       6.491   4.395  14.514  0.00  0.00    +0.000 A 
ATOM     28  C   UNL     1       6.961   4.224  13.101  0.00  0.00    +0.000 C 
ATOM     29  C   UNL     1       5.414   3.655  15.012  0.00  0.00    +0.000 A 
ATOM     30  C   UNL     1       4.934   3.875  16.314  0.00  0.00    +0.000 A 
ENDBRANCH  22  24
BRANCH  22  31
ATOM     31  O   UNL     1       5.746   4.791  19.539  0.00  0.00    +0.000 OA
ATOM     32  H   UNL     1       5.407   3.886  19.685  0.00  0.00    +0.000 HD
ENDBRANCH  22  31
ENDBRANCH  18  19
ENDBRANCH  17  18
ENDBRANCH   1  17
TORSDOF 9
ENDMDL
MODEL 9
REMARK VINA RESULT:      -6.7      4.031      6.394
REMARK  Name = 
REMARK  11 active torsions:
REMARK  status: ('A' for Active; 'I' for Inactive)
REMARK    1  A    between atoms: C_1  and  C_2
REMARK    2  A    between atoms: C_5  and  N_6
REMARK    3  A    between atoms: N_6  and  O_7
REMARK    4  A    between atoms: N_10  and  C_11
REMARK    5  A    between atoms: C_11  and  C_12
REMARK    6  A    between atoms: C_12  and  C_13
REMARK    7  A    between atoms: C_13  and  C_14
REMARK    8  A    between atoms: C_14  and  N_15
REMARK    9  A    between atoms: N_18  and  O_19
REMARK   10  A    between atoms: N_18  and  C_20
REMARK   11  A    between atoms: C_23  and  C_24
REMARK                            x       y       z     vdW  Elec       q    Type
REMARK                         _______ _______ _______ _____ _____    ______ ____
ROOT
ATOM      1  C   UNL     1      -0.173   8.647  21.643  0.00  0.00    +0.000 C 
ENDROOT
BRANCH   1   2
ATOM      2  C   UNL     1       1.149   8.899  20.912  0.00  0.00    +0.000 C 
BRANCH   2   6
ATOM      3  N   UNL     1       3.104   6.300  19.195  0.00  0.00    +0.000 N 
ATOM      4  C   UNL     1       2.335   7.458  19.304  0.00  0.00    +0.000 C 
ATOM      5  O   UNL     1       2.073   8.245  18.397  0.00  0.00    +0.000 OA
ATOM      6  N   UNL     1       1.826   7.662  20.577  0.00  0.00    +0.000 N 
ATOM      7  H   UNL     1       2.260   7.103  21.300  0.00  0.00    +0.000 HD
BRANCH   3  12
ATOM      8  C   UNL     1       5.938   4.355  14.564  0.00  0.00    +0.000 C 
ATOM      9  C   UNL     1       5.193   4.857  15.764  0.00  0.00    +0.000 A 
ATOM     10  C   UNL     1       4.406   3.998  16.528  0.00  0.00    +0.000 A 
ATOM     11  C   UNL     1       3.713   4.471  17.649  0.00  0.00    +0.000 A 
ATOM     12  C   UNL     1       3.781   5.813  18.042  0.00  0.00    +0.000 A 
ATOM     13  C   UNL     1       4.570   6.672  17.256  0.00  0.00    +0.000 A 
ATOM     14  C   UNL     1       5.275   6.199  16.139  0.00  0.00    +0.000 A 
ENDBRANCH   3  12
BRANCH   3  15
ATOM     15  O   UNL     1       3.296   5.556  20.391  0.00  0.00    +0.000 OA
ATOM     16  H   UNL     1       4.224   5.281  20.280  0.00  0.00    +0.000 HD
ENDBRANCH   3  15
ENDBRANCH   2   6
ENDBRANCH   1   2
BRANCH   1  17
ATOM     17  C   UNL     1      -0.278   9.391  22.979  0.00  0.00    +0.000 C 
BRANCH  17  18
ATOM     18  C   UNL     1      -1.088  10.688  22.874  0.00  0.00    +0.000 C 
BRANCH  18  19
ATOM     19  N   UNL     1      -0.285  11.802  22.401  0.00  0.00    +0.000 N 
ATOM     20  C   UNL     1      -0.905  12.894  21.817  0.00  0.00    +0.000 C 
ATOM     21  O   UNL     1      -2.132  12.937  21.736  0.00  0.00    +0.000 OA
ATOM     22  N   UNL     1      -0.012  13.869  21.383  0.00  0.00    +0.000 N 
ATOM     23  H   UNL     1       0.666  11.642  22.094  0.00  0.00    +0.000 HD
BRANCH  22  24
ATOM     24  C   UNL     1      -0.332  15.025  20.619  0.00  0.00    +0.000 A 
ATOM     25  C   UNL     1      -1.092  16.073  21.160  0.00  0.00    +0.000 A 
ATOM     26  C   UNL     1      -1.490  17.161  20.384  0.00  0.00    +0.000 A 
ATOM     27  C   UNL     1      -1.130  17.243  19.040  0.00  0.00    +0.000 A 
ATOM     28  C   UNL     1      -1.632  18.373  18.194  0.00  0.00    +0.000 C 
ATOM     29  C   UNL     1      -0.326  16.236  18.498  0.00  0.00    +0.000 A 
ATOM     30  C   UNL     1       0.079  15.142  19.281  0.00  0.00    +0.000 A 
ENDBRANCH  22  24
BRANCH  22  31
ATOM     31  O   UNL     1       1.367  13.594  21.566  0.00  0.00    +0.000 OA
ATOM     32  H   UNL     1       1.748  14.301  21.009  0.00  0.00    +0.000 HD
ENDBRANCH  22  31
ENDBRANCH  18  19
ENDBRANCH  17  18
ENDBRANCH   1  17
TORSDOF 9
ENDMDL
