MODEL 1
REMARK VINA RESULT:      -8.9      0.000      0.000
REMARK  Name = 
REMARK  8 active torsions:
REMARK  status: ('A' for Active; 'I' for Inactive)
REMARK    1  A    between atoms: C_2  and  C_3
REMARK    2  A    between atoms: C_3  and  N_4
REMARK    3  A    between atoms: C_5  and  C_6
REMARK    4  A    between atoms: C_11  and  C_12
REMARK    5  A    between atoms: C_17  and  O_18
REMARK    6  A    between atoms: O_18  and  C_19
REMARK    7  A    between atoms: C_19  and  C_20
REMARK    8  A    between atoms: C_24  and  C_25
REMARK                            x       y       z     vdW  Elec       q    Type
REMARK                         _______ _______ _______ _____ _____    ______ ____
ROOT
ATOM      1  N   UNL     1       2.158   5.600  19.712  0.00  0.00    +0.000 N 
ATOM      2  C   UNL     1       2.277   6.957  19.474  0.00  0.00    +0.000 A 
ATOM      3  C   UNL     1       3.106   7.068  18.371  0.00  0.00    +0.000 A 
ATOM      4  C   UNL     1       3.419   5.776  17.863  0.00  0.00    +0.000 A 
ATOM      5  C   UNL     1       4.178   5.264  16.777  0.00  0.00    +0.000 A 
ATOM      6  C   UNL     1       4.177   3.883  16.528  0.00  0.00    +0.000 A 
ATOM      7  C   UNL     1       3.495   3.007  17.362  0.00  0.00    +0.000 A 
ATOM      8  C   UNL     1       2.796   3.483  18.471  0.00  0.00    +0.000 A 
ATOM      9  C   UNL     1       2.767   4.869  18.700  0.00  0.00    +0.000 A 
ENDROOT
BRANCH   2  10
ATOM     10  C   UNL     1       1.758   8.096  20.221  0.00  0.00    +0.000 C 
ATOM     11  O   UNL     1       1.944   8.170  21.432  0.00  0.00    +0.000 OA
ATOM     12  N   UNL     1       1.139   9.143  19.529  0.00  0.00    +0.000 N 
ATOM     13  C   UNL     1       0.728  10.339  20.254  0.00  0.00    +0.000 C 
ATOM     14  C   UNL     1      -0.679  10.788  19.848  0.00  0.00    +0.000 C 
ATOM     15  C   UNL     1      -0.971  10.740  18.334  0.00  0.00    +0.000 C 
ATOM     16  C   UNL     1      -2.485  10.699  18.098  0.00  0.00    +0.000 C 
ATOM     17  C   UNL     1      -0.341   9.527  17.648  0.00  0.00    +0.000 C 
ATOM     18  C   UNL     1       1.104   9.301  18.083  0.00  0.00    +0.000 C 
ENDBRANCH   2  10
BRANCH   1  19
ATOM     19  C   UNL     1       1.404   4.969  20.784  0.00  0.00    +0.000 C 
BRANCH  19  21
ATOM     20  C   UNL     1       1.598   2.682  21.720  0.00  0.00    +0.000 C 
ATOM     21  C   UNL     1       2.127   3.898  21.526  0.00  0.00    +0.000 C 
ENDBRANCH  19  21
ENDBRANCH   1  19
BRANCH   5  22
ATOM     22  O   UNL     1       4.929   6.000  15.869  0.00  0.00    +0.000 OA
BRANCH  22  23
ATOM     23  C   UNL     1       6.295   5.598  15.790  0.00  0.00    +0.000 C 
BRANCH  23  24
ATOM     24  C   UNL     1       7.101   6.080  16.964  0.00  0.00    +0.000 A 
ATOM     25  C   UNL     1       7.415   5.245  18.040  0.00  0.00    +0.000 A 
ATOM     26  C   UNL     1       8.089   5.751  19.147  0.00  0.00    +0.000 A 
ATOM     27  C   UNL     1       8.448   7.102  19.195  0.00  0.00    +0.000 A 
ATOM     28  C   UNL     1       8.124   7.957  18.136  0.00  0.00    +0.000 A 
ATOM     29  C   UNL     1       8.470   9.415  18.176  0.00  0.00    +0.000 C 
ATOM     30  C   UNL     1       7.456   7.439  17.023  0.00  0.00    +0.000 A 
ENDBRANCH  23  24
ENDBRANCH  22  23
ENDBRANCH   5  22
TORSDOF 6
ENDMDL
MODEL 2
REMARK VINA RESULT:      -8.6      1.855      8.046
REMARK  Name = 
REMARK  8 active torsions:
REMARK  status: ('A' for Active; 'I' for Inactive)
REMARK    1  A    between atoms: C_2  and  C_3
REMARK    2  A    between atoms: C_3  and  N_4
REMARK    3  A    between atoms: C_5  and  C_6
REMARK    4  A    between atoms: C_11  and  C_12
REMARK    5  A    between atoms: C_17  and  O_18
REMARK    6  A    between atoms: O_18  and  C_19
REMARK    7  A    between atoms: C_19  and  C_20
REMARK    8  A    between atoms: C_24  and  C_25
REMARK                            x       y       z     vdW  Elec       q    Type
REMARK                         _______ _______ _______ _____ _____    ______ ____
ROOT
ATOM      1  N   UNL     1       2.071   6.454  19.960  0.00  0.00    +0.000 N 
ATOM      2  C   UNL     1       2.363   6.475  18.608  0.00  0.00    +0.000 A 
ATOM      3  C   UNL     1       1.993   7.735  18.169  0.00  0.00    +0.000 A 
ATOM      4  C   UNL     1       1.566   8.530  19.269  0.00  0.00    +0.000 A 
ATOM      5  C   UNL     1       1.105   9.862  19.447  0.00  0.00    +0.000 A 
ATOM      6  C   UNL     1       0.859  10.337  20.744  0.00  0.00    +0.000 A 
ATOM      7  C   UNL     1       1.002   9.507  21.848  0.00  0.00    +0.000 A 
ATOM      8  C   UNL     1       1.391   8.178  21.691  0.00  0.00    +0.000 A 
ATOM      9  C   UNL     1       1.673   7.711  20.395  0.00  0.00    +0.000 A 
ENDROOT
BRANCH   2  10
ATOM     10  C   UNL     1       2.864   5.423  17.733  0.00  0.00    +0.000 C 
ATOM     11  O   UNL     1       2.112   4.526  17.361  0.00  0.00    +0.000 OA
ATOM     12  N   UNL     1       4.174   5.503  17.246  0.00  0.00    +0.000 N 
ATOM     13  C   UNL     1       4.641   4.521  16.276  0.00  0.00    +0.000 C 
ATOM     14  C   UNL     1       6.040   4.005  16.625  0.00  0.00    +0.000 C 
ATOM     15  C   UNL     1       7.042   5.086  17.079  0.00  0.00    +0.000 C 
ATOM     16  C   UNL     1       8.184   4.437  17.870  0.00  0.00    +0.000 C 
ATOM     17  C   UNL     1       6.396   6.161  17.954  0.00  0.00    +0.000 C 
ATOM     18  C   UNL     1       5.064   6.644  17.390  0.00  0.00    +0.000 C 
ENDBRANCH   2  10
BRANCH   1  19
ATOM     19  C   UNL     1       2.260   5.336  20.871  0.00  0.00    +0.000 C 
BRANCH  19  21
ATOM     20  C   UNL     1       1.493   3.012  21.267  0.00  0.00    +0.000 C 
ATOM     21  C   UNL     1       1.291   4.216  20.712  0.00  0.00    +0.000 C 
ENDBRANCH  19  21
ENDBRANCH   1  19
BRANCH   5  22
ATOM     22  O   UNL     1       0.891  10.805  18.451  0.00  0.00    +0.000 OA
BRANCH  22  23
ATOM     23  C   UNL     1      -0.165  11.720  18.739  0.00  0.00    +0.000 C 
BRANCH  23  24
ATOM     24  C   UNL     1      -1.505  11.202  18.295  0.00  0.00    +0.000 A 
ATOM     25  C   UNL     1      -1.628  10.172  17.359  0.00  0.00    +0.000 A 
ATOM     26  C   UNL     1      -2.885   9.779  16.911  0.00  0.00    +0.000 A 
ATOM     27  C   UNL     1      -4.034  10.421  17.384  0.00  0.00    +0.000 A 
ATOM     28  C   UNL     1      -3.928  11.469  18.305  0.00  0.00    +0.000 A 
ATOM     29  C   UNL     1      -5.141  12.193  18.806  0.00  0.00    +0.000 C 
ATOM     30  C   UNL     1      -2.663  11.850  18.759  0.00  0.00    +0.000 A 
ENDBRANCH  23  24
ENDBRANCH  22  23
ENDBRANCH   5  22
TORSDOF 6
ENDMDL
MODEL 3
REMARK VINA RESULT:      -8.4      1.635      2.889
REMARK  Name = 
REMARK  8 active torsions:
REMARK  status: ('A' for Active; 'I' for Inactive)
REMARK    1  A    between atoms: C_2  and  C_3
REMARK    2  A    between atoms: C_3  and  N_4
REMARK    3  A    between atoms: C_5  and  C_6
REMARK    4  A    between atoms: C_11  and  C_12
REMARK    5  A    between atoms: C_17  and  O_18
REMARK    6  A    between atoms: O_18  and  C_19
REMARK    7  A    between atoms: C_19  and  C_20
REMARK    8  A    between atoms: C_24  and  C_25
REMARK                            x       y       z     vdW  Elec       q    Type
REMARK                         _______ _______ _______ _____ _____    ______ ____
ROOT
ATOM      1  N   UNL     1       1.081   8.420  20.115  0.00  0.00    +0.000 N 
ATOM      2  C   UNL     1       1.099   9.421  19.161  0.00  0.00    +0.000 A 
ATOM      3  C   UNL     1       1.981   8.988  18.186  0.00  0.00    +0.000 A 
ATOM      4  C   UNL     1       2.433   7.672  18.487  0.00  0.00    +0.000 A 
ATOM      5  C   UNL     1       3.297   6.725  17.874  0.00  0.00    +0.000 A 
ATOM      6  C   UNL     1       3.428   5.447  18.439  0.00  0.00    +0.000 A 
ATOM      7  C   UNL     1       2.772   5.116  19.617  0.00  0.00    +0.000 A 
ATOM      8  C   UNL     1       1.970   6.051  20.269  0.00  0.00    +0.000 A 
ATOM      9  C   UNL     1       1.809   7.320  19.685  0.00  0.00    +0.000 A 
ENDROOT
BRANCH   2  10
ATOM     10  C   UNL     1       0.441  10.722  19.144  0.00  0.00    +0.000 C 
ATOM     11  O   UNL     1       0.946  11.672  19.736  0.00  0.00    +0.000 OA
ATOM     12  N   UNL     1      -0.709  10.897  18.365  0.00  0.00    +0.000 N 
ATOM     13  C   UNL     1      -1.301  12.223  18.246  0.00  0.00    +0.000 C 
ATOM     14  C   UNL     1      -2.823  12.177  18.402  0.00  0.00    +0.000 C 
ATOM     15  C   UNL     1      -3.523  11.018  17.663  0.00  0.00    +0.000 C 
ATOM     16  C   UNL     1      -4.901  10.762  18.282  0.00  0.00    +0.000 C 
ATOM     17  C   UNL     1      -2.722   9.716  17.710  0.00  0.00    +0.000 C 
ATOM     18  C   UNL     1      -1.242   9.936  17.411  0.00  0.00    +0.000 C 
ENDBRANCH   2  10
BRANCH   1  19
ATOM     19  C   UNL     1       0.319   8.417  21.355  0.00  0.00    +0.000 C 
BRANCH  19  21
ATOM     20  C   UNL     1       0.166   9.517  23.571  0.00  0.00    +0.000 C 
ATOM     21  C   UNL     1       0.734   9.435  22.360  0.00  0.00    +0.000 C 
ENDBRANCH  19  21
ENDBRANCH   1  19
BRANCH   5  22
ATOM     22  O   UNL     1       4.036   6.908  16.713  0.00  0.00    +0.000 OA
BRANCH  22  23
ATOM     23  C   UNL     1       5.091   5.962  16.546  0.00  0.00    +0.000 C 
BRANCH  23  24
ATOM     24  C   UNL     1       6.302   6.307  17.368  0.00  0.00    +0.000 A 
ATOM     25  C   UNL     1       6.860   5.405  18.278  0.00  0.00    +0.000 A 
ATOM     26  C   UNL     1       7.929   5.792  19.082  0.00  0.00    +0.000 A 
ATOM     27  C   UNL     1       8.443   7.089  18.993  0.00  0.00    +0.000 A 
ATOM     28  C   UNL     1       7.883   8.011  18.102  0.00  0.00    +0.000 A 
ATOM     29  C   UNL     1       8.396   9.417  18.008  0.00  0.00    +0.000 C 
ATOM     30  C   UNL     1       6.817   7.612  17.290  0.00  0.00    +0.000 A 
ENDBRANCH  23  24
ENDBRANCH  22  23
ENDBRANCH   5  22
TORSDOF 6
ENDMDL
MODEL 4
REMARK VINA RESULT:      -8.3      1.767      3.240
REMARK  Name = 
REMARK  8 active torsions:
REMARK  status: ('A' for Active; 'I' for Inactive)
REMARK    1  A    between atoms: C_2  and  C_3
REMARK    2  A    between atoms: C_3  and  N_4
REMARK    3  A    between atoms: C_5  and  C_6
REMARK    4  A    between atoms: C_11  and  C_12
REMARK    5  A    between atoms: C_17  and  O_18
REMARK    6  A    between atoms: O_18  and  C_19
REMARK    7  A    between atoms: C_19  and  C_20
REMARK    8  A    between atoms: C_24  and  C_25
REMARK                            x       y       z     vdW  Elec       q    Type
REMARK                         _______ _______ _______ _____ _____    ______ ____
ROOT
ATOM      1  N   UNL     1       2.096   5.221  19.595  0.00  0.00    +0.000 N 
ATOM      2  C   UNL     1       2.324   6.581  19.488  0.00  0.00    +0.000 A 
ATOM      3  C   UNL     1       3.287   6.719  18.503  0.00  0.00    +0.000 A 
ATOM      4  C   UNL     1       3.582   5.451  17.927  0.00  0.00    +0.000 A 
ATOM      5  C   UNL     1       4.436   4.972  16.899  0.00  0.00    +0.000 A 
ATOM      6  C   UNL     1       4.383   3.617  16.536  0.00  0.00    +0.000 A 
ATOM      7  C   UNL     1       3.553   2.730  17.208  0.00  0.00    +0.000 A 
ATOM      8  C   UNL     1       2.754   3.166  18.263  0.00  0.00    +0.000 A 
ATOM      9  C   UNL     1       2.779   4.530  18.604  0.00  0.00    +0.000 A 
ENDROOT
BRANCH   2  10
ATOM     10  C   UNL     1       1.787   7.692  20.263  0.00  0.00    +0.000 C 
ATOM     11  O   UNL     1       1.825   7.659  21.490  0.00  0.00    +0.000 OA
ATOM     12  N   UNL     1       1.324   8.832  19.595  0.00  0.00    +0.000 N 
ATOM     13  C   UNL     1       0.899   9.993  20.365  0.00  0.00    +0.000 C 
ATOM     14  C   UNL     1      -0.416  10.571  19.836  0.00  0.00    +0.000 C 
ATOM     15  C   UNL     1      -0.520  10.661  18.299  0.00  0.00    +0.000 C 
ATOM     16  C   UNL     1      -1.993  10.747  17.882  0.00  0.00    +0.000 C 
ATOM     17  C   UNL     1       0.115   9.464  17.591  0.00  0.00    +0.000 C 
ATOM     18  C   UNL     1       1.478   9.103  18.174  0.00  0.00    +0.000 C 
ENDBRANCH   2  10
BRANCH   1  19
ATOM     19  C   UNL     1       1.181   4.564  20.515  0.00  0.00    +0.000 C 
BRANCH  19  21
ATOM     20  C   UNL     1       2.007   2.540  21.686  0.00  0.00    +0.000 C 
ATOM     21  C   UNL     1       1.825   3.868  21.665  0.00  0.00    +0.000 C 
ENDBRANCH  19  21
ENDBRANCH   1  19
BRANCH   5  22
ATOM     22  O   UNL     1       5.334   5.722  16.150  0.00  0.00    +0.000 OA
BRANCH  22  23
ATOM     23  C   UNL     1       6.598   5.088  15.961  0.00  0.00    +0.000 C 
BRANCH  23  24
ATOM     24  C   UNL     1       6.892   4.822  14.510  0.00  0.00    +0.000 A 
ATOM     25  C   UNL     1       7.821   5.580  13.791  0.00  0.00    +0.000 A 
ATOM     26  C   UNL     1       8.002   5.358  12.430  0.00  0.00    +0.000 A 
ATOM     27  C   UNL     1       7.247   4.384  11.768  0.00  0.00    +0.000 A 
ATOM     28  C   UNL     1       6.298   3.630  12.467  0.00  0.00    +0.000 A 
ATOM     29  C   UNL     1       5.456   2.601  11.777  0.00  0.00    +0.000 C 
ATOM     30  C   UNL     1       6.130   3.851  13.838  0.00  0.00    +0.000 A 
ENDBRANCH  23  24
ENDBRANCH  22  23
ENDBRANCH   5  22
TORSDOF 6
ENDMDL
MODEL 5
REMARK VINA RESULT:      -8.1      1.888      8.080
REMARK  Name = 
REMARK  8 active torsions:
REMARK  status: ('A' for Active; 'I' for Inactive)
REMARK    1  A    between atoms: C_2  and  C_3
REMARK    2  A    between atoms: C_3  and  N_4
REMARK    3  A    between atoms: C_5  and  C_6
REMARK    4  A    between atoms: C_11  and  C_12
REMARK    5  A    between atoms: C_17  and  O_18
REMARK    6  A    between atoms: O_18  and  C_19
REMARK    7  A    between atoms: C_19  and  C_20
REMARK    8  A    between atoms: C_24  and  C_25
REMARK                            x       y       z     vdW  Elec       q    Type
REMARK                         _______ _______ _______ _____ _____    ______ ____
ROOT
ATOM      1  N   UNL     1       2.241   6.406  19.883  0.00  0.00    +0.000 N 
ATOM      2  C   UNL     1       2.444   6.424  18.515  0.00  0.00    +0.000 A 
ATOM      3  C   UNL     1       1.928   7.633  18.081  0.00  0.00    +0.000 A 
ATOM      4  C   UNL     1       1.498   8.409  19.193  0.00  0.00    +0.000 A 
ATOM      5  C   UNL     1       0.926   9.695  19.379  0.00  0.00    +0.000 A 
ATOM      6  C   UNL     1       0.718  10.174  20.682  0.00  0.00    +0.000 A 
ATOM      7  C   UNL     1       1.008   9.386  21.787  0.00  0.00    +0.000 A 
ATOM      8  C   UNL     1       1.510   8.096  21.627  0.00  0.00    +0.000 A 
ATOM      9  C   UNL     1       1.753   7.629  20.323  0.00  0.00    +0.000 A 
ENDROOT
BRANCH   2  10
ATOM     10  C   UNL     1       2.986   5.403  17.627  0.00  0.00    +0.000 C 
ATOM     11  O   UNL     1       2.256   4.514  17.197  0.00  0.00    +0.000 OA
ATOM     12  N   UNL     1       4.313   5.508  17.194  0.00  0.00    +0.000 N 
ATOM     13  C   UNL     1       4.824   4.561  16.212  0.00  0.00    +0.000 C 
ATOM     14  C   UNL     1       6.213   4.044  16.597  0.00  0.00    +0.000 C 
ATOM     15  C   UNL     1       7.189   5.116  17.125  0.00  0.00    +0.000 C 
ATOM     16  C   UNL     1       8.304   4.449  17.938  0.00  0.00    +0.000 C 
ATOM     17  C   UNL     1       6.501   6.157  18.009  0.00  0.00    +0.000 C 
ATOM     18  C   UNL     1       5.188   6.650  17.409  0.00  0.00    +0.000 C 
ENDBRANCH   2  10
BRANCH   1  19
ATOM     19  C   UNL     1       2.592   5.331  20.799  0.00  0.00    +0.000 C 
BRANCH  19  21
ATOM     20  C   UNL     1       0.879   3.685  20.091  0.00  0.00    +0.000 C 
ATOM     21  C   UNL     1       1.506   4.348  21.072  0.00  0.00    +0.000 C 
ENDBRANCH  19  21
ENDBRANCH   1  19
BRANCH   5  22
ATOM     22  O   UNL     1       0.561  10.592  18.384  0.00  0.00    +0.000 OA
BRANCH  22  23
ATOM     23  C   UNL     1      -0.338  11.609  18.824  0.00  0.00    +0.000 C 
BRANCH  23  24
ATOM     24  C   UNL     1      -1.705  11.466  18.214  0.00  0.00    +0.000 A 
ATOM     25  C   UNL     1      -2.863  11.860  18.891  0.00  0.00    +0.000 A 
ATOM     26  C   UNL     1      -4.115  11.633  18.328  0.00  0.00    +0.000 A 
ATOM     27  C   UNL     1      -4.224  10.997  17.087  0.00  0.00    +0.000 A 
ATOM     28  C   UNL     1      -3.077  10.577  16.405  0.00  0.00    +0.000 A 
ATOM     29  C   UNL     1      -3.167   9.867  15.088  0.00  0.00    +0.000 C 
ATOM     30  C   UNL     1      -1.822  10.819  16.972  0.00  0.00    +0.000 A 
ENDBRANCH  23  24
ENDBRANCH  22  23
ENDBRANCH   5  22
TORSDOF 6
ENDMDL
MODEL 6
REMARK VINA RESULT:      -7.9      2.914      7.328
REMARK  Name = 
REMARK  8 active torsions:
REMARK  status: ('A' for Active; 'I' for Inactive)
REMARK    1  A    between atoms: C_2  and  C_3
REMARK    2  A    between atoms: C_3  and  N_4
REMARK    3  A    between atoms: C_5  and  C_6
REMARK    4  A    between atoms: C_11  and  C_12
REMARK    5  A    between atoms: C_17  and  O_18
REMARK    6  A    between atoms: O_18  and  C_19
REMARK    7  A    between atoms: C_19  and  C_20
REMARK    8  A    between atoms: C_24  and  C_25
REMARK                            x       y       z     vdW  Elec       q    Type
REMARK                         _______ _______ _______ _____ _____    ______ ____
ROOT
ATOM      1  N   UNL     1       2.005   6.496  19.912  0.00  0.00    +0.000 N 
ATOM      2  C   UNL     1       2.372   6.516  18.579  0.00  0.00    +0.000 A 
ATOM      3  C   UNL     1       2.067   7.789  18.129  0.00  0.00    +0.000 A 
ATOM      4  C   UNL     1       1.605   8.591  19.211  0.00  0.00    +0.000 A 
ATOM      5  C   UNL     1       1.178   9.935  19.373  0.00  0.00    +0.000 A 
ATOM      6  C   UNL     1       0.875  10.411  20.659  0.00  0.00    +0.000 A 
ATOM      7  C   UNL     1       0.929   9.570  21.762  0.00  0.00    +0.000 A 
ATOM      8  C   UNL     1       1.284   8.230  21.616  0.00  0.00    +0.000 A 
ATOM      9  C   UNL     1       1.622   7.762  20.334  0.00  0.00    +0.000 A 
ENDROOT
BRANCH   2  10
ATOM     10  C   UNL     1       2.887   5.453  17.725  0.00  0.00    +0.000 C 
ATOM     11  O   UNL     1       2.143   4.547  17.358  0.00  0.00    +0.000 OA
ATOM     12  N   UNL     1       4.201   5.532  17.250  0.00  0.00    +0.000 N 
ATOM     13  C   UNL     1       4.683   4.538  16.300  0.00  0.00    +0.000 C 
ATOM     14  C   UNL     1       6.081   4.034  16.671  0.00  0.00    +0.000 C 
ATOM     15  C   UNL     1       7.073   5.127  17.120  0.00  0.00    +0.000 C 
ATOM     16  C   UNL     1       8.209   4.495  17.932  0.00  0.00    +0.000 C 
ATOM     17  C   UNL     1       6.413   6.212  17.972  0.00  0.00    +0.000 C 
ATOM     18  C   UNL     1       5.085   6.680  17.387  0.00  0.00    +0.000 C 
ENDBRANCH   2  10
BRANCH   1  19
ATOM     19  C   UNL     1       2.106   5.367  20.824  0.00  0.00    +0.000 C 
BRANCH  19  21
ATOM     20  C   UNL     1       1.322   3.018  20.947  0.00  0.00    +0.000 C 
ATOM     21  C   UNL     1       1.085   4.299  20.630  0.00  0.00    +0.000 C 
ENDBRANCH  19  21
ENDBRANCH   1  19
BRANCH   5  22
ATOM     22  O   UNL     1       1.050  10.892  18.374  0.00  0.00    +0.000 OA
BRANCH  22  23
ATOM     23  C   UNL     1       2.204  11.715  18.211  0.00  0.00    +0.000 C 
BRANCH  23  24
ATOM     24  C   UNL     1       1.905  13.170  18.447  0.00  0.00    +0.000 A 
ATOM     25  C   UNL     1       0.617  13.622  18.748  0.00  0.00    +0.000 A 
ATOM     26  C   UNL     1       0.365  14.985  18.875  0.00  0.00    +0.000 A 
ATOM     27  C   UNL     1       1.396  15.912  18.690  0.00  0.00    +0.000 A 
ATOM     28  C   UNL     1       2.686  15.478  18.367  0.00  0.00    +0.000 A 
ATOM     29  C   UNL     1       3.802  16.451  18.133  0.00  0.00    +0.000 C 
ATOM     30  C   UNL     1       2.934  14.107  18.252  0.00  0.00    +0.000 A 
ENDBRANCH  23  24
ENDBRANCH  22  23
ENDBRANCH   5  22
TORSDOF 6
ENDMDL
MODEL 7
REMARK VINA RESULT:      -7.9      2.757      7.636
REMARK  Name = 
REMARK  8 active torsions:
REMARK  status: ('A' for Active; 'I' for Inactive)
REMARK    1  A    between atoms: C_2  and  C_3
REMARK    2  A    between atoms: C_3  and  N_4
REMARK    3  A    between atoms: C_5  and  C_6
REMARK    4  A    between atoms: C_11  and  C_12
REMARK    5  A    between atoms: C_17  and  O_18
REMARK    6  A    between atoms: O_18  and  C_19
REMARK    7  A    between atoms: C_19  and  C_20
REMARK    8  A    between atoms: C_24  and  C_25
REMARK                            x       y       z     vdW  Elec       q    Type
REMARK                         _______ _______ _______ _____ _____    ______ ____
ROOT
ATOM      1  N   UNL     1       2.016   6.491  19.929  0.00  0.00    +0.000 N 
ATOM      2  C   UNL     1       2.379   6.520  18.594  0.00  0.00    +0.000 A 
ATOM      3  C   UNL     1       2.071   7.796  18.154  0.00  0.00    +0.000 A 
ATOM      4  C   UNL     1       1.613   8.591  19.243  0.00  0.00    +0.000 A 
ATOM      5  C   UNL     1       1.186   9.934  19.416  0.00  0.00    +0.000 A 
ATOM      6  C   UNL     1       0.887  10.401  20.705  0.00  0.00    +0.000 A 
ATOM      7  C   UNL     1       0.946   9.552  21.803  0.00  0.00    +0.000 A 
ATOM      8  C   UNL     1       1.300   8.213  21.647  0.00  0.00    +0.000 A 
ATOM      9  C   UNL     1       1.635   7.754  20.361  0.00  0.00    +0.000 A 
ENDROOT
BRANCH   2  10
ATOM     10  C   UNL     1       2.891   5.463  17.732  0.00  0.00    +0.000 C 
ATOM     11  O   UNL     1       2.145   4.562  17.357  0.00  0.00    +0.000 OA
ATOM     12  N   UNL     1       4.205   5.543  17.257  0.00  0.00    +0.000 N 
ATOM     13  C   UNL     1       4.684   4.556  16.299  0.00  0.00    +0.000 C 
ATOM     14  C   UNL     1       6.081   4.047  16.665  0.00  0.00    +0.000 C 
ATOM     15  C   UNL     1       7.076   5.133  17.122  0.00  0.00    +0.000 C 
ATOM     16  C   UNL     1       8.211   4.493  17.929  0.00  0.00    +0.000 C 
ATOM     17  C   UNL     1       6.419   6.213  17.984  0.00  0.00    +0.000 C 
ATOM     18  C   UNL     1       5.091   6.689  17.403  0.00  0.00    +0.000 C 
ENDBRANCH   2  10
BRANCH   1  19
ATOM     19  C   UNL     1       2.121   5.356  20.832  0.00  0.00    +0.000 C 
BRANCH  19  21
ATOM     20  C   UNL     1       1.350   3.006  20.659  0.00  0.00    +0.000 C 
ATOM     21  C   UNL     1       1.066   4.317  20.673  0.00  0.00    +0.000 C 
ENDBRANCH  19  21
ENDBRANCH   1  19
BRANCH   5  22
ATOM     22  O   UNL     1       1.054  10.897  18.423  0.00  0.00    +0.000 OA
BRANCH  22  23
ATOM     23  C   UNL     1       0.085  11.901  18.718  0.00  0.00    +0.000 C 
BRANCH  23  24
ATOM     24  C   UNL     1       0.656  13.290  18.630  0.00  0.00    +0.000 A 
ATOM     25  C   UNL     1       2.033  13.522  18.579  0.00  0.00    +0.000 A 
ATOM     26  C   UNL     1       2.525  14.824  18.583  0.00  0.00    +0.000 A 
ATOM     27  C   UNL     1       1.644  15.908  18.650  0.00  0.00    +0.000 A 
ATOM     28  C   UNL     1       0.264  15.694  18.723  0.00  0.00    +0.000 A 
ATOM     29  C   UNL     1      -0.700  16.838  18.826  0.00  0.00    +0.000 C 
ATOM     30  C   UNL     1      -0.223  14.384  18.707  0.00  0.00    +0.000 A 
ENDBRANCH  23  24
ENDBRANCH  22  23
ENDBRANCH   5  22
TORSDOF 6
ENDMDL
MODEL 8
REMARK VINA RESULT:      -7.9      1.825      3.468
REMARK  Name = 
REMARK  8 active torsions:
REMARK  status: ('A' for Active; 'I' for Inactive)
REMARK    1  A    between atoms: C_2  and  C_3
REMARK    2  A    between atoms: C_3  and  N_4
REMARK    3  A    between atoms: C_5  and  C_6
REMARK    4  A    between atoms: C_11  and  C_12
REMARK    5  A    between atoms: C_17  and  O_18
REMARK    6  A    between atoms: O_18  and  C_19
REMARK    7  A    between atoms: C_19  and  C_20
REMARK    8  A    between atoms: C_24  and  C_25
REMARK                            x       y       z     vdW  Elec       q    Type
REMARK                         _______ _______ _______ _____ _____    ______ ____
ROOT
ATOM      1  N   UNL     1       1.627   8.435  20.201  0.00  0.00    +0.000 N 
ATOM      2  C   UNL     1       1.685   9.006  18.943  0.00  0.00    +0.000 A 
ATOM      3  C   UNL     1       1.996   7.970  18.080  0.00  0.00    +0.000 A 
ATOM      4  C   UNL     1       2.030   6.736  18.789  0.00  0.00    +0.000 A 
ATOM      5  C   UNL     1       2.263   5.375  18.458  0.00  0.00    +0.000 A 
ATOM      6  C   UNL     1       2.114   4.391  19.447  0.00  0.00    +0.000 A 
ATOM      7  C   UNL     1       1.801   4.735  20.755  0.00  0.00    +0.000 A 
ATOM      8  C   UNL     1       1.632   6.070  21.116  0.00  0.00    +0.000 A 
ATOM      9  C   UNL     1       1.746   7.054  20.119  0.00  0.00    +0.000 A 
ENDROOT
BRANCH   2  10
ATOM     10  C   UNL     1       1.555  10.398  18.531  0.00  0.00    +0.000 C 
ATOM     11  O   UNL     1       2.532  11.002  18.094  0.00  0.00    +0.000 OA
ATOM     12  N   UNL     1       0.292  11.000  18.543  0.00  0.00    +0.000 N 
ATOM     13  C   UNL     1       0.134  12.350  18.018  0.00  0.00    +0.000 C 
ATOM     14  C   UNL     1      -0.727  13.217  18.940  0.00  0.00    +0.000 C 
ATOM     15  C   UNL     1      -1.984  12.524  19.505  0.00  0.00    +0.000 C 
ATOM     16  C   UNL     1      -2.460  13.257  20.765  0.00  0.00    +0.000 C 
ATOM     17  C   UNL     1      -1.741  11.057  19.862  0.00  0.00    +0.000 C 
ATOM     18  C   UNL     1      -0.972  10.316  18.772  0.00  0.00    +0.000 C 
ENDBRANCH   2  10
BRANCH   1  19
ATOM     19  C   UNL     1       1.355   9.122  21.455  0.00  0.00    +0.000 C 
BRANCH  19  21
ATOM     20  C   UNL     1      -0.453   9.581  23.088  0.00  0.00    +0.000 C 
ATOM     21  C   UNL     1      -0.019   8.931  21.999  0.00  0.00    +0.000 C 
ENDBRANCH  19  21
ENDBRANCH   1  19
BRANCH   5  22
ATOM     22  O   UNL     1       2.603   4.872  17.208  0.00  0.00    +0.000 OA
BRANCH  22  23
ATOM     23  C   UNL     1       3.680   3.937  17.236  0.00  0.00    +0.000 C 
BRANCH  23  24
ATOM     24  C   UNL     1       4.936   4.494  16.624  0.00  0.00    +0.000 A 
ATOM     25  C   UNL     1       5.527   3.920  15.495  0.00  0.00    +0.000 A 
ATOM     26  C   UNL     1       6.735   4.413  15.010  0.00  0.00    +0.000 A 
ATOM     27  C   UNL     1       7.370   5.479  15.656  0.00  0.00    +0.000 A 
ATOM     28  C   UNL     1       6.803   6.052  16.799  0.00  0.00    +0.000 A 
ATOM     29  C   UNL     1       7.478   7.175  17.526  0.00  0.00    +0.000 C 
ATOM     30  C   UNL     1       5.584   5.559  17.274  0.00  0.00    +0.000 A 
ENDBRANCH  23  24
ENDBRANCH  22  23
ENDBRANCH   5  22
TORSDOF 6
ENDMDL
MODEL 9
REMARK VINA RESULT:      -7.9      2.240      7.836
REMARK  Name = 
REMARK  8 active torsions:
REMARK  status: ('A' for Active; 'I' for Inactive)
REMARK    1  A    between atoms: C_2  and  C_3
REMARK    2  A    between atoms: C_3  and  N_4
REMARK    3  A    between atoms: C_5  and  C_6
REMARK    4  A    between atoms: C_11  and  C_12
REMARK    5  A    between atoms: C_17  and  O_18
REMARK    6  A    between atoms: O_18  and  C_19
REMARK    7  A    between atoms: C_19  and  C_20
REMARK    8  A    between atoms: C_24  and  C_25
REMARK                            x       y       z     vdW  Elec       q    Type
REMARK                         _______ _______ _______ _____ _____    ______ ____
ROOT
ATOM      1  N   UNL     1       4.620   5.574  18.597  0.00  0.00    +0.000 N 
ATOM      2  C   UNL     1       5.055   6.367  17.551  0.00  0.00    +0.000 A 
ATOM      3  C   UNL     1       4.094   7.354  17.410  0.00  0.00    +0.000 A 
ATOM      4  C   UNL     1       3.114   7.231  18.435  0.00  0.00    +0.000 A 
ATOM      5  C   UNL     1       1.941   7.936  18.813  0.00  0.00    +0.000 A 
ATOM      6  C   UNL     1       1.260   7.562  19.982  0.00  0.00    +0.000 A 
ATOM      7  C   UNL     1       1.683   6.477  20.738  0.00  0.00    +0.000 A 
ATOM      8  C   UNL     1       2.795   5.731  20.350  0.00  0.00    +0.000 A 
ATOM      9  C   UNL     1       3.499   6.128  19.199  0.00  0.00    +0.000 A 
ENDROOT
BRANCH   2  10
ATOM     10  C   UNL     1       6.209   6.222  16.672  0.00  0.00    +0.000 C 
ATOM     11  O   UNL     1       7.160   6.992  16.778  0.00  0.00    +0.000 OA
ATOM     12  N   UNL     1       6.261   5.142  15.784  0.00  0.00    +0.000 N 
ATOM     13  C   UNL     1       7.463   4.921  14.991  0.00  0.00    +0.000 C 
ATOM     14  C   UNL     1       7.125   4.604  13.532  0.00  0.00    +0.000 C 
ATOM     15  C   UNL     1       5.951   3.623  13.330  0.00  0.00    +0.000 C 
ATOM     16  C   UNL     1       5.381   3.779  11.915  0.00  0.00    +0.000 C 
ATOM     17  C   UNL     1       4.819   3.840  14.335  0.00  0.00    +0.000 C 
ATOM     18  C   UNL     1       5.336   4.019  15.759  0.00  0.00    +0.000 C 
ENDBRANCH   2  10
BRANCH   1  19
ATOM     19  C   UNL     1       5.279   4.385  19.117  0.00  0.00    +0.000 C 
BRANCH  19  21
ATOM     20  C   UNL     1       4.207   2.364  20.073  0.00  0.00    +0.000 C 
ATOM     21  C   UNL     1       4.494   3.123  19.006  0.00  0.00    +0.000 C 
ENDBRANCH  19  21
ENDBRANCH   1  19
BRANCH   5  22
ATOM     22  O   UNL     1       1.378   9.023  18.156  0.00  0.00    +0.000 OA
BRANCH  22  23
ATOM     23  C   UNL     1       0.862  10.024  19.032  0.00  0.00    +0.000 C 
BRANCH  23  24
ATOM     24  C   UNL     1      -0.485  10.528  18.593  0.00  0.00    +0.000 A 
ATOM     25  C   UNL     1      -1.222  11.434  19.361  0.00  0.00    +0.000 A 
ATOM     26  C   UNL     1      -2.501  11.810  18.962  0.00  0.00    +0.000 A 
ATOM     27  C   UNL     1      -3.062  11.276  17.798  0.00  0.00    +0.000 A 
ATOM     28  C   UNL     1      -2.346  10.352  17.029  0.00  0.00    +0.000 A 
ATOM     29  C   UNL     1      -2.935   9.742  15.793  0.00  0.00    +0.000 C 
ATOM     30  C   UNL     1      -1.058   9.987  17.430  0.00  0.00    +0.000 A 
ENDBRANCH  23  24
ENDBRANCH  22  23
ENDBRANCH   5  22
TORSDOF 6
ENDMDL
