MODEL 1
REMARK VINA RESULT:      -6.7      0.000      0.000
REMARK  Name = 
REMARK  6 active torsions:
REMARK  status: ('A' for Active; 'I' for Inactive)
REMARK    1  A    between atoms: C_1  and  O_2
REMARK    2  A    between atoms: O_2  and  C_3
REMARK    3  A    between atoms: C_6  and  N_7
REMARK    4  A    between atoms: C_8  and  C_10
REMARK    5  A    between atoms: C_10  and  C_11
REMARK    6  A    between atoms: C_11  and  C_12
REMARK                            x       y       z     vdW  Elec       q    Type
REMARK                         _______ _______ _______ _____ _____    ______ ____
ROOT
ATOM      1  N   UNL     1       6.793   7.800  17.152  0.00  0.00    +0.000 N 
ATOM      2  C   UNL     1       7.904   8.066  17.935  0.00  0.00    +0.000 C 
ATOM      3  O   UNL     1       8.373   7.313  18.783  0.00  0.00    +0.000 OA
ATOM      4  H   UNL     1       6.461   8.541  16.544  0.00  0.00    +0.000 HD
ENDROOT
BRANCH   1   8
ATOM      5  C   UNL     1       4.808   4.136  16.990  0.00  0.00    +0.000 A 
ATOM      6  C   UNL     1       4.133   5.199  17.561  0.00  0.00    +0.000 A 
ATOM      7  C   UNL     1       4.775   6.435  17.633  0.00  0.00    +0.000 A 
ATOM      8  C   UNL     1       6.067   6.584  17.136  0.00  0.00    +0.000 A 
ATOM      9  C   UNL     1       6.662   5.442  16.598  0.00  0.00    +0.000 A 
ATOM     10  N   UNL     1       6.067   4.224  16.510  0.00  0.00    +0.000 NA
BRANCH   5  12
ATOM     11  C   UNL     1       2.801   3.034  17.458  0.00  0.00    +0.000 C 
ATOM     12  O   UNL     1       4.118   2.942  16.931  0.00  0.00    +0.000 OA
ENDBRANCH   5  12
ENDBRANCH   1   8
BRANCH   2  13
ATOM     13  C   UNL     1       8.521   9.434  17.699  0.00  0.00    +0.000 C 
BRANCH  13  14
ATOM     14  C   UNL     1       9.005   9.982  19.044  0.00  0.00    +0.000 C 
BRANCH  14  15
ATOM     15  C   UNL     1      10.055  11.054  18.954  0.00  0.00    +0.000 A 
ATOM     16  C   UNL     1      10.651  11.564  20.111  0.00  0.00    +0.000 A 
ATOM     17  C   UNL     1      11.686  12.478  19.977  0.00  0.00    +0.000 A 
ATOM     18  N   UNL     1      12.150  12.919  18.789  0.00  0.00    +0.000 NA
ATOM     19  C   UNL     1      11.553  12.422  17.685  0.00  0.00    +0.000 A 
ATOM     20  C   UNL     1      10.512  11.506  17.715  0.00  0.00    +0.000 A 
ENDBRANCH  14  15
ENDBRANCH  13  14
ENDBRANCH   2  13
TORSDOF 5
ENDMDL
MODEL 2
REMARK VINA RESULT:      -6.6      4.847      8.286
REMARK  Name = 
REMARK  6 active torsions:
REMARK  status: ('A' for Active; 'I' for Inactive)
REMARK    1  A    between atoms: C_1  and  O_2
REMARK    2  A    between atoms: O_2  and  C_3
REMARK    3  A    between atoms: C_6  and  N_7
REMARK    4  A    between atoms: C_8  and  C_10
REMARK    5  A    between atoms: C_10  and  C_11
REMARK    6  A    between atoms: C_11  and  C_12
REMARK                            x       y       z     vdW  Elec       q    Type
REMARK                         _______ _______ _______ _____ _____    ______ ____
ROOT
ATOM      1  N   UNL     1       4.179   5.669  18.962  0.00  0.00    +0.000 N 
ATOM      2  C   UNL     1       2.882   6.154  18.959  0.00  0.00    +0.000 C 
ATOM      3  O   UNL     1       2.299   6.619  17.985  0.00  0.00    +0.000 OA
ATOM      4  H   UNL     1       4.570   5.384  19.853  0.00  0.00    +0.000 HD
ENDROOT
BRANCH   1   8
ATOM      5  C   UNL     1       6.740   5.492  15.675  0.00  0.00    +0.000 A 
ATOM      6  C   UNL     1       5.722   4.559  15.737  0.00  0.00    +0.000 A 
ATOM      7  C   UNL     1       4.854   4.592  16.829  0.00  0.00    +0.000 A 
ATOM      8  C   UNL     1       5.017   5.549  17.827  0.00  0.00    +0.000 A 
ATOM      9  C   UNL     1       6.089   6.430  17.673  0.00  0.00    +0.000 A 
ATOM     10  N   UNL     1       6.952   6.428  16.625  0.00  0.00    +0.000 NA
BRANCH   5  12
ATOM     11  C   UNL     1       7.055   4.557  13.557  0.00  0.00    +0.000 C 
ATOM     12  O   UNL     1       7.558   5.423  14.566  0.00  0.00    +0.000 OA
ENDBRANCH   5  12
ENDBRANCH   1   8
BRANCH   2  13
ATOM     13  C   UNL     1       2.195   6.108  20.314  0.00  0.00    +0.000 C 
BRANCH  13  14
ATOM     14  C   UNL     1       1.396   4.804  20.404  0.00  0.00    +0.000 C 
BRANCH  14  15
ATOM     15  C   UNL     1       2.045   3.615  19.753  0.00  0.00    +0.000 A 
ATOM     16  C   UNL     1       1.608   3.160  18.506  0.00  0.00    +0.000 A 
ATOM     17  C   UNL     1       2.299   2.124  17.897  0.00  0.00    +0.000 A 
ATOM     18  N   UNL     1       3.371   1.512  18.444  0.00  0.00    +0.000 NA
ATOM     19  C   UNL     1       3.770   1.959  19.653  0.00  0.00    +0.000 A 
ATOM     20  C   UNL     1       3.145   2.988  20.342  0.00  0.00    +0.000 A 
ENDBRANCH  14  15
ENDBRANCH  13  14
ENDBRANCH   2  13
TORSDOF 5
ENDMDL
MODEL 3
REMARK VINA RESULT:      -6.6      5.361      8.410
REMARK  Name = 
REMARK  6 active torsions:
REMARK  status: ('A' for Active; 'I' for Inactive)
REMARK    1  A    between atoms: C_1  and  O_2
REMARK    2  A    between atoms: O_2  and  C_3
REMARK    3  A    between atoms: C_6  and  N_7
REMARK    4  A    between atoms: C_8  and  C_10
REMARK    5  A    between atoms: C_10  and  C_11
REMARK    6  A    between atoms: C_11  and  C_12
REMARK                            x       y       z     vdW  Elec       q    Type
REMARK                         _______ _______ _______ _____ _____    ______ ____
ROOT
ATOM      1  N   UNL     1       5.265   5.086  17.679  0.00  0.00    +0.000 N 
ATOM      2  C   UNL     1       4.441   6.119  18.095  0.00  0.00    +0.000 C 
ATOM      3  O   UNL     1       4.100   7.077  17.409  0.00  0.00    +0.000 OA
ATOM      4  H   UNL     1       5.534   4.395  18.370  0.00  0.00    +0.000 HD
ENDROOT
BRANCH   1   8
ATOM      5  C   UNL     1       6.937   4.718  13.876  0.00  0.00    +0.000 A 
ATOM      6  C   UNL     1       5.692   4.153  14.080  0.00  0.00    +0.000 A 
ATOM      7  C   UNL     1       5.111   4.257  15.344  0.00  0.00    +0.000 A 
ATOM      8  C   UNL     1       5.779   4.918  16.371  0.00  0.00    +0.000 A 
ATOM      9  C   UNL     1       7.039   5.434  16.061  0.00  0.00    +0.000 A 
ATOM     10  N   UNL     1       7.633   5.354  14.843  0.00  0.00    +0.000 NA
BRANCH   5  12
ATOM     11  C   UNL     1       6.852   3.553  11.852  0.00  0.00    +0.000 C 
ATOM     12  O   UNL     1       7.456   4.599  12.603  0.00  0.00    +0.000 OA
ENDBRANCH   5  12
ENDBRANCH   1   8
BRANCH   2  13
ATOM     13  C   UNL     1       3.987   6.011  19.542  0.00  0.00    +0.000 C 
BRANCH  13  14
ATOM     14  C   UNL     1       2.456   5.993  19.565  0.00  0.00    +0.000 C 
BRANCH  14  15
ATOM     15  C   UNL     1       1.837   4.626  19.637  0.00  0.00    +0.000 A 
ATOM     16  C   UNL     1       1.481   3.944  18.469  0.00  0.00    +0.000 A 
ATOM     17  C   UNL     1       1.006   2.646  18.576  0.00  0.00    +0.000 A 
ATOM     18  N   UNL     1       0.853   1.996  19.750  0.00  0.00    +0.000 NA
ATOM     19  C   UNL     1       1.193   2.676  20.866  0.00  0.00    +0.000 A 
ATOM     20  C   UNL     1       1.675   3.976  20.862  0.00  0.00    +0.000 A 
ENDBRANCH  14  15
ENDBRANCH  13  14
ENDBRANCH   2  13
TORSDOF 5
ENDMDL
MODEL 4
REMARK VINA RESULT:      -6.6      5.334      7.673
REMARK  Name = 
REMARK  6 active torsions:
REMARK  status: ('A' for Active; 'I' for Inactive)
REMARK    1  A    between atoms: C_1  and  O_2
REMARK    2  A    between atoms: O_2  and  C_3
REMARK    3  A    between atoms: C_6  and  N_7
REMARK    4  A    between atoms: C_8  and  C_10
REMARK    5  A    between atoms: C_10  and  C_11
REMARK    6  A    between atoms: C_11  and  C_12
REMARK                            x       y       z     vdW  Elec       q    Type
REMARK                         _______ _______ _______ _____ _____    ______ ____
ROOT
ATOM      1  N   UNL     1       3.237   6.091  18.897  0.00  0.00    +0.000 N 
ATOM      2  C   UNL     1       2.701   4.830  18.694  0.00  0.00    +0.000 C 
ATOM      3  O   UNL     1       1.506   4.573  18.593  0.00  0.00    +0.000 OA
ATOM      4  H   UNL     1       4.238   6.155  19.043  0.00  0.00    +0.000 HD
ENDROOT
BRANCH   1   8
ATOM      5  C   UNL     1       1.015   9.606  19.199  0.00  0.00    +0.000 A 
ATOM      6  C   UNL     1       1.587   9.320  17.973  0.00  0.00    +0.000 A 
ATOM      7  C   UNL     1       2.341   8.154  17.846  0.00  0.00    +0.000 A 
ATOM      8  C   UNL     1       2.504   7.301  18.934  0.00  0.00    +0.000 A 
ATOM      9  C   UNL     1       1.898   7.696  20.128  0.00  0.00    +0.000 A 
ATOM     10  N   UNL     1       1.158   8.823  20.289  0.00  0.00    +0.000 NA
BRANCH   5  12
ATOM     11  C   UNL     1       1.054  11.942  19.127  0.00  0.00    +0.000 C 
ATOM     12  O   UNL     1       0.268  10.765  19.262  0.00  0.00    +0.000 OA
ENDBRANCH   5  12
ENDBRANCH   1   8
BRANCH   2  13
ATOM     13  C   UNL     1       3.733   3.715  18.637  0.00  0.00    +0.000 C 
BRANCH  13  14
ATOM     14  C   UNL     1       4.036   3.415  17.166  0.00  0.00    +0.000 C 
BRANCH  14  15
ATOM     15  C   UNL     1       5.275   4.072  16.626  0.00  0.00    +0.000 A 
ATOM     16  C   UNL     1       5.481   4.176  15.247  0.00  0.00    +0.000 A 
ATOM     17  C   UNL     1       6.587   4.877  14.792  0.00  0.00    +0.000 A 
ATOM     18  N   UNL     1       7.494   5.460  15.604  0.00  0.00    +0.000 NA
ATOM     19  C   UNL     1       7.282   5.338  16.932  0.00  0.00    +0.000 A 
ATOM     20  C   UNL     1       6.208   4.657  17.484  0.00  0.00    +0.000 A 
ENDBRANCH  14  15
ENDBRANCH  13  14
ENDBRANCH   2  13
TORSDOF 5
ENDMDL
MODEL 5
REMARK VINA RESULT:      -6.6      1.026      1.636
REMARK  Name = 
REMARK  6 active torsions:
REMARK  status: ('A' for Active; 'I' for Inactive)
REMARK    1  A    between atoms: C_1  and  O_2
REMARK    2  A    between atoms: O_2  and  C_3
REMARK    3  A    between atoms: C_6  and  N_7
REMARK    4  A    between atoms: C_8  and  C_10
REMARK    5  A    between atoms: C_10  and  C_11
REMARK    6  A    between atoms: C_11  and  C_12
REMARK                            x       y       z     vdW  Elec       q    Type
REMARK                         _______ _______ _______ _____ _____    ______ ____
ROOT
ATOM      1  N   UNL     1       6.552   7.527  17.013  0.00  0.00    +0.000 N 
ATOM      2  C   UNL     1       7.675   7.804  17.774  0.00  0.00    +0.000 C 
ATOM      3  O   UNL     1       8.166   7.058  18.616  0.00  0.00    +0.000 OA
ATOM      4  H   UNL     1       6.204   8.263  16.408  0.00  0.00    +0.000 HD
ENDROOT
BRANCH   1   8
ATOM      5  C   UNL     1       4.321   4.007  17.169  0.00  0.00    +0.000 A 
ATOM      6  C   UNL     1       5.448   4.010  16.368  0.00  0.00    +0.000 A 
ATOM      7  C   UNL     1       6.210   5.175  16.293  0.00  0.00    +0.000 A 
ATOM      8  C   UNL     1       5.836   6.306  17.014  0.00  0.00    +0.000 A 
ATOM      9  C   UNL     1       4.671   6.199  17.776  0.00  0.00    +0.000 A 
ATOM     10  N   UNL     1       3.906   5.082  17.874  0.00  0.00    +0.000 NA
BRANCH   5  12
ATOM     11  C   UNL     1       2.329   2.965  17.806  0.00  0.00    +0.000 C 
ATOM     12  O   UNL     1       3.615   2.823  17.218  0.00  0.00    +0.000 OA
ENDBRANCH   5  12
ENDBRANCH   1   8
BRANCH   2  13
ATOM     13  C   UNL     1       8.278   9.176  17.521  0.00  0.00    +0.000 C 
BRANCH  13  14
ATOM     14  C   UNL     1       8.884   9.684  18.833  0.00  0.00    +0.000 C 
BRANCH  14  15
ATOM     15  C   UNL     1       9.580  11.013  18.739  0.00  0.00    +0.000 A 
ATOM     16  C   UNL     1       9.085  12.016  17.900  0.00  0.00    +0.000 A 
ATOM     17  C   UNL     1       9.698  13.260  17.920  0.00  0.00    +0.000 A 
ATOM     18  N   UNL     1      10.760  13.563  18.696  0.00  0.00    +0.000 NA
ATOM     19  C   UNL     1      11.228  12.576  19.490  0.00  0.00    +0.000 A 
ATOM     20  C   UNL     1      10.685  11.302  19.541  0.00  0.00    +0.000 A 
ENDBRANCH  14  15
ENDBRANCH  13  14
ENDBRANCH   2  13
TORSDOF 5
ENDMDL
MODEL 6
REMARK VINA RESULT:      -6.5      1.430      2.001
REMARK  Name = 
REMARK  6 active torsions:
REMARK  status: ('A' for Active; 'I' for Inactive)
REMARK    1  A    between atoms: C_1  and  O_2
REMARK    2  A    between atoms: O_2  and  C_3
REMARK    3  A    between atoms: C_6  and  N_7
REMARK    4  A    between atoms: C_8  and  C_10
REMARK    5  A    between atoms: C_10  and  C_11
REMARK    6  A    between atoms: C_11  and  C_12
REMARK                            x       y       z     vdW  Elec       q    Type
REMARK                         _______ _______ _______ _____ _____    ______ ____
ROOT
ATOM      1  N   UNL     1       7.076   6.311  18.406  0.00  0.00    +0.000 N 
ATOM      2  C   UNL     1       7.416   7.501  17.784  0.00  0.00    +0.000 C 
ATOM      3  O   UNL     1       6.890   7.948  16.769  0.00  0.00    +0.000 OA
ATOM      4  H   UNL     1       7.643   6.017  19.194  0.00  0.00    +0.000 HD
ENDROOT
BRANCH   1   8
ATOM      5  C   UNL     1       3.843   3.851  17.465  0.00  0.00    +0.000 A 
ATOM      6  C   UNL     1       4.962   3.765  16.659  0.00  0.00    +0.000 A 
ATOM      7  C   UNL     1       6.056   4.580  16.947  0.00  0.00    +0.000 A 
ATOM      8  C   UNL     1       6.013   5.457  18.028  0.00  0.00    +0.000 A 
ATOM      9  C   UNL     1       4.827   5.476  18.764  0.00  0.00    +0.000 A 
ATOM     10  N   UNL     1       3.744   4.697  18.513  0.00  0.00    +0.000 NA
BRANCH   5  12
ATOM     11  C   UNL     1       2.532   2.042  18.149  0.00  0.00    +0.000 C 
ATOM     12  O   UNL     1       2.797   3.011  17.143  0.00  0.00    +0.000 OA
ENDBRANCH   5  12
ENDBRANCH   1   8
BRANCH   2  13
ATOM     13  C   UNL     1       8.565   8.245  18.445  0.00  0.00    +0.000 C 
BRANCH  13  14
ATOM     14  C   UNL     1       8.431   9.733  18.105  0.00  0.00    +0.000 C 
BRANCH  14  15
ATOM     15  C   UNL     1       9.445  10.628  18.762  0.00  0.00    +0.000 A 
ATOM     16  C   UNL     1      10.359  11.352  17.991  0.00  0.00    +0.000 A 
ATOM     17  C   UNL     1      11.209  12.241  18.630  0.00  0.00    +0.000 A 
ATOM     18  N   UNL     1      11.219  12.445  19.964  0.00  0.00    +0.000 NA
ATOM     19  C   UNL     1      10.336  11.727  20.691  0.00  0.00    +0.000 A 
ATOM     20  C   UNL     1       9.447  10.814  20.145  0.00  0.00    +0.000 A 
ENDBRANCH  14  15
ENDBRANCH  13  14
ENDBRANCH   2  13
TORSDOF 5
ENDMDL
MODEL 7
REMARK VINA RESULT:      -6.5      0.914      1.277
REMARK  Name = 
REMARK  6 active torsions:
REMARK  status: ('A' for Active; 'I' for Inactive)
REMARK    1  A    between atoms: C_1  and  O_2
REMARK    2  A    between atoms: O_2  and  C_3
REMARK    3  A    between atoms: C_6  and  N_7
REMARK    4  A    between atoms: C_8  and  C_10
REMARK    5  A    between atoms: C_10  and  C_11
REMARK    6  A    between atoms: C_11  and  C_12
REMARK                            x       y       z     vdW  Elec       q    Type
REMARK                         _______ _______ _______ _____ _____    ______ ____
ROOT
ATOM      1  N   UNL     1       6.511   7.455  17.161  0.00  0.00    +0.000 N 
ATOM      2  C   UNL     1       7.673   7.755  17.851  0.00  0.00    +0.000 C 
ATOM      3  O   UNL     1       8.217   7.028  18.677  0.00  0.00    +0.000 OA
ATOM      4  H   UNL     1       6.122   8.177  16.564  0.00  0.00    +0.000 HD
ENDROOT
BRANCH   1   8
ATOM      5  C   UNL     1       4.553   3.774  17.200  0.00  0.00    +0.000 A 
ATOM      6  C   UNL     1       4.031   4.779  17.992  0.00  0.00    +0.000 A 
ATOM      7  C   UNL     1       4.669   6.019  18.003  0.00  0.00    +0.000 A 
ATOM      8  C   UNL     1       5.805   6.230  17.226  0.00  0.00    +0.000 A 
ATOM      9  C   UNL     1       6.258   5.141  16.479  0.00  0.00    +0.000 A 
ATOM     10  N   UNL     1       5.662   3.922  16.444  0.00  0.00    +0.000 NA
BRANCH   5  12
ATOM     11  C   UNL     1       3.326   2.262  18.492  0.00  0.00    +0.000 C 
ATOM     12  O   UNL     1       3.872   2.574  17.217  0.00  0.00    +0.000 OA
ENDBRANCH   5  12
ENDBRANCH   1   8
BRANCH   2  13
ATOM     13  C   UNL     1       8.250   9.126  17.539  0.00  0.00    +0.000 C 
BRANCH  13  14
ATOM     14  C   UNL     1       8.932   9.660  18.802  0.00  0.00    +0.000 C 
BRANCH  14  15
ATOM     15  C   UNL     1       9.572  11.012  18.656  0.00  0.00    +0.000 A 
ATOM     16  C   UNL     1       8.971  12.002  17.873  0.00  0.00    +0.000 A 
ATOM     17  C   UNL     1       9.542  13.265  17.846  0.00  0.00    +0.000 A 
ATOM     18  N   UNL     1      10.660  13.599  18.525  0.00  0.00    +0.000 NA
ATOM     19  C   UNL     1      11.231  12.625  19.266  0.00  0.00    +0.000 A 
ATOM     20  C   UNL     1      10.736  11.333  19.356  0.00  0.00    +0.000 A 
ENDBRANCH  14  15
ENDBRANCH  13  14
ENDBRANCH   2  13
TORSDOF 5
ENDMDL
MODEL 8
REMARK VINA RESULT:      -6.5      5.473      7.697
REMARK  Name = 
REMARK  6 active torsions:
REMARK  status: ('A' for Active; 'I' for Inactive)
REMARK    1  A    between atoms: C_1  and  O_2
REMARK    2  A    between atoms: O_2  and  C_3
REMARK    3  A    between atoms: C_6  and  N_7
REMARK    4  A    between atoms: C_8  and  C_10
REMARK    5  A    between atoms: C_10  and  C_11
REMARK    6  A    between atoms: C_11  and  C_12
REMARK                            x       y       z     vdW  Elec       q    Type
REMARK                         _______ _______ _______ _____ _____    ______ ____
ROOT
ATOM      1  N   UNL     1       3.125   6.113  19.057  0.00  0.00    +0.000 N 
ATOM      2  C   UNL     1       2.579   4.854  18.864  0.00  0.00    +0.000 C 
ATOM      3  O   UNL     1       1.383   4.609  18.744  0.00  0.00    +0.000 OA
ATOM      4  H   UNL     1       4.124   6.169  19.221  0.00  0.00    +0.000 HD
ENDROOT
BRANCH   1   8
ATOM      5  C   UNL     1       0.951   9.665  19.266  0.00  0.00    +0.000 A 
ATOM      6  C   UNL     1       1.459   9.303  18.033  0.00  0.00    +0.000 A 
ATOM      7  C   UNL     1       2.195   8.123  17.935  0.00  0.00    +0.000 A 
ATOM      8  C   UNL     1       2.405   7.332  19.061  0.00  0.00    +0.000 A 
ATOM      9  C   UNL     1       1.864   7.801  20.260  0.00  0.00    +0.000 A 
ATOM     10  N   UNL     1       1.142   8.943  20.391  0.00  0.00    +0.000 NA
BRANCH   5  12
ATOM     11  C   UNL     1       0.972  11.975  18.913  0.00  0.00    +0.000 C 
ATOM     12  O   UNL     1       0.218  10.833  19.301  0.00  0.00    +0.000 OA
ENDBRANCH   5  12
ENDBRANCH   1   8
BRANCH   2  13
ATOM     13  C   UNL     1       3.599   3.728  18.845  0.00  0.00    +0.000 C 
BRANCH  13  14
ATOM     14  C   UNL     1       3.919   3.395  17.385  0.00  0.00    +0.000 C 
BRANCH  14  15
ATOM     15  C   UNL     1       5.169   4.033  16.846  0.00  0.00    +0.000 A 
ATOM     16  C   UNL     1       6.146   4.527  17.716  0.00  0.00    +0.000 A 
ATOM     17  C   UNL     1       7.327   5.016  17.178  0.00  0.00    +0.000 A 
ATOM     18  N   UNL     1       7.590   5.059  15.855  0.00  0.00    +0.000 NA
ATOM     19  C   UNL     1       6.628   4.588  15.033  0.00  0.00    +0.000 A 
ATOM     20  C   UNL     1       5.416   4.079  15.473  0.00  0.00    +0.000 A 
ENDBRANCH  14  15
ENDBRANCH  13  14
ENDBRANCH   2  13
TORSDOF 5
ENDMDL
MODEL 9
REMARK VINA RESULT:      -6.5      1.482      1.866
REMARK  Name = 
REMARK  6 active torsions:
REMARK  status: ('A' for Active; 'I' for Inactive)
REMARK    1  A    between atoms: C_1  and  O_2
REMARK    2  A    between atoms: O_2  and  C_3
REMARK    3  A    between atoms: C_6  and  N_7
REMARK    4  A    between atoms: C_8  and  C_10
REMARK    5  A    between atoms: C_10  and  C_11
REMARK    6  A    between atoms: C_11  and  C_12
REMARK                            x       y       z     vdW  Elec       q    Type
REMARK                         _______ _______ _______ _____ _____    ______ ____
ROOT
ATOM      1  N   UNL     1       5.847   7.231  17.179  0.00  0.00    +0.000 N 
ATOM      2  C   UNL     1       7.133   7.249  17.692  0.00  0.00    +0.000 C 
ATOM      3  O   UNL     1       7.678   6.317  18.275  0.00  0.00    +0.000 OA
ATOM      4  H   UNL     1       5.487   8.096  16.789  0.00  0.00    +0.000 HD
ENDROOT
BRANCH   1   8
ATOM      5  C   UNL     1       3.169   4.035  17.267  0.00  0.00    +0.000 A 
ATOM      6  C   UNL     1       4.361   3.847  16.593  0.00  0.00    +0.000 A 
ATOM      7  C   UNL     1       5.273   4.901  16.542  0.00  0.00    +0.000 A 
ATOM      8  C   UNL     1       4.980   6.112  17.163  0.00  0.00    +0.000 A 
ATOM      9  C   UNL     1       3.741   6.200  17.800  0.00  0.00    +0.000 A 
ATOM     10  N   UNL     1       2.830   5.195  17.870  0.00  0.00    +0.000 NA
BRANCH   5  12
ATOM     11  C   UNL     1       1.727   2.744  18.576  0.00  0.00    +0.000 C 
ATOM     12  O   UNL     1       2.313   2.954  17.298  0.00  0.00    +0.000 OA
ENDBRANCH   5  12
ENDBRANCH   1   8
BRANCH   2  13
ATOM     13  C   UNL     1       7.859   8.572  17.514  0.00  0.00    +0.000 C 
BRANCH  13  14
ATOM     14  C   UNL     1       8.722   8.817  18.756  0.00  0.00    +0.000 C 
BRANCH  14  15
ATOM     15  C   UNL     1       9.094  10.253  18.998  0.00  0.00    +0.000 A 
ATOM     16  C   UNL     1       9.467  10.685  20.273  0.00  0.00    +0.000 A 
ATOM     17  C   UNL     1       9.899  11.993  20.432  0.00  0.00    +0.000 A 
ATOM     18  N   UNL     1       9.971  12.888  19.423  0.00  0.00    +0.000 NA
ATOM     19  C   UNL     1       9.596  12.453  18.202  0.00  0.00    +0.000 A 
ATOM     20  C   UNL     1       9.149  11.166  17.943  0.00  0.00    +0.000 A 
ENDBRANCH  14  15
ENDBRANCH  13  14
ENDBRANCH   2  13
TORSDOF 5
ENDMDL
