MODEL 1
REMARK VINA RESULT:      -8.3      0.000      0.000
REMARK  Name = 
REMARK  13 active torsions:
REMARK  status: ('A' for Active; 'I' for Inactive)
REMARK    1  A    between atoms: C_1  and  C_2
REMARK    2  A    between atoms: C_2  and  N_3
REMARK    3  A    between atoms: N_3  and  C_4
REMARK    4  A    between atoms: N_3  and  C_6
REMARK    5  A    between atoms: C_4  and  C_5
REMARK    6  A    between atoms: C_6  and  C_7
REMARK    7  A    between atoms: C_7  and  N_8
REMARK    8  A    between atoms: N_8  and  C_9
REMARK    9  A    between atoms: C_11  and  C_12
REMARK   10  A    between atoms: C_13  and  C_14
REMARK   11  A    between atoms: C_17  and  C_18
REMARK   12  A    between atoms: C_18  and  C_19
REMARK   13  A    between atoms: C_18  and  C_20
REMARK                            x       y       z     vdW  Elec       q    Type
REMARK                         _______ _______ _______ _____ _____    ______ ____
ROOT
ATOM      1  C   UNL     1       6.292   4.791  18.071  0.00  0.00    +0.000 A 
ATOM      2  N   UNL     1       6.971   5.797  18.646  0.00  0.00    +0.000 NA
ATOM      3  C   UNL     1       7.634   6.634  17.845  0.00  0.00    +0.000 A 
ATOM      4  N   UNL     1       7.692   6.561  16.514  0.00  0.00    +0.000 NA
ATOM      5  C   UNL     1       7.036   5.544  15.945  0.00  0.00    +0.000 A 
ATOM      6  C   UNL     1       7.068   5.436  14.562  0.00  0.00    +0.000 A 
ATOM      7  C   UNL     1       6.390   4.424  13.878  0.00  0.00    +0.000 A 
ATOM      8  C   UNL     1       5.657   3.486  14.590  0.00  0.00    +0.000 A 
ATOM      9  C   UNL     1       5.617   3.563  15.981  0.00  0.00    +0.000 A 
ATOM     10  C   UNL     1       6.302   4.596  16.674  0.00  0.00    +0.000 A 
ENDROOT
BRANCH   1  11
ATOM     11  N   UNL     1       5.578   3.901  18.912  0.00  0.00    +0.000 N 
ATOM     12  H   UNL     1       4.994   3.308  18.322  0.00  0.00    +0.000 HD
BRANCH  11  13
ATOM     13  C   UNL     1       4.680   4.600  19.842  0.00  0.00    +0.000 C 
BRANCH  13  14
ATOM     14  C   UNL     1       3.196   4.304  19.495  0.00  0.00    +0.000 C 
BRANCH  14  15
ATOM     15  N   UNL     1       2.744   4.879  18.197  0.00  0.00    +0.000 NA
BRANCH  15  17
ATOM     16  C   UNL     1       1.124   2.966  18.526  0.00  0.00    +0.000 C 
ATOM     17  C   UNL     1       1.571   4.154  17.680  0.00  0.00    +0.000 C 
ENDBRANCH  15  17
BRANCH  15  18
ATOM     18  C   UNL     1       2.546   6.337  18.313  0.00  0.00    +0.000 C 
ATOM     19  C   UNL     1       3.589   7.217  17.627  0.00  0.00    +0.000 C 
ENDBRANCH  15  18
ENDBRANCH  14  15
ENDBRANCH  13  14
ENDBRANCH  11  13
ENDBRANCH   1  11
BRANCH   3  20
ATOM     20  C   UNL     1       8.236   7.791  18.487  0.00  0.00    +0.000 C 
ATOM     21  C   UNL     1       8.188   9.016  17.942  0.00  0.00    +0.000 C 
BRANCH  21  22
ATOM     22  C   UNL     1       8.840  10.203  18.517  0.00  0.00    +0.000 A 
ATOM     23  C   UNL     1       8.801  11.406  17.802  0.00  0.00    +0.000 A 
ATOM     24  C   UNL     1       9.383  12.568  18.321  0.00  0.00    +0.000 A 
ATOM     25  C   UNL     1      10.015  12.557  19.572  0.00  0.00    +0.000 A 
ATOM     26  C   UNL     1      10.055  11.352  20.285  0.00  0.00    +0.000 A 
ATOM     27  C   UNL     1       9.467  10.191  19.769  0.00  0.00    +0.000 A 
BRANCH  25  28
ATOM     28  C   UNL     1      10.607  13.836  20.137  0.00  0.00    +0.000 C 
ATOM     29  C   UNL     1      11.896  14.222  19.406  0.00  0.00    +0.000 C 
ATOM     30  C   UNL     1       9.605  14.993  20.114  0.00  0.00    +0.000 C 
ENDBRANCH  25  28
ENDBRANCH  21  22
ENDBRANCH   3  20
TORSDOF 9
ENDMDL
MODEL 2
REMARK VINA RESULT:      -8.2      0.875      1.618
REMARK  Name = 
REMARK  13 active torsions:
REMARK  status: ('A' for Active; 'I' for Inactive)
REMARK    1  A    between atoms: C_1  and  C_2
REMARK    2  A    between atoms: C_2  and  N_3
REMARK    3  A    between atoms: N_3  and  C_4
REMARK    4  A    between atoms: N_3  and  C_6
REMARK    5  A    between atoms: C_4  and  C_5
REMARK    6  A    between atoms: C_6  and  C_7
REMARK    7  A    between atoms: C_7  and  N_8
REMARK    8  A    between atoms: N_8  and  C_9
REMARK    9  A    between atoms: C_11  and  C_12
REMARK   10  A    between atoms: C_13  and  C_14
REMARK   11  A    between atoms: C_17  and  C_18
REMARK   12  A    between atoms: C_18  and  C_19
REMARK   13  A    between atoms: C_18  and  C_20
REMARK                            x       y       z     vdW  Elec       q    Type
REMARK                         _______ _______ _______ _____ _____    ______ ____
ROOT
ATOM      1  C   UNL     1       6.401   4.755  18.088  0.00  0.00    +0.000 A 
ATOM      2  N   UNL     1       7.049   5.787  18.656  0.00  0.00    +0.000 NA
ATOM      3  C   UNL     1       7.647   6.663  17.846  0.00  0.00    +0.000 A 
ATOM      4  N   UNL     1       7.669   6.607  16.513  0.00  0.00    +0.000 NA
ATOM      5  C   UNL     1       7.046   5.567  15.951  0.00  0.00    +0.000 A 
ATOM      6  C   UNL     1       7.042   5.476  14.566  0.00  0.00    +0.000 A 
ATOM      7  C   UNL     1       6.392   4.441  13.890  0.00  0.00    +0.000 A 
ATOM      8  C   UNL     1       5.726   3.460  14.611  0.00  0.00    +0.000 A 
ATOM      9  C   UNL     1       5.724   3.520  16.003  0.00  0.00    +0.000 A 
ATOM     10  C   UNL     1       6.380   4.577  16.689  0.00  0.00    +0.000 A 
ENDROOT
BRANCH   1  11
ATOM     11  N   UNL     1       5.755   3.823  18.938  0.00  0.00    +0.000 N 
ATOM     12  H   UNL     1       5.238   3.167  18.353  0.00  0.00    +0.000 HD
BRANCH  11  13
ATOM     13  C   UNL     1       4.782   4.458  19.837  0.00  0.00    +0.000 C 
BRANCH  13  14
ATOM     14  C   UNL     1       3.361   4.431  19.210  0.00  0.00    +0.000 C 
BRANCH  14  15
ATOM     15  N   UNL     1       2.709   3.091  19.229  0.00  0.00    +0.000 NA
BRANCH  15  17
ATOM     16  C   UNL     1       1.363   2.874  21.358  0.00  0.00    +0.000 C 
ATOM     17  C   UNL     1       2.648   2.556  20.600  0.00  0.00    +0.000 C 
ENDBRANCH  15  17
BRANCH  15  18
ATOM     18  C   UNL     1       1.403   3.136  18.543  0.00  0.00    +0.000 C 
ATOM     19  C   UNL     1       1.213   4.260  17.526  0.00  0.00    +0.000 C 
ENDBRANCH  15  18
ENDBRANCH  14  15
ENDBRANCH  13  14
ENDBRANCH  11  13
ENDBRANCH   1  11
BRANCH   3  20
ATOM     20  C   UNL     1       8.212   7.840  18.485  0.00  0.00    +0.000 C 
ATOM     21  C   UNL     1       8.182   9.051  17.908  0.00  0.00    +0.000 C 
BRANCH  21  22
ATOM     22  C   UNL     1       8.800  10.256  18.481  0.00  0.00    +0.000 A 
ATOM     23  C   UNL     1       9.437  10.160  19.724  0.00  0.00    +0.000 A 
ATOM     24  C   UNL     1      10.063  11.273  20.298  0.00  0.00    +0.000 A 
ATOM     25  C   UNL     1      10.073  12.510  19.638  0.00  0.00    +0.000 A 
ATOM     26  C   UNL     1       9.433  12.604  18.395  0.00  0.00    +0.000 A 
ATOM     27  C   UNL     1       8.813  11.489  17.819  0.00  0.00    +0.000 A 
BRANCH  25  28
ATOM     28  C   UNL     1      10.790  13.697  20.256  0.00  0.00    +0.000 C 
ATOM     29  C   UNL     1      11.405  14.596  19.179  0.00  0.00    +0.000 C 
ATOM     30  C   UNL     1       9.875  14.505  21.179  0.00  0.00    +0.000 C 
ENDBRANCH  25  28
ENDBRANCH  21  22
ENDBRANCH   3  20
TORSDOF 9
ENDMDL
MODEL 3
REMARK VINA RESULT:      -8.0      0.975      1.651
REMARK  Name = 
REMARK  13 active torsions:
REMARK  status: ('A' for Active; 'I' for Inactive)
REMARK    1  A    between atoms: C_1  and  C_2
REMARK    2  A    between atoms: C_2  and  N_3
REMARK    3  A    between atoms: N_3  and  C_4
REMARK    4  A    between atoms: N_3  and  C_6
REMARK    5  A    between atoms: C_4  and  C_5
REMARK    6  A    between atoms: C_6  and  C_7
REMARK    7  A    between atoms: C_7  and  N_8
REMARK    8  A    between atoms: N_8  and  C_9
REMARK    9  A    between atoms: C_11  and  C_12
REMARK   10  A    between atoms: C_13  and  C_14
REMARK   11  A    between atoms: C_17  and  C_18
REMARK   12  A    between atoms: C_18  and  C_19
REMARK   13  A    between atoms: C_18  and  C_20
REMARK                            x       y       z     vdW  Elec       q    Type
REMARK                         _______ _______ _______ _____ _____    ______ ____
ROOT
ATOM      1  C   UNL     1       6.137   5.076  18.298  0.00  0.00    +0.000 A 
ATOM      2  N   UNL     1       6.899   6.058  18.807  0.00  0.00    +0.000 NA
ATOM      3  C   UNL     1       7.638   6.773  17.956  0.00  0.00    +0.000 A 
ATOM      4  N   UNL     1       7.697   6.599  16.635  0.00  0.00    +0.000 NA
ATOM      5  C   UNL     1       6.957   5.605  16.133  0.00  0.00    +0.000 A 
ATOM      6  C   UNL     1       6.988   5.394  14.761  0.00  0.00    +0.000 A 
ATOM      7  C   UNL     1       6.227   4.399  14.144  0.00  0.00    +0.000 A 
ATOM      8  C   UNL     1       5.410   3.582  14.912  0.00  0.00    +0.000 A 
ATOM      9  C   UNL     1       5.369   3.764  16.293  0.00  0.00    +0.000 A 
ATOM     10  C   UNL     1       6.139   4.780  16.918  0.00  0.00    +0.000 A 
ENDROOT
BRANCH   1  11
ATOM     11  N   UNL     1       5.342   4.316  19.191  0.00  0.00    +0.000 N 
ATOM     12  H   UNL     1       5.070   3.454  18.718  0.00  0.00    +0.000 HD
BRANCH  11  13
ATOM     13  C   UNL     1       4.103   5.007  19.574  0.00  0.00    +0.000 C 
BRANCH  13  14
ATOM     14  C   UNL     1       3.180   4.061  20.389  0.00  0.00    +0.000 C 
BRANCH  14  15
ATOM     15  N   UNL     1       1.846   3.824  19.770  0.00  0.00    +0.000 NA
BRANCH  15  17
ATOM     16  C   UNL     1       1.392   4.403  17.351  0.00  0.00    +0.000 C 
ATOM     17  C   UNL     1       1.985   3.424  18.359  0.00  0.00    +0.000 C 
ENDBRANCH  15  17
BRANCH  15  18
ATOM     18  C   UNL     1       1.052   2.884  20.584  0.00  0.00    +0.000 C 
ATOM     19  C   UNL     1       1.621   2.531  21.957  0.00  0.00    +0.000 C 
ENDBRANCH  15  18
ENDBRANCH  14  15
ENDBRANCH  13  14
ENDBRANCH  11  13
ENDBRANCH   1  11
BRANCH   3  20
ATOM     20  C   UNL     1       8.336   7.916  18.521  0.00  0.00    +0.000 C 
ATOM     21  C   UNL     1       8.187   9.157  18.033  0.00  0.00    +0.000 C 
BRANCH  21  22
ATOM     22  C   UNL     1       8.922  10.333  18.524  0.00  0.00    +0.000 A 
ATOM     23  C   UNL     1       8.875  11.517  17.778  0.00  0.00    +0.000 A 
ATOM     24  C   UNL     1       9.536  12.669  18.218  0.00  0.00    +0.000 A 
ATOM     25  C   UNL     1      10.256  12.668  19.421  0.00  0.00    +0.000 A 
ATOM     26  C   UNL     1      10.304  11.482  20.165  0.00  0.00    +0.000 A 
ATOM     27  C   UNL     1       9.637  10.331  19.727  0.00  0.00    +0.000 A 
BRANCH  25  28
ATOM     28  C   UNL     1      10.934  13.938  19.903  0.00  0.00    +0.000 C 
ATOM     29  C   UNL     1      11.151  14.924  18.751  0.00  0.00    +0.000 C 
ATOM     30  C   UNL     1      10.165  14.603  21.047  0.00  0.00    +0.000 C 
ENDBRANCH  25  28
ENDBRANCH  21  22
ENDBRANCH   3  20
TORSDOF 9
ENDMDL
MODEL 4
REMARK VINA RESULT:      -8.0      1.146      1.307
REMARK  Name = 
REMARK  13 active torsions:
REMARK  status: ('A' for Active; 'I' for Inactive)
REMARK    1  A    between atoms: C_1  and  C_2
REMARK    2  A    between atoms: C_2  and  N_3
REMARK    3  A    between atoms: N_3  and  C_4
REMARK    4  A    between atoms: N_3  and  C_6
REMARK    5  A    between atoms: C_4  and  C_5
REMARK    6  A    between atoms: C_6  and  C_7
REMARK    7  A    between atoms: C_7  and  N_8
REMARK    8  A    between atoms: N_8  and  C_9
REMARK    9  A    between atoms: C_11  and  C_12
REMARK   10  A    between atoms: C_13  and  C_14
REMARK   11  A    between atoms: C_17  and  C_18
REMARK   12  A    between atoms: C_18  and  C_19
REMARK   13  A    between atoms: C_18  and  C_20
REMARK                            x       y       z     vdW  Elec       q    Type
REMARK                         _______ _______ _______ _____ _____    ______ ____
ROOT
ATOM      1  C   UNL     1       6.301   4.725  17.884  0.00  0.00    +0.000 A 
ATOM      2  N   UNL     1       6.959   5.735  18.478  0.00  0.00    +0.000 NA
ATOM      3  C   UNL     1       7.632   6.582  17.696  0.00  0.00    +0.000 A 
ATOM      4  N   UNL     1       7.720   6.515  16.366  0.00  0.00    +0.000 NA
ATOM      5  C   UNL     1       7.086   5.495  15.779  0.00  0.00    +0.000 A 
ATOM      6  C   UNL     1       7.151   5.393  14.395  0.00  0.00    +0.000 A 
ATOM      7  C   UNL     1       6.496   4.378  13.693  0.00  0.00    +0.000 A 
ATOM      8  C   UNL     1       5.756   3.431  14.384  0.00  0.00    +0.000 A 
ATOM      9  C   UNL     1       5.685   3.502  15.774  0.00  0.00    +0.000 A 
ATOM     10  C   UNL     1       6.345   4.537  16.486  0.00  0.00    +0.000 A 
ENDROOT
BRANCH   1  11
ATOM     11  N   UNL     1       5.577   3.826  18.704  0.00  0.00    +0.000 N 
ATOM     12  H   UNL     1       5.078   3.175  18.098  0.00  0.00    +0.000 HD
BRANCH  11  13
ATOM     13  C   UNL     1       4.567   4.503  19.531  0.00  0.00    +0.000 C 
BRANCH  13  14
ATOM     14  C   UNL     1       3.267   3.657  19.608  0.00  0.00    +0.000 C 
BRANCH  14  15
ATOM     15  N   UNL     1       2.040   4.446  19.904  0.00  0.00    +0.000 NA
BRANCH  15  17
ATOM     16  C   UNL     1       1.416   2.619  21.537  0.00  0.00    +0.000 C 
ATOM     17  C   UNL     1       0.974   3.581  20.439  0.00  0.00    +0.000 C 
ENDBRANCH  15  17
BRANCH  15  18
ATOM     18  C   UNL     1       2.358   5.605  20.761  0.00  0.00    +0.000 C 
ATOM     19  C   UNL     1       1.432   6.813  20.635  0.00  0.00    +0.000 C 
ENDBRANCH  15  18
ENDBRANCH  14  15
ENDBRANCH  13  14
ENDBRANCH  11  13
ENDBRANCH   1  11
BRANCH   3  20
ATOM     20  C   UNL     1       8.209   7.740  18.356  0.00  0.00    +0.000 C 
ATOM     21  C   UNL     1       8.123   8.975  17.838  0.00  0.00    +0.000 C 
BRANCH  21  22
ATOM     22  C   UNL     1       8.749  10.167  18.431  0.00  0.00    +0.000 A 
ATOM     23  C   UNL     1       8.672  11.382  17.741  0.00  0.00    +0.000 A 
ATOM     24  C   UNL     1       9.228  12.549  18.278  0.00  0.00    +0.000 A 
ATOM     25  C   UNL     1       9.871  12.530  19.524  0.00  0.00    +0.000 A 
ATOM     26  C   UNL     1       9.949  11.312  20.212  0.00  0.00    +0.000 A 
ATOM     27  C   UNL     1       9.386  10.147  19.677  0.00  0.00    +0.000 A 
BRANCH  25  28
ATOM     28  C   UNL     1      10.434  13.812  20.109  0.00  0.00    +0.000 C 
ATOM     29  C   UNL     1      10.130  15.015  19.210  0.00  0.00    +0.000 C 
ATOM     30  C   UNL     1       9.934  14.063  21.534  0.00  0.00    +0.000 C 
ENDBRANCH  25  28
ENDBRANCH  21  22
ENDBRANCH   3  20
TORSDOF 9
ENDMDL
MODEL 5
REMARK VINA RESULT:      -8.0      1.034      1.887
REMARK  Name = 
REMARK  13 active torsions:
REMARK  status: ('A' for Active; 'I' for Inactive)
REMARK    1  A    between atoms: C_1  and  C_2
REMARK    2  A    between atoms: C_2  and  N_3
REMARK    3  A    between atoms: N_3  and  C_4
REMARK    4  A    between atoms: N_3  and  C_6
REMARK    5  A    between atoms: C_4  and  C_5
REMARK    6  A    between atoms: C_6  and  C_7
REMARK    7  A    between atoms: C_7  and  N_8
REMARK    8  A    between atoms: N_8  and  C_9
REMARK    9  A    between atoms: C_11  and  C_12
REMARK   10  A    between atoms: C_13  and  C_14
REMARK   11  A    between atoms: C_17  and  C_18
REMARK   12  A    between atoms: C_18  and  C_19
REMARK   13  A    between atoms: C_18  and  C_20
REMARK                            x       y       z     vdW  Elec       q    Type
REMARK                         _______ _______ _______ _____ _____    ______ ____
ROOT
ATOM      1  C   UNL     1       5.763   5.159  17.649  0.00  0.00    +0.000 A 
ATOM      2  N   UNL     1       6.476   6.104  18.286  0.00  0.00    +0.000 NA
ATOM      3  C   UNL     1       7.414   6.748  17.588  0.00  0.00    +0.000 A 
ATOM      4  N   UNL     1       7.719   6.535  16.307  0.00  0.00    +0.000 NA
ATOM      5  C   UNL     1       7.026   5.578  15.681  0.00  0.00    +0.000 A 
ATOM      6  C   UNL     1       7.311   5.331  14.345  0.00  0.00    +0.000 A 
ATOM      7  C   UNL     1       6.620   4.371  13.603  0.00  0.00    +0.000 A 
ATOM      8  C   UNL     1       5.614   3.629  14.205  0.00  0.00    +0.000 A 
ATOM      9  C   UNL     1       5.316   3.848  15.548  0.00  0.00    +0.000 A 
ATOM     10  C   UNL     1       6.015   4.828  16.300  0.00  0.00    +0.000 A 
ENDROOT
BRANCH   1  11
ATOM     11  N   UNL     1       4.759   4.475  18.377  0.00  0.00    +0.000 N 
ATOM     12  H   UNL     1       4.572   3.590  17.905  0.00  0.00    +0.000 HD
BRANCH  11  13
ATOM     13  C   UNL     1       3.490   5.215  18.422  0.00  0.00    +0.000 C 
BRANCH  13  14
ATOM     14  C   UNL     1       2.893   5.188  19.856  0.00  0.00    +0.000 C 
BRANCH  14  15
ATOM     15  N   UNL     1       1.857   4.139  20.067  0.00  0.00    +0.000 NA
BRANCH  15  17
ATOM     16  C   UNL     1       0.913   2.310  18.599  0.00  0.00    +0.000 C 
ATOM     17  C   UNL     1       1.188   3.797  18.800  0.00  0.00    +0.000 C 
ENDBRANCH  15  17
BRANCH  15  18
ATOM     18  C   UNL     1       2.428   2.977  20.777  0.00  0.00    +0.000 C 
ATOM     19  C   UNL     1       1.741   2.578  22.082  0.00  0.00    +0.000 C 
ENDBRANCH  15  18
ENDBRANCH  14  15
ENDBRANCH  13  14
ENDBRANCH  11  13
ENDBRANCH   1  11
BRANCH   3  20
ATOM     20  C   UNL     1       8.064   7.858  18.265  0.00  0.00    +0.000 C 
ATOM     21  C   UNL     1       8.061   9.102  17.763  0.00  0.00    +0.000 C 
BRANCH  21  22
ATOM     22  C   UNL     1       8.761  10.242  18.373  0.00  0.00    +0.000 A 
ATOM     23  C   UNL     1       9.365  10.070  19.625  0.00  0.00    +0.000 A 
ATOM     24  C   UNL     1      10.066  11.117  20.233  0.00  0.00    +0.000 A 
ATOM     25  C   UNL     1      10.186  12.363  19.602  0.00  0.00    +0.000 A 
ATOM     26  C   UNL     1       9.579  12.534  18.350  0.00  0.00    +0.000 A 
ATOM     27  C   UNL     1       8.883  11.484  17.740  0.00  0.00    +0.000 A 
BRANCH  25  28
ATOM     28  C   UNL     1      10.983  13.476  20.258  0.00  0.00    +0.000 C 
ATOM     29  C   UNL     1      11.637  14.383  19.211  0.00  0.00    +0.000 C 
ATOM     30  C   UNL     1      10.133  14.298  21.229  0.00  0.00    +0.000 C 
ENDBRANCH  25  28
ENDBRANCH  21  22
ENDBRANCH   3  20
TORSDOF 9
ENDMDL
MODEL 6
REMARK VINA RESULT:      -7.9      1.188      1.786
REMARK  Name = 
REMARK  13 active torsions:
REMARK  status: ('A' for Active; 'I' for Inactive)
REMARK    1  A    between atoms: C_1  and  C_2
REMARK    2  A    between atoms: C_2  and  N_3
REMARK    3  A    between atoms: N_3  and  C_4
REMARK    4  A    between atoms: N_3  and  C_6
REMARK    5  A    between atoms: C_4  and  C_5
REMARK    6  A    between atoms: C_6  and  C_7
REMARK    7  A    between atoms: C_7  and  N_8
REMARK    8  A    between atoms: N_8  and  C_9
REMARK    9  A    between atoms: C_11  and  C_12
REMARK   10  A    between atoms: C_13  and  C_14
REMARK   11  A    between atoms: C_17  and  C_18
REMARK   12  A    between atoms: C_18  and  C_19
REMARK   13  A    between atoms: C_18  and  C_20
REMARK                            x       y       z     vdW  Elec       q    Type
REMARK                         _______ _______ _______ _____ _____    ______ ____
ROOT
ATOM      1  C   UNL     1       5.475   5.338  17.476  0.00  0.00    +0.000 A 
ATOM      2  N   UNL     1       6.196   6.257  18.140  0.00  0.00    +0.000 NA
ATOM      3  C   UNL     1       7.257   6.778  17.519  0.00  0.00    +0.000 A 
ATOM      4  N   UNL     1       7.676   6.465  16.292  0.00  0.00    +0.000 NA
ATOM      5  C   UNL     1       6.972   5.533  15.643  0.00  0.00    +0.000 A 
ATOM      6  C   UNL     1       7.375   5.183  14.361  0.00  0.00    +0.000 A 
ATOM      7  C   UNL     1       6.684   4.241  13.595  0.00  0.00    +0.000 A 
ATOM      8  C   UNL     1       5.559   3.621  14.119  0.00  0.00    +0.000 A 
ATOM      9  C   UNL     1       5.140   3.944  15.408  0.00  0.00    +0.000 A 
ATOM     10  C   UNL     1       5.839   4.907  16.182  0.00  0.00    +0.000 A 
ENDROOT
BRANCH   1  11
ATOM     11  N   UNL     1       4.342   4.784  18.121  0.00  0.00    +0.000 N 
ATOM     12  H   UNL     1       3.950   5.494  18.739  0.00  0.00    +0.000 HD
BRANCH  11  13
ATOM     13  C   UNL     1       4.680   3.624  18.959  0.00  0.00    +0.000 C 
BRANCH  13  14
ATOM     14  C   UNL     1       3.753   2.422  18.627  0.00  0.00    +0.000 C 
BRANCH  14  15
ATOM     15  N   UNL     1       2.734   2.127  19.673  0.00  0.00    +0.000 NA
BRANCH  15  17
ATOM     16  C   UNL     1       1.954   3.473  21.666  0.00  0.00    +0.000 C 
ATOM     17  C   UNL     1       3.098   2.758  20.953  0.00  0.00    +0.000 C 
ENDBRANCH  15  17
BRANCH  15  18
ATOM     18  C   UNL     1       1.381   2.472  19.196  0.00  0.00    +0.000 C 
ATOM     19  C   UNL     1       1.307   3.407  17.991  0.00  0.00    +0.000 C 
ENDBRANCH  15  18
ENDBRANCH  14  15
ENDBRANCH  13  14
ENDBRANCH  11  13
ENDBRANCH   1  11
BRANCH   3  20
ATOM     20  C   UNL     1       7.926   7.870  18.207  0.00  0.00    +0.000 C 
ATOM     21  C   UNL     1       8.011   9.101  17.681  0.00  0.00    +0.000 C 
BRANCH  21  22
ATOM     22  C   UNL     1       8.736  10.218  18.305  0.00  0.00    +0.000 A 
ATOM     23  C   UNL     1       8.569  11.506  17.781  0.00  0.00    +0.000 A 
ATOM     24  C   UNL     1       9.217  12.605  18.357  0.00  0.00    +0.000 A 
ATOM     25  C   UNL     1      10.043  12.444  19.478  0.00  0.00    +0.000 A 
ATOM     26  C   UNL     1      10.211  11.155  20.000  0.00  0.00    +0.000 A 
ATOM     27  C   UNL     1       9.558  10.057  19.426  0.00  0.00    +0.000 A 
BRANCH  25  28
ATOM     28  C   UNL     1      10.706  13.652  20.114  0.00  0.00    +0.000 C 
ATOM     29  C   UNL     1      10.644  14.872  19.189  0.00  0.00    +0.000 C 
ATOM     30  C   UNL     1      10.110  13.982  21.484  0.00  0.00    +0.000 C 
ENDBRANCH  25  28
ENDBRANCH  21  22
ENDBRANCH   3  20
TORSDOF 9
ENDMDL
MODEL 7
REMARK VINA RESULT:      -7.8      1.391      1.966
REMARK  Name = 
REMARK  13 active torsions:
REMARK  status: ('A' for Active; 'I' for Inactive)
REMARK    1  A    between atoms: C_1  and  C_2
REMARK    2  A    between atoms: C_2  and  N_3
REMARK    3  A    between atoms: N_3  and  C_4
REMARK    4  A    between atoms: N_3  and  C_6
REMARK    5  A    between atoms: C_4  and  C_5
REMARK    6  A    between atoms: C_6  and  C_7
REMARK    7  A    between atoms: C_7  and  N_8
REMARK    8  A    between atoms: N_8  and  C_9
REMARK    9  A    between atoms: C_11  and  C_12
REMARK   10  A    between atoms: C_13  and  C_14
REMARK   11  A    between atoms: C_17  and  C_18
REMARK   12  A    between atoms: C_18  and  C_19
REMARK   13  A    between atoms: C_18  and  C_20
REMARK                            x       y       z     vdW  Elec       q    Type
REMARK                         _______ _______ _______ _____ _____    ______ ____
ROOT
ATOM      1  C   UNL     1       5.086   6.573  17.541  0.00  0.00    +0.000 A 
ATOM      2  N   UNL     1       5.898   7.589  17.878  0.00  0.00    +0.000 NA
ATOM      3  C   UNL     1       7.097   7.643  17.292  0.00  0.00    +0.000 A 
ATOM      4  N   UNL     1       7.571   6.772  16.400  0.00  0.00    +0.000 NA
ATOM      5  C   UNL     1       6.771   5.748  16.086  0.00  0.00    +0.000 A 
ATOM      6  C   UNL     1       7.227   4.822  15.158  0.00  0.00    +0.000 A 
ATOM      7  C   UNL     1       6.450   3.736  14.746  0.00  0.00    +0.000 A 
ATOM      8  C   UNL     1       5.179   3.561  15.274  0.00  0.00    +0.000 A 
ATOM      9  C   UNL     1       4.701   4.468  16.217  0.00  0.00    +0.000 A 
ATOM     10  C   UNL     1       5.490   5.575  16.630  0.00  0.00    +0.000 A 
ENDROOT
BRANCH   1  11
ATOM     11  N   UNL     1       3.808   6.511  18.150  0.00  0.00    +0.000 N 
ATOM     12  H   UNL     1       3.495   7.464  18.331  0.00  0.00    +0.000 HD
BRANCH  11  13
ATOM     13  C   UNL     1       3.832   5.813  19.444  0.00  0.00    +0.000 C 
BRANCH  13  14
ATOM     14  C   UNL     1       2.775   4.675  19.470  0.00  0.00    +0.000 C 
BRANCH  14  15
ATOM     15  N   UNL     1       3.240   3.422  20.126  0.00  0.00    +0.000 NA
BRANCH  15  17
ATOM     16  C   UNL     1       0.726   3.192  20.267  0.00  0.00    +0.000 C 
ATOM     17  C   UNL     1       2.100   2.636  20.629  0.00  0.00    +0.000 C 
ENDBRANCH  15  17
BRANCH  15  18
ATOM     18  C   UNL     1       4.142   2.668  19.233  0.00  0.00    +0.000 C 
ATOM     19  C   UNL     1       3.499   1.556  18.406  0.00  0.00    +0.000 C 
ENDBRANCH  15  18
ENDBRANCH  14  15
ENDBRANCH  13  14
ENDBRANCH  11  13
ENDBRANCH   1  11
BRANCH   3  20
ATOM     20  C   UNL     1       7.889   8.829  17.569  0.00  0.00    +0.000 C 
ATOM     21  C   UNL     1       8.540   9.000  18.730  0.00  0.00    +0.000 C 
BRANCH  21  22
ATOM     22  C   UNL     1       9.296  10.211  19.084  0.00  0.00    +0.000 A 
ATOM     23  C   UNL     1       9.854  10.981  18.056  0.00  0.00    +0.000 A 
ATOM     24  C   UNL     1      10.559  12.156  18.342  0.00  0.00    +0.000 A 
ATOM     25  C   UNL     1      10.719  12.593  19.664  0.00  0.00    +0.000 A 
ATOM     26  C   UNL     1      10.162  11.820  20.692  0.00  0.00    +0.000 A 
ATOM     27  C   UNL     1       9.452  10.648  20.404  0.00  0.00    +0.000 A 
BRANCH  25  28
ATOM     28  C   UNL     1      11.453  13.890  19.954  0.00  0.00    +0.000 C 
ATOM     29  C   UNL     1      11.772  14.649  18.661  0.00  0.00    +0.000 C 
ATOM     30  C   UNL     1      10.682  14.783  20.928  0.00  0.00    +0.000 C 
ENDBRANCH  25  28
ENDBRANCH  21  22
ENDBRANCH   3  20
TORSDOF 9
ENDMDL
MODEL 8
REMARK VINA RESULT:      -7.7      1.139      1.679
REMARK  Name = 
REMARK  13 active torsions:
REMARK  status: ('A' for Active; 'I' for Inactive)
REMARK    1  A    between atoms: C_1  and  C_2
REMARK    2  A    between atoms: C_2  and  N_3
REMARK    3  A    between atoms: N_3  and  C_4
REMARK    4  A    between atoms: N_3  and  C_6
REMARK    5  A    between atoms: C_4  and  C_5
REMARK    6  A    between atoms: C_6  and  C_7
REMARK    7  A    between atoms: C_7  and  N_8
REMARK    8  A    between atoms: N_8  and  C_9
REMARK    9  A    between atoms: C_11  and  C_12
REMARK   10  A    between atoms: C_13  and  C_14
REMARK   11  A    between atoms: C_17  and  C_18
REMARK   12  A    between atoms: C_18  and  C_19
REMARK   13  A    between atoms: C_18  and  C_20
REMARK                            x       y       z     vdW  Elec       q    Type
REMARK                         _______ _______ _______ _____ _____    ______ ____
ROOT
ATOM      1  C   UNL     1       5.555   5.918  18.006  0.00  0.00    +0.000 A 
ATOM      2  N   UNL     1       6.269   7.022  18.282  0.00  0.00    +0.000 NA
ATOM      3  C   UNL     1       7.213   7.384  17.410  0.00  0.00    +0.000 A 
ATOM      4  N   UNL     1       7.521   6.742  16.281  0.00  0.00    +0.000 NA
ATOM      5  C   UNL     1       6.827   5.630  16.021  0.00  0.00    +0.000 A 
ATOM      6  C   UNL     1       7.115   4.937  14.853  0.00  0.00    +0.000 A 
ATOM      7  C   UNL     1       6.422   3.781  14.483  0.00  0.00    +0.000 A 
ATOM      8  C   UNL     1       5.411   3.295  15.300  0.00  0.00    +0.000 A 
ATOM      9  C   UNL     1       5.110   3.964  16.484  0.00  0.00    +0.000 A 
ATOM     10  C   UNL     1       5.810   5.142  16.855  0.00  0.00    +0.000 A 
ENDROOT
BRANCH   1  11
ATOM     11  N   UNL     1       4.546   5.530  18.920  0.00  0.00    +0.000 N 
ATOM     12  H   UNL     1       4.172   4.630  18.617  0.00  0.00    +0.000 HD
BRANCH  11  13
ATOM     13  C   UNL     1       3.420   6.474  18.955  0.00  0.00    +0.000 C 
BRANCH  13  14
ATOM     14  C   UNL     1       2.178   5.819  19.619  0.00  0.00    +0.000 C 
BRANCH  14  15
ATOM     15  N   UNL     1       2.190   4.330  19.604  0.00  0.00    +0.000 NA
BRANCH  15  17
ATOM     16  C   UNL     1       2.328   2.776  21.594  0.00  0.00    +0.000 C 
ATOM     17  C   UNL     1       1.512   3.786  20.794  0.00  0.00    +0.000 C 
ENDBRANCH  15  17
BRANCH  15  18
ATOM     18  C   UNL     1       1.663   3.815  18.325  0.00  0.00    +0.000 C 
ATOM     19  C   UNL     1       2.286   2.520  17.810  0.00  0.00    +0.000 C 
ENDBRANCH  15  18
ENDBRANCH  14  15
ENDBRANCH  13  14
ENDBRANCH  11  13
ENDBRANCH   1  11
BRANCH   3  20
ATOM     20  C   UNL     1       7.865   8.657  17.666  0.00  0.00    +0.000 C 
ATOM     21  C   UNL     1       8.671   8.848  18.721  0.00  0.00    +0.000 C 
BRANCH  21  22
ATOM     22  C   UNL     1       9.297  10.135  19.061  0.00  0.00    +0.000 A 
ATOM     23  C   UNL     1       9.610  11.026  18.027  0.00  0.00    +0.000 A 
ATOM     24  C   UNL     1      10.181  12.273  18.304  0.00  0.00    +0.000 A 
ATOM     25  C   UNL     1      10.450  12.664  19.623  0.00  0.00    +0.000 A 
ATOM     26  C   UNL     1      10.138  11.769  20.656  0.00  0.00    +0.000 A 
ATOM     27  C   UNL     1       9.561  10.525  20.379  0.00  0.00    +0.000 A 
BRANCH  25  28
ATOM     28  C   UNL     1      11.034  14.036  19.907  0.00  0.00    +0.000 C 
ATOM     29  C   UNL     1      12.320  14.269  19.108  0.00  0.00    +0.000 C 
ATOM     30  C   UNL     1      10.025  15.156  19.646  0.00  0.00    +0.000 C 
ENDBRANCH  25  28
ENDBRANCH  21  22
ENDBRANCH   3  20
TORSDOF 9
ENDMDL
MODEL 9
REMARK VINA RESULT:      -7.7      0.732      1.722
REMARK  Name = 
REMARK  13 active torsions:
REMARK  status: ('A' for Active; 'I' for Inactive)
REMARK    1  A    between atoms: C_1  and  C_2
REMARK    2  A    between atoms: C_2  and  N_3
REMARK    3  A    between atoms: N_3  and  C_4
REMARK    4  A    between atoms: N_3  and  C_6
REMARK    5  A    between atoms: C_4  and  C_5
REMARK    6  A    between atoms: C_6  and  C_7
REMARK    7  A    between atoms: C_7  and  N_8
REMARK    8  A    between atoms: N_8  and  C_9
REMARK    9  A    between atoms: C_11  and  C_12
REMARK   10  A    between atoms: C_13  and  C_14
REMARK   11  A    between atoms: C_17  and  C_18
REMARK   12  A    between atoms: C_18  and  C_19
REMARK   13  A    between atoms: C_18  and  C_20
REMARK                            x       y       z     vdW  Elec       q    Type
REMARK                         _______ _______ _______ _____ _____    ______ ____
ROOT
ATOM      1  C   UNL     1       6.389   4.738  18.270  0.00  0.00    +0.000 A 
ATOM      2  N   UNL     1       7.112   5.740  18.798  0.00  0.00    +0.000 NA
ATOM      3  C   UNL     1       7.669   6.612  17.956  0.00  0.00    +0.000 A 
ATOM      4  N   UNL     1       7.581   6.580  16.626  0.00  0.00    +0.000 NA
ATOM      5  C   UNL     1       6.882   5.569  16.100  0.00  0.00    +0.000 A 
ATOM      6  C   UNL     1       6.764   5.503  14.718  0.00  0.00    +0.000 A 
ATOM      7  C   UNL     1       6.030   4.500  14.082  0.00  0.00    +0.000 A 
ATOM      8  C   UNL     1       5.394   3.527  14.839  0.00  0.00    +0.000 A 
ATOM      9  C   UNL     1       5.507   3.562  16.227  0.00  0.00    +0.000 A 
ATOM     10  C   UNL     1       6.248   4.586  16.874  0.00  0.00    +0.000 A 
ENDROOT
BRANCH   1  11
ATOM     11  N   UNL     1       5.785   3.811  19.154  0.00  0.00    +0.000 N 
ATOM     12  H   UNL     1       5.625   2.943  18.643  0.00  0.00    +0.000 HD
BRANCH  11  13
ATOM     13  C   UNL     1       4.478   4.268  19.647  0.00  0.00    +0.000 C 
BRANCH  13  14
ATOM     14  C   UNL     1       4.194   5.720  19.175  0.00  0.00    +0.000 C 
BRANCH  14  15
ATOM     15  N   UNL     1       2.747   6.061  19.082  0.00  0.00    +0.000 NA
BRANCH  15  17
ATOM     16  C   UNL     1       2.062   8.406  18.429  0.00  0.00    +0.000 C 
ATOM     17  C   UNL     1       2.501   7.014  17.986  0.00  0.00    +0.000 C 
ENDBRANCH  15  17
BRANCH  15  18
ATOM     18  C   UNL     1       1.926   4.837  19.010  0.00  0.00    +0.000 C 
ATOM     19  C   UNL     1       1.557   4.352  17.610  0.00  0.00    +0.000 C 
ENDBRANCH  15  18
ENDBRANCH  14  15
ENDBRANCH  13  14
ENDBRANCH  11  13
ENDBRANCH   1  11
BRANCH   3  20
ATOM     20  C   UNL     1       8.320   7.760  18.565  0.00  0.00    +0.000 C 
ATOM     21  C   UNL     1       8.257   8.987  18.026  0.00  0.00    +0.000 C 
BRANCH  21  22
ATOM     22  C   UNL     1       8.955  10.164  18.565  0.00  0.00    +0.000 A 
ATOM     23  C   UNL     1       9.193  10.234  19.943  0.00  0.00    +0.000 A 
ATOM     24  C   UNL     1       9.877  11.321  20.499  0.00  0.00    +0.000 A 
ATOM     25  C   UNL     1      10.346  12.364  19.689  0.00  0.00    +0.000 A 
ATOM     26  C   UNL     1      10.106  12.294  18.310  0.00  0.00    +0.000 A 
ATOM     27  C   UNL     1       9.427  11.203  17.754  0.00  0.00    +0.000 A 
BRANCH  25  28
ATOM     28  C   UNL     1      11.121  13.516  20.304  0.00  0.00    +0.000 C 
ATOM     29  C   UNL     1      11.953  14.252  19.249  0.00  0.00    +0.000 C 
ATOM     30  C   UNL     1      10.206  14.493  21.047  0.00  0.00    +0.000 C 
ENDBRANCH  25  28
ENDBRANCH  21  22
ENDBRANCH   3  20
TORSDOF 9
ENDMDL
