MODEL 1
REMARK VINA RESULT:      -8.0      0.000      0.000
REMARK  Name = 
REMARK  3 active torsions:
REMARK  status: ('A' for Active; 'I' for Inactive)
REMARK    1  A    between atoms: C_1  and  C_2
REMARK    2  A    between atoms: C_6  and  C_7
REMARK    3  A    between atoms: C_24  and  C_26
REMARK                            x       y       z     vdW  Elec       q    Type
REMARK                         _______ _______ _______ _____ _____    ______ ____
ROOT
ATOM      1  C   UNL     1      -0.704  11.057  22.225  0.00  0.00    +0.000 A 
ATOM      2  N   UNL     1      -0.983  10.051  23.045  0.00  0.00    +0.000 NA
ATOM      3  N   UNL     1      -0.393   8.913  22.576  0.00  0.00    +0.000 NA
ATOM      4  C   UNL     1       0.277   9.239  21.497  0.00  0.00    +0.000 A 
ATOM      5  C   UNL     1       1.029   8.397  20.601  0.00  0.00    +0.000 A 
ATOM      6  C   UNL     1       1.118   7.010  20.766  0.00  0.00    +0.000 A 
ATOM      7  C   UNL     1       1.882   6.258  19.875  0.00  0.00    +0.000 A 
ATOM      8  C   UNL     1       2.544   6.899  18.827  0.00  0.00    +0.000 A 
ATOM      9 CL   UNL     1       3.511   5.972  17.745  0.00  0.00    +0.000 Cl
ATOM     10  C   UNL     1       2.440   8.282  18.653  0.00  0.00    +0.000 A 
ATOM     11  C   UNL     1       1.680   9.045  19.541  0.00  0.00    +0.000 A 
ATOM     12  N   UNL     1       1.619  10.450  19.374  0.00  0.00    +0.000 NA
ATOM     13  C   UNL     1       0.950  11.205  20.218  0.00  0.00    +0.000 A 
ATOM     14  N   UNL     1       0.995  12.583  20.051  0.00  0.00    +0.000 N 
ATOM     15  C   UNL     1       1.554  13.471  21.097  0.00  0.00    +0.000 C 
ATOM     16  C   UNL     1       2.568  14.477  20.534  0.00  0.00    +0.000 C 
ATOM     17  N   UNL     1       1.989  15.191  19.395  0.00  0.00    +0.000 N 
ATOM     18  C   UNL     1       1.766  16.559  19.495  0.00  0.00    +0.000 C 
ATOM     19  O   UNL     1       2.182  17.235  20.433  0.00  0.00    +0.000 OA
ATOM     20  C   UNL     1       1.652  14.291  18.292  0.00  0.00    +0.000 C 
ATOM     21  C   UNL     1       0.671  13.195  18.742  0.00  0.00    +0.000 C 
ATOM     22  N   UNL     1       0.209  10.601  21.274  0.00  0.00    +0.000 N 
ENDROOT
BRANCH   1  28
ATOM     23  C   UNL     1      -1.485  15.195  24.917  0.00  0.00    +0.000 C 
ATOM     24  C   UNL     1      -1.690  14.417  23.651  0.00  0.00    +0.000 A 
ATOM     25  C   UNL     1      -2.501  14.919  22.630  0.00  0.00    +0.000 A 
ATOM     26  C   UNL     1      -2.791  14.132  21.520  0.00  0.00    +0.000 A 
ATOM     27  C   UNL     1      -2.266  12.843  21.424  0.00  0.00    +0.000 A 
ATOM     28  C   UNL     1      -1.340  12.371  22.355  0.00  0.00    +0.000 A 
ATOM     29  C   UNL     1      -1.089  13.157  23.491  0.00  0.00    +0.000 A 
ENDBRANCH   1  28
BRANCH  18  30
ATOM     30  C   UNL     1       1.000  17.277  18.441  0.00  0.00    +0.000 A 
ATOM     31  C   UNL     1      -0.365  17.536  18.587  0.00  0.00    +0.000 A 
ATOM     32  C   UNL     1      -1.068  18.187  17.567  0.00  0.00    +0.000 A 
ATOM     33  C   UNL     1      -0.396  18.630  16.429  0.00  0.00    +0.000 A 
ATOM     34  C   UNL     1       0.986  18.449  16.318  0.00  0.00    +0.000 A 
ATOM     35  C   UNL     1       1.684  17.777  17.324  0.00  0.00    +0.000 A 
ENDBRANCH  18  30
TORSDOF 2
ENDMDL
MODEL 2
REMARK VINA RESULT:      -7.7      0.759      1.173
REMARK  Name = 
REMARK  3 active torsions:
REMARK  status: ('A' for Active; 'I' for Inactive)
REMARK    1  A    between atoms: C_1  and  C_2
REMARK    2  A    between atoms: C_6  and  C_7
REMARK    3  A    between atoms: C_24  and  C_26
REMARK                            x       y       z     vdW  Elec       q    Type
REMARK                         _______ _______ _______ _____ _____    ______ ____
ROOT
ATOM      1  C   UNL     1      -0.369  10.520  21.472  0.00  0.00    +0.000 A 
ATOM      2  N   UNL     1      -0.668   9.447  22.193  0.00  0.00    +0.000 NA
ATOM      3  N   UNL     1      -0.013   8.365  21.680  0.00  0.00    +0.000 NA
ATOM      4  C   UNL     1       0.715   8.792  20.677  0.00  0.00    +0.000 A 
ATOM      5  C   UNL     1       1.551   8.042  19.773  0.00  0.00    +0.000 A 
ATOM      6  C   UNL     1       1.673   6.650  19.838  0.00  0.00    +0.000 A 
ATOM      7  C   UNL     1       2.518   5.990  18.947  0.00  0.00    +0.000 A 
ATOM      8  C   UNL     1       3.227   6.728  17.997  0.00  0.00    +0.000 A 
ATOM      9 CL   UNL     1       4.291   5.914  16.916  0.00  0.00    +0.000 Cl
ATOM     10  C   UNL     1       3.090   8.117  17.921  0.00  0.00    +0.000 A 
ATOM     11  C   UNL     1       2.248   8.788  18.811  0.00  0.00    +0.000 A 
ATOM     12  N   UNL     1       2.154  10.200  18.747  0.00  0.00    +0.000 NA
ATOM     13  C   UNL     1       1.407  10.869  19.598  0.00  0.00    +0.000 A 
ATOM     14  N   UNL     1       1.418  12.256  19.540  0.00  0.00    +0.000 N 
ATOM     15  C   UNL     1       1.879  13.075  20.685  0.00  0.00    +0.000 C 
ATOM     16  C   UNL     1       2.895  14.149  20.270  0.00  0.00    +0.000 C 
ATOM     17  N   UNL     1       2.369  14.933  19.151  0.00  0.00    +0.000 N 
ATOM     18  C   UNL     1       2.096  16.282  19.339  0.00  0.00    +0.000 C 
ATOM     19  O   UNL     1       2.428  16.895  20.352  0.00  0.00    +0.000 OA
ATOM     20  C   UNL     1       2.134  14.113  17.963  0.00  0.00    +0.000 C 
ATOM     21  C   UNL     1       1.162  12.959  18.261  0.00  0.00    +0.000 C 
ATOM     22  N   UNL     1       0.618  10.165  20.553  0.00  0.00    +0.000 N 
ENDROOT
BRANCH   1  28
ATOM     23  C   UNL     1      -1.343  14.483  24.358  0.00  0.00    +0.000 C 
ATOM     24  C   UNL     1      -1.499  13.766  23.050  0.00  0.00    +0.000 A 
ATOM     25  C   UNL     1      -2.311  14.291  22.041  0.00  0.00    +0.000 A 
ATOM     26  C   UNL     1      -2.554  13.553  20.888  0.00  0.00    +0.000 A 
ATOM     27  C   UNL     1      -1.981  12.290  20.735  0.00  0.00    +0.000 A 
ATOM     28  C   UNL     1      -1.054  11.803  21.658  0.00  0.00    +0.000 A 
ATOM     29  C   UNL     1      -0.850  12.538  22.837  0.00  0.00    +0.000 A 
ENDBRANCH   1  28
BRANCH  18  30
ATOM     30  C   UNL     1       1.378  17.060  18.293  0.00  0.00    +0.000 A 
ATOM     31  C   UNL     1       2.050  17.572  17.181  0.00  0.00    +0.000 A 
ATOM     32  C   UNL     1       1.356  18.325  16.228  0.00  0.00    +0.000 A 
ATOM     33  C   UNL     1      -0.020  18.517  16.356  0.00  0.00    +0.000 A 
ATOM     34  C   UNL     1      -0.710  17.933  17.422  0.00  0.00    +0.000 A 
ATOM     35  C   UNL     1      -0.014  17.202  18.387  0.00  0.00    +0.000 A 
ENDBRANCH  18  30
TORSDOF 2
ENDMDL
MODEL 3
REMARK VINA RESULT:      -7.6      0.458      1.478
REMARK  Name = 
REMARK  3 active torsions:
REMARK  status: ('A' for Active; 'I' for Inactive)
REMARK    1  A    between atoms: C_1  and  C_2
REMARK    2  A    between atoms: C_6  and  C_7
REMARK    3  A    between atoms: C_24  and  C_26
REMARK                            x       y       z     vdW  Elec       q    Type
REMARK                         _______ _______ _______ _____ _____    ______ ____
ROOT
ATOM      1  C   UNL     1      -0.596  10.728  22.084  0.00  0.00    +0.000 A 
ATOM      2  N   UNL     1      -0.851   9.677  22.854  0.00  0.00    +0.000 NA
ATOM      3  N   UNL     1      -0.232   8.578  22.332  0.00  0.00    +0.000 NA
ATOM      4  C   UNL     1       0.432   8.973  21.273  0.00  0.00    +0.000 A 
ATOM      5  C   UNL     1       1.206   8.194  20.340  0.00  0.00    +0.000 A 
ATOM      6  C   UNL     1       1.330   6.803  20.438  0.00  0.00    +0.000 A 
ATOM      7  C   UNL     1       2.115   6.115  19.514  0.00  0.00    +0.000 A 
ATOM      8  C   UNL     1       2.763   6.823  18.499  0.00  0.00    +0.000 A 
ATOM      9 CL   UNL     1       3.754   5.974  17.377  0.00  0.00    +0.000 Cl
ATOM     10  C   UNL     1       2.624   8.209  18.393  0.00  0.00    +0.000 A 
ATOM     11  C   UNL     1       1.843   8.909  19.314  0.00  0.00    +0.000 A 
ATOM     12  N   UNL     1       1.747  10.318  19.215  0.00  0.00    +0.000 NA
ATOM     13  C   UNL     1       1.057  11.015  20.092  0.00  0.00    +0.000 A 
ATOM     14  N   UNL     1       1.068  12.400  19.993  0.00  0.00    +0.000 N 
ATOM     15  C   UNL     1       1.602  13.250  21.082  0.00  0.00    +0.000 C 
ATOM     16  C   UNL     1       2.592  14.307  20.572  0.00  0.00    +0.000 C 
ATOM     17  N   UNL     1       1.997  15.060  19.467  0.00  0.00    +0.000 N 
ATOM     18  C   UNL     1       1.739  16.416  19.632  0.00  0.00    +0.000 C 
ATOM     19  O   UNL     1       2.136  17.057  20.603  0.00  0.00    +0.000 OA
ATOM     20  C   UNL     1       1.685  14.208  18.320  0.00  0.00    +0.000 C 
ATOM     21  C   UNL     1       0.731  13.066  18.713  0.00  0.00    +0.000 C 
ATOM     22  N   UNL     1       0.330  10.342  21.116  0.00  0.00    +0.000 N 
ENDROOT
BRANCH   1  28
ATOM     23  C   UNL     1      -4.052  14.025  20.615  0.00  0.00    +0.000 C 
ATOM     24  C   UNL     1      -2.987  13.616  21.587  0.00  0.00    +0.000 A 
ATOM     25  C   UNL     1      -2.613  14.461  22.635  0.00  0.00    +0.000 A 
ATOM     26  C   UNL     1      -1.534  14.131  23.447  0.00  0.00    +0.000 A 
ATOM     27  C   UNL     1      -0.828  12.948  23.220  0.00  0.00    +0.000 A 
ATOM     28  C   UNL     1      -1.266  12.017  22.276  0.00  0.00    +0.000 A 
ATOM     29  C   UNL     1      -2.329  12.383  21.435  0.00  0.00    +0.000 A 
ENDBRANCH   1  28
BRANCH  18  30
ATOM     30  C   UNL     1       0.957  17.165  18.612  0.00  0.00    +0.000 A 
ATOM     31  C   UNL     1       1.572  17.704  17.479  0.00  0.00    +0.000 A 
ATOM     32  C   UNL     1       0.818  18.430  16.551  0.00  0.00    +0.000 A 
ATOM     33  C   UNL     1      -0.559  18.568  16.725  0.00  0.00    +0.000 A 
ATOM     34  C   UNL     1      -1.190  17.957  17.812  0.00  0.00    +0.000 A 
ATOM     35  C   UNL     1      -0.435  17.254  18.752  0.00  0.00    +0.000 A 
ENDBRANCH  18  30
TORSDOF 2
ENDMDL
MODEL 4
REMARK VINA RESULT:      -7.3      0.953      1.664
REMARK  Name = 
REMARK  3 active torsions:
REMARK  status: ('A' for Active; 'I' for Inactive)
REMARK    1  A    between atoms: C_1  and  C_2
REMARK    2  A    between atoms: C_6  and  C_7
REMARK    3  A    between atoms: C_24  and  C_26
REMARK                            x       y       z     vdW  Elec       q    Type
REMARK                         _______ _______ _______ _____ _____    ______ ____
ROOT
ATOM      1  C   UNL     1      -0.204  10.121  21.433  0.00  0.00    +0.000 A 
ATOM      2  N   UNL     1      -0.404   8.982  22.084  0.00  0.00    +0.000 NA
ATOM      3  N   UNL     1       0.305   7.987  21.476  0.00  0.00    +0.000 NA
ATOM      4  C   UNL     1       0.968   8.533  20.485  0.00  0.00    +0.000 A 
ATOM      5  C   UNL     1       1.821   7.908  19.505  0.00  0.00    +0.000 A 
ATOM      6  C   UNL     1       2.040   6.526  19.467  0.00  0.00    +0.000 A 
ATOM      7  C   UNL     1       2.897   5.992  18.506  0.00  0.00    +0.000 A 
ATOM      8  C   UNL     1       3.520   6.841  17.590  0.00  0.00    +0.000 A 
ATOM      9 CL   UNL     1       4.599   6.181  16.423  0.00  0.00    +0.000 Cl
ATOM     10  C   UNL     1       3.286   8.219  17.619  0.00  0.00    +0.000 A 
ATOM     11  C   UNL     1       2.432   8.766  18.579  0.00  0.00    +0.000 A 
ATOM     12  N   UNL     1       2.240  10.168  18.619  0.00  0.00    +0.000 NA
ATOM     13  C   UNL     1       1.479  10.723  19.537  0.00  0.00    +0.000 A 
ATOM     14  N   UNL     1       1.394  12.108  19.578  0.00  0.00    +0.000 N 
ATOM     15  C   UNL     1       1.837  12.876  20.765  0.00  0.00    +0.000 C 
ATOM     16  C   UNL     1       2.762  14.045  20.398  0.00  0.00    +0.000 C 
ATOM     17  N   UNL     1       2.146  14.865  19.355  0.00  0.00    +0.000 N 
ATOM     18  C   UNL     1       1.789  16.176  19.646  0.00  0.00    +0.000 C 
ATOM     19  O   UNL     1       2.112  16.739  20.690  0.00  0.00    +0.000 OA
ATOM     20  C   UNL     1       1.926  14.116  18.118  0.00  0.00    +0.000 C 
ATOM     21  C   UNL     1       1.046  12.878  18.361  0.00  0.00    +0.000 C 
ATOM     22  N   UNL     1       0.773   9.900  20.463  0.00  0.00    +0.000 N 
ENDROOT
BRANCH   1  28
ATOM     23  C   UNL     1      -3.765  13.374  20.125  0.00  0.00    +0.000 C 
ATOM     24  C   UNL     1      -2.741  12.907  21.116  0.00  0.00    +0.000 A 
ATOM     25  C   UNL     1      -2.494  13.634  22.283  0.00  0.00    +0.000 A 
ATOM     26  C   UNL     1      -1.451  13.266  23.126  0.00  0.00    +0.000 A 
ATOM     27  C   UNL     1      -0.656  12.164  22.809  0.00  0.00    +0.000 A 
ATOM     28  C   UNL     1      -0.968  11.336  21.730  0.00  0.00    +0.000 A 
ATOM     29  C   UNL     1      -1.996  11.743  20.864  0.00  0.00    +0.000 A 
ENDBRANCH   1  28
BRANCH  18  30
ATOM     30  C   UNL     1       0.983  16.972  18.680  0.00  0.00    +0.000 A 
ATOM     31  C   UNL     1      -0.396  17.123  18.839  0.00  0.00    +0.000 A 
ATOM     32  C   UNL     1      -1.134  17.851  17.899  0.00  0.00    +0.000 A 
ATOM     33  C   UNL     1      -0.485  18.476  16.834  0.00  0.00    +0.000 A 
ATOM     34  C   UNL     1       0.906  18.398  16.721  0.00  0.00    +0.000 A 
ATOM     35  C   UNL     1       1.640  17.650  17.644  0.00  0.00    +0.000 A 
ENDBRANCH  18  30
TORSDOF 2
ENDMDL
MODEL 5
REMARK VINA RESULT:      -6.5      0.686      1.033
REMARK  Name = 
REMARK  3 active torsions:
REMARK  status: ('A' for Active; 'I' for Inactive)
REMARK    1  A    between atoms: C_1  and  C_2
REMARK    2  A    between atoms: C_6  and  C_7
REMARK    3  A    between atoms: C_24  and  C_26
REMARK                            x       y       z     vdW  Elec       q    Type
REMARK                         _______ _______ _______ _____ _____    ______ ____
ROOT
ATOM      1  C   UNL     1      -0.489  10.957  22.511  0.00  0.00    +0.000 A 
ATOM      2  N   UNL     1      -0.661   9.931  23.334  0.00  0.00    +0.000 NA
ATOM      3  N   UNL     1      -0.090   8.818  22.789  0.00  0.00    +0.000 NA
ATOM      4  C   UNL     1       0.464   9.181  21.657  0.00  0.00    +0.000 A 
ATOM      5  C   UNL     1       1.148   8.375  20.677  0.00  0.00    +0.000 A 
ATOM      6  C   UNL     1       1.289   6.988  20.806  0.00  0.00    +0.000 A 
ATOM      7  C   UNL     1       1.984   6.274  19.831  0.00  0.00    +0.000 A 
ATOM      8  C   UNL     1       2.524   6.950  18.736  0.00  0.00    +0.000 A 
ATOM      9 CL   UNL     1       3.406   6.069  17.549  0.00  0.00    +0.000 Cl
ATOM     10  C   UNL     1       2.368   8.332  18.600  0.00  0.00    +0.000 A 
ATOM     11  C   UNL     1       1.676   9.059  19.572  0.00  0.00    +0.000 A 
ATOM     12  N   UNL     1       1.563  10.464  19.439  0.00  0.00    +0.000 NA
ATOM     13  C   UNL     1       0.958  11.186  20.358  0.00  0.00    +0.000 A 
ATOM     14  N   UNL     1       0.951  12.567  20.215  0.00  0.00    +0.000 N 
ATOM     15  C   UNL     1       1.585  13.453  21.219  0.00  0.00    +0.000 C 
ATOM     16  C   UNL     1       2.513  14.496  20.581  0.00  0.00    +0.000 C 
ATOM     17  N   UNL     1       1.808  15.212  19.517  0.00  0.00    +0.000 N 
ATOM     18  C   UNL     1       1.560  16.572  19.664  0.00  0.00    +0.000 C 
ATOM     19  O   UNL     1       2.046  17.244  20.571  0.00  0.00    +0.000 OA
ATOM     20  C   UNL     1       1.390  14.323  18.434  0.00  0.00    +0.000 C 
ATOM     21  C   UNL     1       0.486  13.192  18.954  0.00  0.00    +0.000 C 
ATOM     22  N   UNL     1       0.339  10.544  21.468  0.00  0.00    +0.000 N 
ENDROOT
BRANCH   1  28
ATOM     23  C   UNL     1      -4.698  13.583  23.120  0.00  0.00    +0.000 C 
ATOM     24  C   UNL     1      -3.200  13.534  23.070  0.00  0.00    +0.000 A 
ATOM     25  C   UNL     1      -2.443  14.703  23.191  0.00  0.00    +0.000 A 
ATOM     26  C   UNL     1      -1.066  14.663  23.009  0.00  0.00    +0.000 A 
ATOM     27  C   UNL     1      -0.437  13.453  22.713  0.00  0.00    +0.000 A 
ATOM     28  C   UNL     1      -1.144  12.250  22.727  0.00  0.00    +0.000 A 
ATOM     29  C   UNL     1      -2.540  12.310  22.870  0.00  0.00    +0.000 A 
ENDBRANCH   1  28
BRANCH  18  30
ATOM     30  C   UNL     1       0.677  17.286  18.703  0.00  0.00    +0.000 A 
ATOM     31  C   UNL     1      -0.659  17.556  19.009  0.00  0.00    +0.000 A 
ATOM     32  C   UNL     1      -1.475  18.202  18.074  0.00  0.00    +0.000 A 
ATOM     33  C   UNL     1      -0.942  18.631  16.859  0.00  0.00    +0.000 A 
ATOM     34  C   UNL     1       0.416  18.439  16.586  0.00  0.00    +0.000 A 
ATOM     35  C   UNL     1       1.225  17.771  17.507  0.00  0.00    +0.000 A 
ENDBRANCH  18  30
TORSDOF 2
ENDMDL
MODEL 6
REMARK VINA RESULT:      -6.5      3.526      7.180
REMARK  Name = 
REMARK  3 active torsions:
REMARK  status: ('A' for Active; 'I' for Inactive)
REMARK    1  A    between atoms: C_1  and  C_2
REMARK    2  A    between atoms: C_6  and  C_7
REMARK    3  A    between atoms: C_24  and  C_26
REMARK                            x       y       z     vdW  Elec       q    Type
REMARK                         _______ _______ _______ _____ _____    ______ ____
ROOT
ATOM      1  C   UNL     1       3.428  16.817  19.828  0.00  0.00    +0.000 A 
ATOM      2  N   UNL     1       4.479  17.607  19.651  0.00  0.00    +0.000 NA
ATOM      3  N   UNL     1       5.537  17.113  20.358  0.00  0.00    +0.000 NA
ATOM      4  C   UNL     1       5.137  16.001  20.927  0.00  0.00    +0.000 A 
ATOM      5  C   UNL     1       5.854  15.125  21.818  0.00  0.00    +0.000 A 
ATOM      6  C   UNL     1       7.160  15.389  22.249  0.00  0.00    +0.000 A 
ATOM      7  C   UNL     1       7.802  14.485  23.093  0.00  0.00    +0.000 A 
ATOM      8  C   UNL     1       7.133  13.331  23.503  0.00  0.00    +0.000 A 
ATOM      9 CL   UNL     1       7.940  12.203  24.523  0.00  0.00    +0.000 Cl
ATOM     10  C   UNL     1       5.824  13.077  23.087  0.00  0.00    +0.000 A 
ATOM     11  C   UNL     1       5.171  13.974  22.238  0.00  0.00    +0.000 A 
ATOM     12  N   UNL     1       3.859  13.680  21.793  0.00  0.00    +0.000 NA
ATOM     13  C   UNL     1       3.231  14.478  20.958  0.00  0.00    +0.000 A 
ATOM     14  N   UNL     1       1.980  14.096  20.491  0.00  0.00    +0.000 N 
ATOM     15  C   UNL     1       1.728  13.866  19.050  0.00  0.00    +0.000 C 
ATOM     16  C   UNL     1       1.016  12.533  18.782  0.00  0.00    +0.000 C 
ATOM     17  N   UNL     1      -0.179  12.425  19.618  0.00  0.00    +0.000 N 
ATOM     18  C   UNL     1      -1.430  12.394  19.013  0.00  0.00    +0.000 C 
ATOM     19  O   UNL     1      -1.579  12.287  17.797  0.00  0.00    +0.000 OA
ATOM     20  C   UNL     1       0.141  12.436  21.046  0.00  0.00    +0.000 C 
ATOM     21  C   UNL     1       0.908  13.710  21.438  0.00  0.00    +0.000 C 
ATOM     22  N   UNL     1       3.843  15.698  20.550  0.00  0.00    +0.000 N 
ENDROOT
BRANCH   1  28
ATOM     23  C   UNL     1       0.474  18.294  16.077  0.00  0.00    +0.000 C 
ATOM     24  C   UNL     1       0.633  17.856  17.502  0.00  0.00    +0.000 A 
ATOM     25  C   UNL     1      -0.465  17.825  18.366  0.00  0.00    +0.000 A 
ATOM     26  C   UNL     1      -0.283  17.548  19.716  0.00  0.00    +0.000 A 
ATOM     27  C   UNL     1       0.999  17.293  20.207  0.00  0.00    +0.000 A 
ATOM     28  C   UNL     1       2.091  17.175  19.347  0.00  0.00    +0.000 A 
ATOM     29  C   UNL     1       1.900  17.499  17.993  0.00  0.00    +0.000 A 
ENDBRANCH   1  28
BRANCH  18  30
ATOM     30  C   UNL     1      -2.668  12.486  19.833  0.00  0.00    +0.000 A 
ATOM     31  C   UNL     1      -2.631  12.947  21.151  0.00  0.00    +0.000 A 
ATOM     32  C   UNL     1      -3.806  12.995  21.909  0.00  0.00    +0.000 A 
ATOM     33  C   UNL     1      -5.025  12.638  21.332  0.00  0.00    +0.000 A 
ATOM     34  C   UNL     1      -5.077  12.258  19.988  0.00  0.00    +0.000 A 
ATOM     35  C   UNL     1      -3.902  12.186  19.238  0.00  0.00    +0.000 A 
ENDBRANCH  18  30
TORSDOF 2
ENDMDL
MODEL 7
REMARK VINA RESULT:      -6.5      2.395      5.408
REMARK  Name = 
REMARK  3 active torsions:
REMARK  status: ('A' for Active; 'I' for Inactive)
REMARK    1  A    between atoms: C_1  and  C_2
REMARK    2  A    between atoms: C_6  and  C_7
REMARK    3  A    between atoms: C_24  and  C_26
REMARK                            x       y       z     vdW  Elec       q    Type
REMARK                         _______ _______ _______ _____ _____    ______ ____
ROOT
ATOM      1  C   UNL     1       1.772  11.283  18.385  0.00  0.00    +0.000 A 
ATOM      2  N   UNL     1       2.430  10.830  17.326  0.00  0.00    +0.000 NA
ATOM      3  N   UNL     1       2.629   9.486  17.463  0.00  0.00    +0.000 NA
ATOM      4  C   UNL     1       2.053   9.121  18.583  0.00  0.00    +0.000 A 
ATOM      5  C   UNL     1       2.018   7.824  19.210  0.00  0.00    +0.000 A 
ATOM      6  C   UNL     1       2.674   6.709  18.675  0.00  0.00    +0.000 A 
ATOM      7  C   UNL     1       2.579   5.478  19.322  0.00  0.00    +0.000 A 
ATOM      8  C   UNL     1       1.834   5.374  20.498  0.00  0.00    +0.000 A 
ATOM      9 CL   UNL     1       1.694   3.847  21.278  0.00  0.00    +0.000 Cl
ATOM     10  C   UNL     1       1.194   6.492  21.040  0.00  0.00    +0.000 A 
ATOM     11  C   UNL     1       1.280   7.730  20.399  0.00  0.00    +0.000 A 
ATOM     12  N   UNL     1       0.591   8.842  20.941  0.00  0.00    +0.000 NA
ATOM     13  C   UNL     1       0.612  10.012  20.340  0.00  0.00    +0.000 A 
ATOM     14  N   UNL     1      -0.150  11.043  20.873  0.00  0.00    +0.000 N 
ATOM     15  C   UNL     1      -1.245  11.675  20.101  0.00  0.00    +0.000 C 
ATOM     16  C   UNL     1      -2.550  11.775  20.904  0.00  0.00    +0.000 C 
ATOM     17  N   UNL     1      -2.295  12.406  22.200  0.00  0.00    +0.000 N 
ATOM     18  C   UNL     1      -2.868  13.641  22.476  0.00  0.00    +0.000 C 
ATOM     19  O   UNL     1      -3.715  14.160  21.752  0.00  0.00    +0.000 OA
ATOM     20  C   UNL     1      -1.369  11.628  23.022  0.00  0.00    +0.000 C 
ATOM     21  C   UNL     1      -0.026  11.411  22.302  0.00  0.00    +0.000 C 
ATOM     22  N   UNL     1       1.401  10.191  19.167  0.00  0.00    +0.000 N 
ENDROOT
BRANCH   1  28
ATOM     23  C   UNL     1       3.367  15.572  20.397  0.00  0.00    +0.000 C 
ATOM     24  C   UNL     1       2.364  14.826  19.567  0.00  0.00    +0.000 A 
ATOM     25  C   UNL     1       1.236  15.475  19.059  0.00  0.00    +0.000 A 
ATOM     26  C   UNL     1       0.247  14.746  18.407  0.00  0.00    +0.000 A 
ATOM     27  C   UNL     1       0.387  13.366  18.253  0.00  0.00    +0.000 A 
ATOM     28  C   UNL     1       1.565  12.715  18.621  0.00  0.00    +0.000 A 
ATOM     29  C   UNL     1       2.536  13.454  19.316  0.00  0.00    +0.000 A 
ENDBRANCH   1  28
BRANCH  18  30
ATOM     30  C   UNL     1      -2.473  14.401  23.693  0.00  0.00    +0.000 A 
ATOM     31  C   UNL     1      -3.231  14.337  24.865  0.00  0.00    +0.000 A 
ATOM     32  C   UNL     1      -2.854  15.086  25.984  0.00  0.00    +0.000 A 
ATOM     33  C   UNL     1      -1.689  15.852  25.953  0.00  0.00    +0.000 A 
ATOM     34  C   UNL     1      -0.883  15.850  24.810  0.00  0.00    +0.000 A 
ATOM     35  C   UNL     1      -1.272  15.124  23.683  0.00  0.00    +0.000 A 
ENDBRANCH  18  30
TORSDOF 2
ENDMDL
MODEL 8
REMARK VINA RESULT:      -6.3      3.603      7.177
REMARK  Name = 
REMARK  3 active torsions:
REMARK  status: ('A' for Active; 'I' for Inactive)
REMARK    1  A    between atoms: C_1  and  C_2
REMARK    2  A    between atoms: C_6  and  C_7
REMARK    3  A    between atoms: C_24  and  C_26
REMARK                            x       y       z     vdW  Elec       q    Type
REMARK                         _______ _______ _______ _____ _____    ______ ____
ROOT
ATOM      1  C   UNL     1       3.632  16.720  19.534  0.00  0.00    +0.000 A 
ATOM      2  N   UNL     1       4.749  17.289  19.101  0.00  0.00    +0.000 NA
ATOM      3  N   UNL     1       5.817  16.728  19.740  0.00  0.00    +0.000 NA
ATOM      4  C   UNL     1       5.348  15.790  20.528  0.00  0.00    +0.000 A 
ATOM      5  C   UNL     1       6.053  14.940  21.453  0.00  0.00    +0.000 A 
ATOM      6  C   UNL     1       7.433  15.038  21.667  0.00  0.00    +0.000 A 
ATOM      7  C   UNL     1       8.055  14.167  22.560  0.00  0.00    +0.000 A 
ATOM      8  C   UNL     1       7.292  13.211  23.233  0.00  0.00    +0.000 A 
ATOM      9 CL   UNL     1       8.067  12.118  24.313  0.00  0.00    +0.000 Cl
ATOM     10  C   UNL     1       5.912  13.125  23.031  0.00  0.00    +0.000 A 
ATOM     11  C   UNL     1       5.278  13.991  22.137  0.00  0.00    +0.000 A 
ATOM     12  N   UNL     1       3.886  13.862  21.913  0.00  0.00    +0.000 NA
ATOM     13  C   UNL     1       3.264  14.630  21.045  0.00  0.00    +0.000 A 
ATOM     14  N   UNL     1       1.915  14.402  20.807  0.00  0.00    +0.000 N 
ATOM     15  C   UNL     1       1.419  14.018  19.466  0.00  0.00    +0.000 C 
ATOM     16  C   UNL     1       0.487  12.799  19.509  0.00  0.00    +0.000 C 
ATOM     17  N   UNL     1      -0.573  13.013  20.496  0.00  0.00    +0.000 N 
ATOM     18  C   UNL     1      -1.891  13.108  20.065  0.00  0.00    +0.000 C 
ATOM     19  O   UNL     1      -2.235  12.859  18.912  0.00  0.00    +0.000 OA
ATOM     20  C   UNL     1      -0.044  13.170  21.851  0.00  0.00    +0.000 C 
ATOM     21  C   UNL     1       0.953  14.339  21.931  0.00  0.00    +0.000 C 
ATOM     22  N   UNL     1       3.981  15.660  20.370  0.00  0.00    +0.000 N 
ENDROOT
BRANCH   1  28
ATOM     23  C   UNL     1       0.451  18.276  16.007  0.00  0.00    +0.000 C 
ATOM     24  C   UNL     1       0.730  17.948  17.444  0.00  0.00    +0.000 A 
ATOM     25  C   UNL     1      -0.243  18.157  18.425  0.00  0.00    +0.000 A 
ATOM     26  C   UNL     1       0.071  17.977  19.768  0.00  0.00    +0.000 A 
ATOM     27  C   UNL     1       1.358  17.581  20.135  0.00  0.00    +0.000 A 
ATOM     28  C   UNL     1       2.305  17.227  19.173  0.00  0.00    +0.000 A 
ATOM     29  C   UNL     1       1.990  17.454  17.823  0.00  0.00    +0.000 A 
ENDBRANCH   1  28
BRANCH  18  30
ATOM     30  C   UNL     1      -2.965  13.522  21.008  0.00  0.00    +0.000 A 
ATOM     31  C   UNL     1      -3.628  12.587  21.805  0.00  0.00    +0.000 A 
ATOM     32  C   UNL     1      -4.656  13.000  22.661  0.00  0.00    +0.000 A 
ATOM     33  C   UNL     1      -4.979  14.352  22.763  0.00  0.00    +0.000 A 
ATOM     34  C   UNL     1      -4.259  15.300  22.029  0.00  0.00    +0.000 A 
ATOM     35  C   UNL     1      -3.251  14.886  21.156  0.00  0.00    +0.000 A 
ENDBRANCH  18  30
TORSDOF 2
ENDMDL
MODEL 9
REMARK VINA RESULT:      -6.3      3.681      7.055
REMARK  Name = 
REMARK  3 active torsions:
REMARK  status: ('A' for Active; 'I' for Inactive)
REMARK    1  A    between atoms: C_1  and  C_2
REMARK    2  A    between atoms: C_6  and  C_7
REMARK    3  A    between atoms: C_24  and  C_26
REMARK                            x       y       z     vdW  Elec       q    Type
REMARK                         _______ _______ _______ _____ _____    ______ ____
ROOT
ATOM      1  C   UNL     1       2.732  16.755  19.306  0.00  0.00    +0.000 A 
ATOM      2  N   UNL     1       3.767  17.317  18.695  0.00  0.00    +0.000 NA
ATOM      3  N   UNL     1       4.924  16.832  19.234  0.00  0.00    +0.000 NA
ATOM      4  C   UNL     1       4.588  15.946  20.140  0.00  0.00    +0.000 A 
ATOM      5  C   UNL     1       5.431  15.186  21.028  0.00  0.00    +0.000 A 
ATOM      6  C   UNL     1       6.822  15.334  21.059  0.00  0.00    +0.000 A 
ATOM      7  C   UNL     1       7.579  14.549  21.927  0.00  0.00    +0.000 A 
ATOM      8  C   UNL     1       6.938  13.629  22.759  0.00  0.00    +0.000 A 
ATOM      9 CL   UNL     1       7.878  12.641  23.809  0.00  0.00    +0.000 Cl
ATOM     10  C   UNL     1       5.547  13.494  22.739  0.00  0.00    +0.000 A 
ATOM     11  C   UNL     1       4.779  14.273  21.871  0.00  0.00    +0.000 A 
ATOM     12  N   UNL     1       3.375  14.094  21.835  0.00  0.00    +0.000 NA
ATOM     13  C   UNL     1       2.625  14.778  20.999  0.00  0.00    +0.000 A 
ATOM     14  N   UNL     1       1.265  14.500  20.950  0.00  0.00    +0.000 N 
ATOM     15  C   UNL     1       0.620  14.003  19.713  0.00  0.00    +0.000 C 
ATOM     16  C   UNL     1      -0.258  12.768  19.962  0.00  0.00    +0.000 C 
ATOM     17  N   UNL     1      -1.194  13.031  21.056  0.00  0.00    +0.000 N 
ATOM     18  C   UNL     1      -2.557  13.061  20.790  0.00  0.00    +0.000 C 
ATOM     19  O   UNL     1      -3.033  12.716  19.710  0.00  0.00    +0.000 OA
ATOM     20  C   UNL     1      -0.507  13.304  22.319  0.00  0.00    +0.000 C 
ATOM     21  C   UNL     1       0.452  14.499  22.188  0.00  0.00    +0.000 C 
ATOM     22  N   UNL     1       3.218  15.771  20.166  0.00  0.00    +0.000 N 
ENDROOT
BRANCH   1  28
ATOM     23  C   UNL     1      -1.551  18.556  21.148  0.00  0.00    +0.000 C 
ATOM     24  C   UNL     1      -0.730  18.124  19.969  0.00  0.00    +0.000 A 
ATOM     25  C   UNL     1      -1.278  18.113  18.684  0.00  0.00    +0.000 A 
ATOM     26  C   UNL     1      -0.553  17.584  17.622  0.00  0.00    +0.000 A 
ATOM     27  C   UNL     1       0.727  17.072  17.839  0.00  0.00    +0.000 A 
ATOM     28  C   UNL     1       1.354  17.201  19.079  0.00  0.00    +0.000 A 
ATOM     29  C   UNL     1       0.596  17.697  20.152  0.00  0.00    +0.000 A 
ENDBRANCH   1  28
BRANCH  18  30
ATOM     30  C   UNL     1      -3.520  13.519  21.828  0.00  0.00    +0.000 A 
ATOM     31  C   UNL     1      -4.049  12.631  22.767  0.00  0.00    +0.000 A 
ATOM     32  C   UNL     1      -4.976  13.083  23.713  0.00  0.00    +0.000 A 
ATOM     33  C   UNL     1      -5.328  14.431  23.758  0.00  0.00    +0.000 A 
ATOM     34  C   UNL     1      -4.735  15.338  22.874  0.00  0.00    +0.000 A 
ATOM     35  C   UNL     1      -3.830  14.884  21.913  0.00  0.00    +0.000 A 
ENDBRANCH  18  30
TORSDOF 2
ENDMDL
