MODEL 1
REMARK VINA RESULT:      -7.0      0.000      0.000
REMARK  Name = 
REMARK  9 active torsions:
REMARK  status: ('A' for Active; 'I' for Inactive)
REMARK    1  A    between atoms: C_1  and  O_2
REMARK    2  A    between atoms: O_2  and  C_3
REMARK    3  A    between atoms: C_3  and  C_5
REMARK    4  A    between atoms: C_5  and  C_6
REMARK    5  A    between atoms: C_6  and  C_7
REMARK    6  A    between atoms: C_7  and  C_8
REMARK    7  A    between atoms: C_8  and  C_9
REMARK    8  A    between atoms: N_11  and  C_12
REMARK    9  A    between atoms: C_14  and  N_15
REMARK                            x       y       z     vdW  Elec       q    Type
REMARK                         _______ _______ _______ _____ _____    ______ ____
ROOT
ATOM      1  C   UNL     1       6.052   4.747  18.222  0.00  0.00    +0.000 C 
ATOM      2  O   UNL     1       6.348   4.550  19.389  0.00  0.00    +0.000 OA
ATOM      3  N   UNL     1       4.779   5.080  17.779  0.00  0.00    +0.000 N 
ATOM      4  H   UNL     1       4.534   4.756  16.849  0.00  0.00    +0.000 HD
ENDROOT
BRANCH   3   5
ATOM      5  C   UNL     1       3.713   5.226  18.701  0.00  0.00    +0.000 A 
ATOM      6  C   UNL     1       3.315   4.131  19.478  0.00  0.00    +0.000 A 
ATOM      7  C   UNL     1       2.316   4.295  20.449  0.00  0.00    +0.000 A 
ATOM      8  C   UNL     1       1.707   5.543  20.644  0.00  0.00    +0.000 A 
ATOM      9  C   UNL     1       2.084   6.625  19.845  0.00  0.00    +0.000 A 
ATOM     10  C   UNL     1       3.081   6.469  18.877  0.00  0.00    +0.000 A 
ATOM     11 CL   UNL     1       3.416   7.795  17.822  0.00  0.00    +0.000 Cl
BRANCH   7  12
ATOM     12  N   UNL     1       1.903   3.152  21.277  0.00  0.00    +0.000 N 
ATOM     13  O   UNL     1       2.454   3.003  22.372  0.00  0.00    +0.000 OA
ATOM     14  O   UNL     1       1.000   2.423  20.836  0.00  0.00    +0.000 OA
ENDBRANCH   7  12
ENDBRANCH   3   5
BRANCH   1  15
ATOM     15  C   UNL     1       7.083   4.623  17.115  0.00  0.00    +0.000 C 
BRANCH  15  16
ATOM     16  C   UNL     1       6.645   5.328  15.824  0.00  0.00    +0.000 C 
BRANCH  16  17
ATOM     17  C   UNL     1       7.103   4.581  14.570  0.00  0.00    +0.000 C 
BRANCH  17  18
ATOM     18  C   UNL     1       5.933   3.919  13.853  0.00  0.00    +0.000 C 
BRANCH  18  19
ATOM     19  C   UNL     1       6.305   3.577  12.430  0.00  0.00    +0.000 C 
ATOM     20  O   UNL     1       7.225   4.097  11.823  0.00  0.00    +0.000 OA
BRANCH  19  22
ATOM     21  C   UNL     1       4.276   3.184  11.336  0.00  0.00    +0.000 C 
ATOM     22  O   UNL     1       5.455   2.637  11.932  0.00  0.00    +0.000 OA
ENDBRANCH  19  22
ENDBRANCH  18  19
ENDBRANCH  17  18
ENDBRANCH  16  17
ENDBRANCH  15  16
ENDBRANCH   1  15
TORSDOF 8
ENDMDL
MODEL 2
REMARK VINA RESULT:      -7.0      2.653      7.237
REMARK  Name = 
REMARK  9 active torsions:
REMARK  status: ('A' for Active; 'I' for Inactive)
REMARK    1  A    between atoms: C_1  and  O_2
REMARK    2  A    between atoms: O_2  and  C_3
REMARK    3  A    between atoms: C_3  and  C_5
REMARK    4  A    between atoms: C_5  and  C_6
REMARK    5  A    between atoms: C_6  and  C_7
REMARK    6  A    between atoms: C_7  and  C_8
REMARK    7  A    between atoms: C_8  and  C_9
REMARK    8  A    between atoms: N_11  and  C_12
REMARK    9  A    between atoms: C_14  and  N_15
REMARK                            x       y       z     vdW  Elec       q    Type
REMARK                         _______ _______ _______ _____ _____    ______ ____
ROOT
ATOM      1  C   UNL     1       3.164   2.638  17.891  0.00  0.00    +0.000 C 
ATOM      2  O   UNL     1       3.978   1.738  18.022  0.00  0.00    +0.000 OA
ATOM      3  N   UNL     1       3.472   3.917  17.445  0.00  0.00    +0.000 N 
ATOM      4  H   UNL     1       2.897   4.666  17.815  0.00  0.00    +0.000 HD
ENDROOT
BRANCH   3   5
ATOM      5  C   UNL     1       4.802   4.253  17.090  0.00  0.00    +0.000 A 
ATOM      6  C   UNL     1       5.197   4.191  15.748  0.00  0.00    +0.000 A 
ATOM      7  C   UNL     1       6.487   4.603  15.384  0.00  0.00    +0.000 A 
ATOM      8  C   UNL     1       7.388   5.067  16.353  0.00  0.00    +0.000 A 
ATOM      9  C   UNL     1       7.002   5.096  17.695  0.00  0.00    +0.000 A 
ATOM     10  C   UNL     1       5.716   4.690  18.063  0.00  0.00    +0.000 A 
ATOM     11 CL   UNL     1       5.330   4.613  19.746  0.00  0.00    +0.000 Cl
BRANCH   7  12
ATOM     12  N   UNL     1       6.903   4.552  13.974  0.00  0.00    +0.000 N 
ATOM     13  O   UNL     1       6.333   3.745  13.233  0.00  0.00    +0.000 OA
ATOM     14  O   UNL     1       7.783   5.348  13.609  0.00  0.00    +0.000 OA
ENDBRANCH   7  12
ENDBRANCH   3   5
BRANCH   1  15
ATOM     15  C   UNL     1       1.700   2.434  18.235  0.00  0.00    +0.000 C 
BRANCH  15  16
ATOM     16  C   UNL     1       1.429   2.565  19.740  0.00  0.00    +0.000 C 
BRANCH  16  17
ATOM     17  C   UNL     1       0.813   3.917  20.104  0.00  0.00    +0.000 C 
BRANCH  17  18
ATOM     18  C   UNL     1       1.819   4.821  20.805  0.00  0.00    +0.000 C 
BRANCH  18  19
ATOM     19  C   UNL     1       2.027   6.095  20.021  0.00  0.00    +0.000 C 
ATOM     20  O   UNL     1       2.301   6.127  18.834  0.00  0.00    +0.000 OA
BRANCH  19  22
ATOM     21  C   UNL     1       1.515   8.374  20.146  0.00  0.00    +0.000 C 
ATOM     22  O   UNL     1       1.892   7.178  20.835  0.00  0.00    +0.000 OA
ENDBRANCH  19  22
ENDBRANCH  18  19
ENDBRANCH  17  18
ENDBRANCH  16  17
ENDBRANCH  15  16
ENDBRANCH   1  15
TORSDOF 8
ENDMDL
MODEL 3
REMARK VINA RESULT:      -6.8      0.952      1.322
REMARK  Name = 
REMARK  9 active torsions:
REMARK  status: ('A' for Active; 'I' for Inactive)
REMARK    1  A    between atoms: C_1  and  O_2
REMARK    2  A    between atoms: O_2  and  C_3
REMARK    3  A    between atoms: C_3  and  C_5
REMARK    4  A    between atoms: C_5  and  C_6
REMARK    5  A    between atoms: C_6  and  C_7
REMARK    6  A    between atoms: C_7  and  C_8
REMARK    7  A    between atoms: C_8  and  C_9
REMARK    8  A    between atoms: N_11  and  C_12
REMARK    9  A    between atoms: C_14  and  N_15
REMARK                            x       y       z     vdW  Elec       q    Type
REMARK                         _______ _______ _______ _____ _____    ______ ____
ROOT
ATOM      1  C   UNL     1       6.169   4.642  17.776  0.00  0.00    +0.000 C 
ATOM      2  O   UNL     1       6.664   4.823  18.876  0.00  0.00    +0.000 OA
ATOM      3  N   UNL     1       4.803   4.590  17.529  0.00  0.00    +0.000 N 
ATOM      4  H   UNL     1       4.514   3.989  16.763  0.00  0.00    +0.000 HD
ENDROOT
BRANCH   3   5
ATOM      5  C   UNL     1       3.875   4.766  18.584  0.00  0.00    +0.000 A 
ATOM      6  C   UNL     1       3.621   3.708  19.466  0.00  0.00    +0.000 A 
ATOM      7  C   UNL     1       2.766   3.906  20.559  0.00  0.00    +0.000 A 
ATOM      8  C   UNL     1       2.155   5.150  20.773  0.00  0.00    +0.000 A 
ATOM      9  C   UNL     1       2.384   6.192  19.872  0.00  0.00    +0.000 A 
ATOM     10  C   UNL     1       3.238   6.003  18.782  0.00  0.00    +0.000 A 
ATOM     11 CL   UNL     1       3.383   7.275  17.621  0.00  0.00    +0.000 Cl
BRANCH   7  12
ATOM     12  N   UNL     1       2.506   2.802  21.497  0.00  0.00    +0.000 N 
ATOM     13  O   UNL     1       1.375   2.716  21.987  0.00  0.00    +0.000 OA
ATOM     14  O   UNL     1       3.432   2.006  21.714  0.00  0.00    +0.000 OA
ENDBRANCH   7  12
ENDBRANCH   3   5
BRANCH   1  15
ATOM     15  C   UNL     1       7.033   4.431  16.546  0.00  0.00    +0.000 C 
BRANCH  15  16
ATOM     16  C   UNL     1       6.310   4.817  15.249  0.00  0.00    +0.000 C 
BRANCH  16  17
ATOM     17  C   UNL     1       6.025   3.605  14.360  0.00  0.00    +0.000 C 
BRANCH  17  18
ATOM     18  C   UNL     1       6.338   3.896  12.898  0.00  0.00    +0.000 C 
BRANCH  18  19
ATOM     19  C   UNL     1       5.426   3.106  11.990  0.00  0.00    +0.000 C 
ATOM     20  O   UNL     1       4.387   3.539  11.524  0.00  0.00    +0.000 OA
BRANCH  19  22
ATOM     21  C   UNL     1       7.122   1.816  11.025  0.00  0.00    +0.000 C 
ATOM     22  O   UNL     1       5.920   1.851  11.800  0.00  0.00    +0.000 OA
ENDBRANCH  19  22
ENDBRANCH  18  19
ENDBRANCH  17  18
ENDBRANCH  16  17
ENDBRANCH  15  16
ENDBRANCH   1  15
TORSDOF 8
ENDMDL
MODEL 4
REMARK VINA RESULT:      -6.8      3.208      6.984
REMARK  Name = 
REMARK  9 active torsions:
REMARK  status: ('A' for Active; 'I' for Inactive)
REMARK    1  A    between atoms: C_1  and  O_2
REMARK    2  A    between atoms: O_2  and  C_3
REMARK    3  A    between atoms: C_3  and  C_5
REMARK    4  A    between atoms: C_5  and  C_6
REMARK    5  A    between atoms: C_6  and  C_7
REMARK    6  A    between atoms: C_7  and  C_8
REMARK    7  A    between atoms: C_8  and  C_9
REMARK    8  A    between atoms: N_11  and  C_12
REMARK    9  A    between atoms: C_14  and  N_15
REMARK                            x       y       z     vdW  Elec       q    Type
REMARK                         _______ _______ _______ _____ _____    ______ ____
ROOT
ATOM      1  C   UNL     1       3.164   3.540  17.417  0.00  0.00    +0.000 C 
ATOM      2  O   UNL     1       2.766   4.693  17.416  0.00  0.00    +0.000 OA
ATOM      3  N   UNL     1       4.489   3.166  17.238  0.00  0.00    +0.000 N 
ATOM      4  H   UNL     1       4.640   2.268  16.788  0.00  0.00    +0.000 HD
ENDROOT
BRANCH   3   5
ATOM      5  C   UNL     1       5.493   4.147  17.049  0.00  0.00    +0.000 A 
ATOM      6  C   UNL     1       6.142   4.697  18.162  0.00  0.00    +0.000 A 
ATOM      7  C   UNL     1       7.192   5.606  17.974  0.00  0.00    +0.000 A 
ATOM      8  C   UNL     1       7.594   5.978  16.683  0.00  0.00    +0.000 A 
ATOM      9  C   UNL     1       6.922   5.453  15.576  0.00  0.00    +0.000 A 
ATOM     10  C   UNL     1       5.877   4.543  15.757  0.00  0.00    +0.000 A 
ATOM     11 CL   UNL     1       4.988   4.028  14.368  0.00  0.00    +0.000 Cl
BRANCH   7  12
ATOM     12  N   UNL     1       7.886   6.177  19.139  0.00  0.00    +0.000 N 
ATOM     13  O   UNL     1       7.842   5.549  20.202  0.00  0.00    +0.000 OA
ATOM     14  O   UNL     1       8.502   7.242  18.973  0.00  0.00    +0.000 OA
ENDBRANCH   7  12
ENDBRANCH   3   5
BRANCH   1  15
ATOM     15  C   UNL     1       2.208   2.376  17.603  0.00  0.00    +0.000 C 
BRANCH  15  16
ATOM     16  C   UNL     1       2.148   1.893  19.059  0.00  0.00    +0.000 C 
BRANCH  16  17
ATOM     17  C   UNL     1       0.826   2.256  19.737  0.00  0.00    +0.000 C 
BRANCH  17  18
ATOM     18  C   UNL     1       0.813   3.707  20.199  0.00  0.00    +0.000 C 
BRANCH  18  19
ATOM     19  C   UNL     1       1.954   3.973  21.153  0.00  0.00    +0.000 C 
ATOM     20  O   UNL     1       2.150   3.338  22.174  0.00  0.00    +0.000 OA
BRANCH  19  22
ATOM     21  C   UNL     1       1.949   6.233  20.551  0.00  0.00    +0.000 C 
ATOM     22  O   UNL     1       2.698   5.026  20.717  0.00  0.00    +0.000 OA
ENDBRANCH  19  22
ENDBRANCH  18  19
ENDBRANCH  17  18
ENDBRANCH  16  17
ENDBRANCH  15  16
ENDBRANCH   1  15
TORSDOF 8
ENDMDL
MODEL 5
REMARK VINA RESULT:      -6.7      2.618      6.579
REMARK  Name = 
REMARK  9 active torsions:
REMARK  status: ('A' for Active; 'I' for Inactive)
REMARK    1  A    between atoms: C_1  and  O_2
REMARK    2  A    between atoms: O_2  and  C_3
REMARK    3  A    between atoms: C_3  and  C_5
REMARK    4  A    between atoms: C_5  and  C_6
REMARK    5  A    between atoms: C_6  and  C_7
REMARK    6  A    between atoms: C_7  and  C_8
REMARK    7  A    between atoms: C_8  and  C_9
REMARK    8  A    between atoms: N_11  and  C_12
REMARK    9  A    between atoms: C_14  and  N_15
REMARK                            x       y       z     vdW  Elec       q    Type
REMARK                         _______ _______ _______ _____ _____    ______ ____
ROOT
ATOM      1  C   UNL     1       4.544   2.843  19.267  0.00  0.00    +0.000 C 
ATOM      2  O   UNL     1       3.923   2.390  18.320  0.00  0.00    +0.000 OA
ATOM      3  N   UNL     1       5.247   4.041  19.245  0.00  0.00    +0.000 N 
ATOM      4  H   UNL     1       6.068   4.084  19.840  0.00  0.00    +0.000 HD
ENDROOT
BRANCH   3   5
ATOM      5  C   UNL     1       5.269   4.839  18.075  0.00  0.00    +0.000 A 
ATOM      6  C   UNL     1       6.089   4.471  17.001  0.00  0.00    +0.000 A 
ATOM      7  C   UNL     1       6.051   5.213  15.812  0.00  0.00    +0.000 A 
ATOM      8  C   UNL     1       5.205   6.325  15.690  0.00  0.00    +0.000 A 
ATOM      9  C   UNL     1       4.413   6.709  16.775  0.00  0.00    +0.000 A 
ATOM     10  C   UNL     1       4.444   5.971  17.962  0.00  0.00    +0.000 A 
ATOM     11 CL   UNL     1       3.554   6.562  19.320  0.00  0.00    +0.000 Cl
BRANCH   7  12
ATOM     12  N   UNL     1       6.900   4.824  14.676  0.00  0.00    +0.000 N 
ATOM     13  O   UNL     1       7.905   5.505  14.447  0.00  0.00    +0.000 OA
ATOM     14  O   UNL     1       6.571   3.814  14.035  0.00  0.00    +0.000 OA
ENDBRANCH   7  12
ENDBRANCH   3   5
BRANCH   1  15
ATOM     15  C   UNL     1       4.620   2.101  20.589  0.00  0.00    +0.000 C 
BRANCH  15  16
ATOM     16  C   UNL     1       3.238   1.899  21.227  0.00  0.00    +0.000 C 
BRANCH  16  17
ATOM     17  C   UNL     1       2.484   3.217  21.408  0.00  0.00    +0.000 C 
BRANCH  17  18
ATOM     18  C   UNL     1       1.011   3.074  21.048  0.00  0.00    +0.000 C 
BRANCH  18  19
ATOM     19  C   UNL     1       0.826   3.084  19.549  0.00  0.00    +0.000 C 
ATOM     20  O   UNL     1       0.350   2.159  18.915  0.00  0.00    +0.000 OA
BRANCH  19  22
ATOM     21  C   UNL     1       1.309   4.275  17.594  0.00  0.00    +0.000 C 
ATOM     22  O   UNL     1       1.288   4.253  19.024  0.00  0.00    +0.000 OA
ENDBRANCH  19  22
ENDBRANCH  18  19
ENDBRANCH  17  18
ENDBRANCH  16  17
ENDBRANCH  15  16
ENDBRANCH   1  15
TORSDOF 8
ENDMDL
MODEL 6
REMARK VINA RESULT:      -6.7      4.289      8.628
REMARK  Name = 
REMARK  9 active torsions:
REMARK  status: ('A' for Active; 'I' for Inactive)
REMARK    1  A    between atoms: C_1  and  O_2
REMARK    2  A    between atoms: O_2  and  C_3
REMARK    3  A    between atoms: C_3  and  C_5
REMARK    4  A    between atoms: C_5  and  C_6
REMARK    5  A    between atoms: C_6  and  C_7
REMARK    6  A    between atoms: C_7  and  C_8
REMARK    7  A    between atoms: C_8  and  C_9
REMARK    8  A    between atoms: N_11  and  C_12
REMARK    9  A    between atoms: C_14  and  N_15
REMARK                            x       y       z     vdW  Elec       q    Type
REMARK                         _______ _______ _______ _____ _____    ______ ____
ROOT
ATOM      1  C   UNL     1       2.429   7.869  18.411  0.00  0.00    +0.000 C 
ATOM      2  O   UNL     1       2.570   8.228  17.254  0.00  0.00    +0.000 OA
ATOM      3  N   UNL     1       2.924   6.679  18.930  0.00  0.00    +0.000 N 
ATOM      4  H   UNL     1       2.381   6.263  19.680  0.00  0.00    +0.000 HD
ENDROOT
BRANCH   3   5
ATOM      5  C   UNL     1       3.660   5.790  18.110  0.00  0.00    +0.000 A 
ATOM      6  C   UNL     1       5.019   6.033  17.871  0.00  0.00    +0.000 A 
ATOM      7  C   UNL     1       5.769   5.110  17.128  0.00  0.00    +0.000 A 
ATOM      8  C   UNL     1       5.171   3.950  16.615  0.00  0.00    +0.000 A 
ATOM      9  C   UNL     1       3.808   3.728  16.827  0.00  0.00    +0.000 A 
ATOM     10  C   UNL     1       3.055   4.643  17.569  0.00  0.00    +0.000 A 
ATOM     11 CL   UNL     1       1.349   4.396  17.689  0.00  0.00    +0.000 Cl
BRANCH   7  12
ATOM     12  N   UNL     1       7.199   5.353  16.885  0.00  0.00    +0.000 N 
ATOM     13  O   UNL     1       7.991   4.439  17.136  0.00  0.00    +0.000 OA
ATOM     14  O   UNL     1       7.520   6.455  16.411  0.00  0.00    +0.000 OA
ENDBRANCH   7  12
ENDBRANCH   3   5
BRANCH   1  15
ATOM     15  C   UNL     1       1.659   8.712  19.411  0.00  0.00    +0.000 C 
BRANCH  15  16
ATOM     16  C   UNL     1       1.460   7.993  20.753  0.00  0.00    +0.000 C 
BRANCH  16  17
ATOM     17  C   UNL     1       1.143   8.964  21.891  0.00  0.00    +0.000 C 
BRANCH  17  18
ATOM     18  C   UNL     1      -0.206   9.644  21.688  0.00  0.00    +0.000 C 
BRANCH  18  19
ATOM     19  C   UNL     1      -0.055  11.146  21.715  0.00  0.00    +0.000 C 
ATOM     20  O   UNL     1       0.382  11.803  20.787  0.00  0.00    +0.000 OA
BRANCH  19  22
ATOM     21  C   UNL     1      -1.862  11.575  23.137  0.00  0.00    +0.000 C 
ATOM     22  O   UNL     1      -0.450  11.639  22.921  0.00  0.00    +0.000 OA
ENDBRANCH  19  22
ENDBRANCH  18  19
ENDBRANCH  17  18
ENDBRANCH  16  17
ENDBRANCH  15  16
ENDBRANCH   1  15
TORSDOF 8
ENDMDL
MODEL 7
REMARK VINA RESULT:      -6.6      2.471      7.104
REMARK  Name = 
REMARK  9 active torsions:
REMARK  status: ('A' for Active; 'I' for Inactive)
REMARK    1  A    between atoms: C_1  and  O_2
REMARK    2  A    between atoms: O_2  and  C_3
REMARK    3  A    between atoms: C_3  and  C_5
REMARK    4  A    between atoms: C_5  and  C_6
REMARK    5  A    between atoms: C_6  and  C_7
REMARK    6  A    between atoms: C_7  and  C_8
REMARK    7  A    between atoms: C_8  and  C_9
REMARK    8  A    between atoms: N_11  and  C_12
REMARK    9  A    between atoms: C_14  and  N_15
REMARK                            x       y       z     vdW  Elec       q    Type
REMARK                         _______ _______ _______ _____ _____    ______ ____
ROOT
ATOM      1  C   UNL     1       3.271   3.072  18.224  0.00  0.00    +0.000 C 
ATOM      2  O   UNL     1       4.020   2.112  18.305  0.00  0.00    +0.000 OA
ATOM      3  N   UNL     1       3.600   4.275  17.613  0.00  0.00    +0.000 N 
ATOM      4  H   UNL     1       3.159   5.104  18.000  0.00  0.00    +0.000 HD
ENDROOT
BRANCH   3   5
ATOM      5  C   UNL     1       4.871   4.453  17.015  0.00  0.00    +0.000 A 
ATOM      6  C   UNL     1       5.039   4.177  15.652  0.00  0.00    +0.000 A 
ATOM      7  C   UNL     1       6.274   4.431  15.039  0.00  0.00    +0.000 A 
ATOM      8  C   UNL     1       7.346   4.951  15.780  0.00  0.00    +0.000 A 
ATOM      9  C   UNL     1       7.185   5.193  17.146  0.00  0.00    +0.000 A 
ATOM     10  C   UNL     1       5.954   4.945  17.762  0.00  0.00    +0.000 A 
ATOM     11 CL   UNL     1       5.843   5.130  19.476  0.00  0.00    +0.000 Cl
BRANCH   7  12
ATOM     12  N   UNL     1       6.453   4.155  13.605  0.00  0.00    +0.000 N 
ATOM     13  O   UNL     1       5.691   3.340  13.075  0.00  0.00    +0.000 OA
ATOM     14  O   UNL     1       7.341   4.783  13.008  0.00  0.00    +0.000 OA
ENDBRANCH   7  12
ENDBRANCH   3   5
BRANCH   1  15
ATOM     15  C   UNL     1       1.876   3.038  18.822  0.00  0.00    +0.000 C 
BRANCH  15  16
ATOM     16  C   UNL     1       1.895   3.105  20.356  0.00  0.00    +0.000 C 
BRANCH  16  17
ATOM     17  C   UNL     1       2.302   4.486  20.871  0.00  0.00    +0.000 C 
BRANCH  17  18
ATOM     18  C   UNL     1       1.294   5.555  20.469  0.00  0.00    +0.000 C 
BRANCH  18  19
ATOM     19  C   UNL     1       1.998   6.843  20.111  0.00  0.00    +0.000 C 
ATOM     20  O   UNL     1       1.864   7.886  20.725  0.00  0.00    +0.000 OA
BRANCH  19  22
ATOM     21  C   UNL     1       2.693   7.748  18.068  0.00  0.00    +0.000 C 
ATOM     22  O   UNL     1       2.768   6.667  19.002  0.00  0.00    +0.000 OA
ENDBRANCH  19  22
ENDBRANCH  18  19
ENDBRANCH  17  18
ENDBRANCH  16  17
ENDBRANCH  15  16
ENDBRANCH   1  15
TORSDOF 8
ENDMDL
MODEL 8
REMARK VINA RESULT:      -6.6      2.493      7.281
REMARK  Name = 
REMARK  9 active torsions:
REMARK  status: ('A' for Active; 'I' for Inactive)
REMARK    1  A    between atoms: C_1  and  O_2
REMARK    2  A    between atoms: O_2  and  C_3
REMARK    3  A    between atoms: C_3  and  C_5
REMARK    4  A    between atoms: C_5  and  C_6
REMARK    5  A    between atoms: C_6  and  C_7
REMARK    6  A    between atoms: C_7  and  C_8
REMARK    7  A    between atoms: C_8  and  C_9
REMARK    8  A    between atoms: N_11  and  C_12
REMARK    9  A    between atoms: C_14  and  N_15
REMARK                            x       y       z     vdW  Elec       q    Type
REMARK                         _______ _______ _______ _____ _____    ______ ____
ROOT
ATOM      1  C   UNL     1       2.930   3.025  17.248  0.00  0.00    +0.000 C 
ATOM      2  O   UNL     1       2.396   3.776  16.447  0.00  0.00    +0.000 OA
ATOM      3  N   UNL     1       4.260   3.110  17.638  0.00  0.00    +0.000 N 
ATOM      4  H   UNL     1       4.706   2.232  17.884  0.00  0.00    +0.000 HD
ENDROOT
BRANCH   3   5
ATOM      5  C   UNL     1       5.099   4.123  17.113  0.00  0.00    +0.000 A 
ATOM      6  C   UNL     1       5.682   3.954  15.851  0.00  0.00    +0.000 A 
ATOM      7  C   UNL     1       6.446   4.991  15.295  0.00  0.00    +0.000 A 
ATOM      8  C   UNL     1       6.638   6.191  15.993  0.00  0.00    +0.000 A 
ATOM      9  C   UNL     1       6.082   6.343  17.266  0.00  0.00    +0.000 A 
ATOM     10  C   UNL     1       5.317   5.315  17.824  0.00  0.00    +0.000 A 
ATOM     11 CL   UNL     1       4.767   5.493  19.453  0.00  0.00    +0.000 Cl
BRANCH   7  12
ATOM     12  N   UNL     1       7.050   4.824  13.964  0.00  0.00    +0.000 N 
ATOM     13  O   UNL     1       8.006   5.550  13.670  0.00  0.00    +0.000 OA
ATOM     14  O   UNL     1       6.581   3.942  13.229  0.00  0.00    +0.000 OA
ENDBRANCH   7  12
ENDBRANCH   3   5
BRANCH   1  15
ATOM     15  C   UNL     1       2.163   1.885  17.894  0.00  0.00    +0.000 C 
BRANCH  15  16
ATOM     16  C   UNL     1       0.965   2.377  18.717  0.00  0.00    +0.000 C 
BRANCH  16  17
ATOM     17  C   UNL     1       1.201   3.765  19.314  0.00  0.00    +0.000 C 
BRANCH  17  18
ATOM     18  C   UNL     1       1.096   3.748  20.834  0.00  0.00    +0.000 C 
BRANCH  18  19
ATOM     19  C   UNL     1       2.171   2.873  21.432  0.00  0.00    +0.000 C 
ATOM     20  O   UNL     1       1.979   2.078  22.335  0.00  0.00    +0.000 OA
BRANCH  19  22
ATOM     21  C   UNL     1       4.273   2.015  20.869  0.00  0.00    +0.000 C 
ATOM     22  O   UNL     1       3.370   3.123  20.837  0.00  0.00    +0.000 OA
ENDBRANCH  19  22
ENDBRANCH  18  19
ENDBRANCH  17  18
ENDBRANCH  16  17
ENDBRANCH  15  16
ENDBRANCH   1  15
TORSDOF 8
ENDMDL
MODEL 9
REMARK VINA RESULT:      -6.6      4.631      6.396
REMARK  Name = 
REMARK  9 active torsions:
REMARK  status: ('A' for Active; 'I' for Inactive)
REMARK    1  A    between atoms: C_1  and  O_2
REMARK    2  A    between atoms: O_2  and  C_3
REMARK    3  A    between atoms: C_3  and  C_5
REMARK    4  A    between atoms: C_5  and  C_6
REMARK    5  A    between atoms: C_6  and  C_7
REMARK    6  A    between atoms: C_7  and  C_8
REMARK    7  A    between atoms: C_8  and  C_9
REMARK    8  A    between atoms: N_11  and  C_12
REMARK    9  A    between atoms: C_14  and  N_15
REMARK                            x       y       z     vdW  Elec       q    Type
REMARK                         _______ _______ _______ _____ _____    ______ ____
ROOT
ATOM      1  C   UNL     1       6.795   6.409  17.912  0.00  0.00    +0.000 C 
ATOM      2  O   UNL     1       7.304   5.541  18.602  0.00  0.00    +0.000 OA
ATOM      3  N   UNL     1       5.462   6.423  17.523  0.00  0.00    +0.000 N 
ATOM      4  H   UNL     1       5.267   6.856  16.626  0.00  0.00    +0.000 HD
ENDROOT
BRANCH   3   5
ATOM      5  C   UNL     1       4.583   5.393  17.935  0.00  0.00    +0.000 A 
ATOM      6  C   UNL     1       3.847   5.543  19.117  0.00  0.00    +0.000 A 
ATOM      7  C   UNL     1       2.915   4.562  19.484  0.00  0.00    +0.000 A 
ATOM      8  C   UNL     1       2.719   3.427  18.684  0.00  0.00    +0.000 A 
ATOM      9  C   UNL     1       3.479   3.265  17.523  0.00  0.00    +0.000 A 
ATOM     10  C   UNL     1       4.407   4.241  17.150  0.00  0.00    +0.000 A 
ATOM     11 CL   UNL     1       5.419   3.932  15.784  0.00  0.00    +0.000 Cl
BRANCH   7  12
ATOM     12  N   UNL     1       2.129   4.720  20.718  0.00  0.00    +0.000 N 
ATOM     13  O   UNL     1       1.461   5.751  20.848  0.00  0.00    +0.000 OA
ATOM     14  O   UNL     1       2.161   3.791  21.540  0.00  0.00    +0.000 OA
ENDBRANCH   7  12
ENDBRANCH   3   5
BRANCH   1  15
ATOM     15  C   UNL     1       7.610   7.578  17.387  0.00  0.00    +0.000 C 
BRANCH  15  16
ATOM     16  C   UNL     1       8.412   8.276  18.494  0.00  0.00    +0.000 C 
BRANCH  16  17
ATOM     17  C   UNL     1       8.607   9.768  18.216  0.00  0.00    +0.000 C 
BRANCH  17  18
ATOM     18  C   UNL     1       9.433  10.438  19.307  0.00  0.00    +0.000 C 
BRANCH  18  19
ATOM     19  C   UNL     1      10.261  11.563  18.733  0.00  0.00    +0.000 C 
ATOM     20  O   UNL     1      10.806  11.520  17.644  0.00  0.00    +0.000 OA
BRANCH  19  22
ATOM     21  C   UNL     1      10.220  12.201  20.983  0.00  0.00    +0.000 C 
ATOM     22  O   UNL     1      10.324  12.600  19.613  0.00  0.00    +0.000 OA
ENDBRANCH  19  22
ENDBRANCH  18  19
ENDBRANCH  17  18
ENDBRANCH  16  17
ENDBRANCH  15  16
ENDBRANCH   1  15
TORSDOF 8
ENDMDL
