MODEL 1
REMARK VINA RESULT:      -8.8      0.000      0.000
REMARK  Name = 
REMARK  5 active torsions:
REMARK  status: ('A' for Active; 'I' for Inactive)
REMARK    1  A    between atoms: C_2  and  C_3
REMARK    2  A    between atoms: C_3  and  C_4
REMARK    3  A    between atoms: C_7  and  O_8
REMARK    4  A    between atoms: C_9  and  C_10
REMARK    5  A    between atoms: C_15  and  C_16
REMARK                            x       y       z     vdW  Elec       q    Type
REMARK                         _______ _______ _______ _____ _____    ______ ____
ROOT
ATOM      1  C   UNL     1       5.725   3.504  12.397  0.00  0.00    +0.000 A 
ATOM      2  C   UNL     1       6.986   4.037  12.118  0.00  0.00    +0.000 A 
ATOM      3  C   UNL     1       7.637   4.822  13.065  0.00  0.00    +0.000 A 
ATOM      4  C   UNL     1       7.038   5.072  14.305  0.00  0.00    +0.000 A 
ATOM      5  C   UNL     1       5.763   4.564  14.632  0.00  0.00    +0.000 A 
ATOM      6  C   UNL     1       5.131   3.776  13.644  0.00  0.00    +0.000 A 
ENDROOT
BRANCH   5   7
ATOM      7  C   UNL     1       5.076   4.827  15.931  0.00  0.00    +0.000 A 
ATOM      8  C   UNL     1       4.843   6.145  16.386  0.00  0.00    +0.000 A 
ATOM      9  C   UNL     1       4.218   6.433  17.611  0.00  0.00    +0.000 A 
ATOM     10  C   UNL     1       3.799   5.342  18.361  0.00  0.00    +0.000 A 
ATOM     11  O   UNL     1       3.152   5.398  19.560  0.00  0.00    +0.000 OA
ATOM     12  C   UNL     1       2.909   4.111  19.938  0.00  0.00    +0.000 A 
ATOM     13  C   UNL     1       2.199   3.920  21.218  0.00  0.00    +0.000 C 
ATOM     14  C   UNL     1       3.403   3.232  18.999  0.00  0.00    +0.000 A 
ATOM     15  C   UNL     1       3.986   4.023  17.976  0.00  0.00    +0.000 A 
ATOM     16  C   UNL     1       4.653   3.767  16.763  0.00  0.00    +0.000 A 
ENDBRANCH   5   7
BRANCH   4  17
ATOM     17  O   UNL     1       7.742   5.816  15.217  0.00  0.00    +0.000 OA
ATOM     18  H   UNL     1       7.881   5.290  16.021  0.00  0.00    +0.000 HD
ENDBRANCH   4  17
BRANCH   1  19
ATOM     19  C   UNL     1       5.021   2.628  11.384  0.00  0.00    +0.000 C 
BRANCH  19  21
ATOM     20  C   UNL     1       3.330   3.934  10.058  0.00  0.00    +0.000 C 
ATOM     21  C   UNL     1       3.634   3.118  11.075  0.00  0.00    +0.000 C 
ENDBRANCH  19  21
ENDBRANCH   1  19
TORSDOF 4
ENDMDL
MODEL 2
REMARK VINA RESULT:      -8.4      0.962      1.080
REMARK  Name = 
REMARK  5 active torsions:
REMARK  status: ('A' for Active; 'I' for Inactive)
REMARK    1  A    between atoms: C_2  and  C_3
REMARK    2  A    between atoms: C_3  and  C_4
REMARK    3  A    between atoms: C_7  and  O_8
REMARK    4  A    between atoms: C_9  and  C_10
REMARK    5  A    between atoms: C_15  and  C_16
REMARK                            x       y       z     vdW  Elec       q    Type
REMARK                         _______ _______ _______ _____ _____    ______ ____
ROOT
ATOM      1  C   UNL     1       5.891   3.456  12.469  0.00  0.00    +0.000 A 
ATOM      2  C   UNL     1       7.014   4.228  12.165  0.00  0.00    +0.000 A 
ATOM      3  C   UNL     1       7.599   5.026  13.144  0.00  0.00    +0.000 A 
ATOM      4  C   UNL     1       7.072   5.050  14.440  0.00  0.00    +0.000 A 
ATOM      5  C   UNL     1       5.934   4.296  14.796  0.00  0.00    +0.000 A 
ATOM      6  C   UNL     1       5.365   3.502  13.774  0.00  0.00    +0.000 A 
ENDROOT
BRANCH   5   7
ATOM      7  C   UNL     1       5.324   4.311  16.158  0.00  0.00    +0.000 A 
ATOM      8  C   UNL     1       6.122   4.416  17.320  0.00  0.00    +0.000 A 
ATOM      9  C   UNL     1       5.587   4.414  18.619  0.00  0.00    +0.000 A 
ATOM     10  C   UNL     1       4.204   4.336  18.716  0.00  0.00    +0.000 A 
ATOM     11  O   UNL     1       3.483   4.346  19.873  0.00  0.00    +0.000 OA
ATOM     12  C   UNL     1       2.168   4.271  19.520  0.00  0.00    +0.000 A 
ATOM     13  C   UNL     1       1.186   4.278  20.621  0.00  0.00    +0.000 C 
ATOM     14  C   UNL     1       2.041   4.203  18.150  0.00  0.00    +0.000 A 
ATOM     15  C   UNL     1       3.358   4.240  17.622  0.00  0.00    +0.000 A 
ATOM     16  C   UNL     1       3.927   4.202  16.335  0.00  0.00    +0.000 A 
ENDBRANCH   5   7
BRANCH   4  17
ATOM     17  O   UNL     1       7.712   5.820  15.377  0.00  0.00    +0.000 OA
ATOM     18  H   UNL     1       8.644   5.924  15.124  0.00  0.00    +0.000 HD
ENDBRANCH   4  17
BRANCH   1  19
ATOM     19  C   UNL     1       5.265   2.566  11.418  0.00  0.00    +0.000 C 
BRANCH  19  21
ATOM     20  C   UNL     1       3.483   3.896  10.244  0.00  0.00    +0.000 C 
ATOM     21  C   UNL     1       3.842   2.951  11.120  0.00  0.00    +0.000 C 
ENDBRANCH  19  21
ENDBRANCH   1  19
TORSDOF 4
ENDMDL
MODEL 3
REMARK VINA RESULT:      -8.3      2.102      7.304
REMARK  Name = 
REMARK  5 active torsions:
REMARK  status: ('A' for Active; 'I' for Inactive)
REMARK    1  A    between atoms: C_2  and  C_3
REMARK    2  A    between atoms: C_3  and  C_4
REMARK    3  A    between atoms: C_7  and  O_8
REMARK    4  A    between atoms: C_9  and  C_10
REMARK    5  A    between atoms: C_15  and  C_16
REMARK                            x       y       z     vdW  Elec       q    Type
REMARK                         _______ _______ _______ _____ _____    ______ ____
ROOT
ATOM      1  C   UNL     1       2.321   4.948  20.609  0.00  0.00    +0.000 A 
ATOM      2  C   UNL     1       2.268   3.707  21.247  0.00  0.00    +0.000 A 
ATOM      3  C   UNL     1       3.128   2.684  20.858  0.00  0.00    +0.000 A 
ATOM      4  C   UNL     1       4.059   2.898  19.835  0.00  0.00    +0.000 A 
ATOM      5  C   UNL     1       4.147   4.131  19.154  0.00  0.00    +0.000 A 
ATOM      6  C   UNL     1       3.255   5.142  19.573  0.00  0.00    +0.000 A 
ENDROOT
BRANCH   5   7
ATOM      7  C   UNL     1       5.106   4.394  18.041  0.00  0.00    +0.000 A 
ATOM      8  C   UNL     1       6.402   4.901  18.292  0.00  0.00    +0.000 A 
ATOM      9  C   UNL     1       7.325   5.180  17.270  0.00  0.00    +0.000 A 
ATOM     10  C   UNL     1       6.915   4.899  15.973  0.00  0.00    +0.000 A 
ATOM     11  O   UNL     1       7.661   5.069  14.845  0.00  0.00    +0.000 OA
ATOM     12  C   UNL     1       6.892   4.658  13.797  0.00  0.00    +0.000 A 
ATOM     13  C   UNL     1       7.502   4.740  12.456  0.00  0.00    +0.000 C 
ATOM     14  C   UNL     1       5.659   4.235  14.243  0.00  0.00    +0.000 A 
ATOM     15  C   UNL     1       5.664   4.394  15.653  0.00  0.00    +0.000 A 
ATOM     16  C   UNL     1       4.746   4.164  16.694  0.00  0.00    +0.000 A 
ENDBRANCH   5   7
BRANCH   4  17
ATOM     17  O   UNL     1       4.911   1.871  19.520  0.00  0.00    +0.000 OA
ATOM     18  H   UNL     1       4.917   1.742  18.558  0.00  0.00    +0.000 HD
ENDBRANCH   4  17
BRANCH   1  19
ATOM     19  C   UNL     1       1.408   6.074  21.043  0.00  0.00    +0.000 C 
BRANCH  19  21
ATOM     20  C   UNL     1       1.160   8.546  20.657  0.00  0.00    +0.000 C 
ATOM     21  C   UNL     1       1.808   7.394  20.445  0.00  0.00    +0.000 C 
ENDBRANCH  19  21
ENDBRANCH   1  19
TORSDOF 4
ENDMDL
MODEL 4
REMARK VINA RESULT:      -8.0      3.807      6.140
REMARK  Name = 
REMARK  5 active torsions:
REMARK  status: ('A' for Active; 'I' for Inactive)
REMARK    1  A    between atoms: C_2  and  C_3
REMARK    2  A    between atoms: C_3  and  C_4
REMARK    3  A    between atoms: C_7  and  O_8
REMARK    4  A    between atoms: C_9  and  C_10
REMARK    5  A    between atoms: C_15  and  C_16
REMARK                            x       y       z     vdW  Elec       q    Type
REMARK                         _______ _______ _______ _____ _____    ______ ____
ROOT
ATOM      1  C   UNL     1       5.552   5.723  17.148  0.00  0.00    +0.000 A 
ATOM      2  C   UNL     1       5.061   4.443  16.885  0.00  0.00    +0.000 A 
ATOM      3  C   UNL     1       3.736   4.129  17.175  0.00  0.00    +0.000 A 
ATOM      4  C   UNL     1       2.887   5.099  17.721  0.00  0.00    +0.000 A 
ATOM      5  C   UNL     1       3.337   6.404  18.013  0.00  0.00    +0.000 A 
ATOM      6  C   UNL     1       4.688   6.683  17.710  0.00  0.00    +0.000 A 
ENDROOT
BRANCH   5   7
ATOM      7  C   UNL     1       2.473   7.460  18.619  0.00  0.00    +0.000 A 
ATOM      8  C   UNL     1       1.966   8.528  17.844  0.00  0.00    +0.000 A 
ATOM      9  C   UNL     1       1.167   9.552  18.382  0.00  0.00    +0.000 A 
ATOM     10  C   UNL     1       0.861   9.451  19.733  0.00  0.00    +0.000 A 
ATOM     11  O   UNL     1       0.084  10.317  20.443  0.00  0.00    +0.000 OA
ATOM     12  C   UNL     1       0.026   9.841  21.719  0.00  0.00    +0.000 A 
ATOM     13  C   UNL     1      -0.780  10.619  22.680  0.00  0.00    +0.000 C 
ATOM     14  C   UNL     1       0.767   8.686  21.835  0.00  0.00    +0.000 A 
ATOM     15  C   UNL     1       1.316   8.429  20.552  0.00  0.00    +0.000 A 
ATOM     16  C   UNL     1       2.149   7.441  19.994  0.00  0.00    +0.000 A 
ENDBRANCH   5   7
BRANCH   4  17
ATOM     17  O   UNL     1       1.581   4.750  17.949  0.00  0.00    +0.000 OA
ATOM     18  H   UNL     1       1.534   3.805  18.165  0.00  0.00    +0.000 HD
ENDBRANCH   4  17
BRANCH   1  19
ATOM     19  C   UNL     1       6.983   6.080  16.811  0.00  0.00    +0.000 C 
BRANCH  19  21
ATOM     20  C   UNL     1       7.944   8.252  17.640  0.00  0.00    +0.000 C 
ATOM     21  C   UNL     1       7.607   6.972  17.848  0.00  0.00    +0.000 C 
ENDBRANCH  19  21
ENDBRANCH   1  19
TORSDOF 4
ENDMDL
MODEL 5
REMARK VINA RESULT:      -7.9      1.286      1.928
REMARK  Name = 
REMARK  5 active torsions:
REMARK  status: ('A' for Active; 'I' for Inactive)
REMARK    1  A    between atoms: C_2  and  C_3
REMARK    2  A    between atoms: C_3  and  C_4
REMARK    3  A    between atoms: C_7  and  O_8
REMARK    4  A    between atoms: C_9  and  C_10
REMARK    5  A    between atoms: C_15  and  C_16
REMARK                            x       y       z     vdW  Elec       q    Type
REMARK                         _______ _______ _______ _____ _____    ______ ____
ROOT
ATOM      1  C   UNL     1       5.829   3.725  12.914  0.00  0.00    +0.000 A 
ATOM      2  C   UNL     1       7.111   4.259  12.767  0.00  0.00    +0.000 A 
ATOM      3  C   UNL     1       7.673   5.017  13.790  0.00  0.00    +0.000 A 
ATOM      4  C   UNL     1       6.961   5.238  14.975  0.00  0.00    +0.000 A 
ATOM      5  C   UNL     1       5.660   4.729  15.169  0.00  0.00    +0.000 A 
ATOM      6  C   UNL     1       5.121   3.969  14.107  0.00  0.00    +0.000 A 
ENDROOT
BRANCH   5   7
ATOM      7  C   UNL     1       4.856   4.962  16.404  0.00  0.00    +0.000 A 
ATOM      8  C   UNL     1       4.610   3.921  17.329  0.00  0.00    +0.000 A 
ATOM      9  C   UNL     1       3.841   4.097  18.492  0.00  0.00    +0.000 A 
ATOM     10  C   UNL     1       3.349   5.375  18.719  0.00  0.00    +0.000 A 
ATOM     11  O   UNL     1       2.607   5.766  19.794  0.00  0.00    +0.000 OA
ATOM     12  C   UNL     1       2.350   7.095  19.635  0.00  0.00    +0.000 A 
ATOM     13  C   UNL     1       1.560   7.748  20.697  0.00  0.00    +0.000 C 
ATOM     14  C   UNL     1       2.911   7.557  18.465  0.00  0.00    +0.000 A 
ATOM     15  C   UNL     1       3.556   6.445  17.863  0.00  0.00    +0.000 A 
ATOM     16  C   UNL     1       4.295   6.228  16.684  0.00  0.00    +0.000 A 
ENDBRANCH   5   7
BRANCH   4  17
ATOM     17  O   UNL     1       7.579   5.956  15.967  0.00  0.00    +0.000 OA
ATOM     18  H   UNL     1       8.418   6.310  15.632  0.00  0.00    +0.000 HD
ENDBRANCH   4  17
BRANCH   1  19
ATOM     19  C   UNL     1       5.221   2.878  11.818  0.00  0.00    +0.000 C 
BRANCH  19  21
ATOM     20  C   UNL     1       3.147   3.039  10.404  0.00  0.00    +0.000 C 
ATOM     21  C   UNL     1       4.171   3.622  11.039  0.00  0.00    +0.000 C 
ENDBRANCH  19  21
ENDBRANCH   1  19
TORSDOF 4
ENDMDL
MODEL 6
REMARK VINA RESULT:      -7.8      1.207      1.616
REMARK  Name = 
REMARK  5 active torsions:
REMARK  status: ('A' for Active; 'I' for Inactive)
REMARK    1  A    between atoms: C_2  and  C_3
REMARK    2  A    between atoms: C_3  and  C_4
REMARK    3  A    between atoms: C_7  and  O_8
REMARK    4  A    between atoms: C_9  and  C_10
REMARK    5  A    between atoms: C_15  and  C_16
REMARK                            x       y       z     vdW  Elec       q    Type
REMARK                         _______ _______ _______ _____ _____    ______ ____
ROOT
ATOM      1  C   UNL     1       5.957   3.860  13.232  0.00  0.00    +0.000 A 
ATOM      2  C   UNL     1       7.199   4.498  13.226  0.00  0.00    +0.000 A 
ATOM      3  C   UNL     1       7.651   5.159  14.365  0.00  0.00    +0.000 A 
ATOM      4  C   UNL     1       6.867   5.177  15.525  0.00  0.00    +0.000 A 
ATOM      5  C   UNL     1       5.602   4.555  15.579  0.00  0.00    +0.000 A 
ATOM      6  C   UNL     1       5.176   3.899  14.403  0.00  0.00    +0.000 A 
ENDROOT
BRANCH   5   7
ATOM      7  C   UNL     1       4.723   4.572  16.786  0.00  0.00    +0.000 A 
ATOM      8  C   UNL     1       4.143   5.773  17.256  0.00  0.00    +0.000 A 
ATOM      9  C   UNL     1       3.328   5.833  18.398  0.00  0.00    +0.000 A 
ATOM     10  C   UNL     1       3.081   4.628  19.044  0.00  0.00    +0.000 A 
ATOM     11  O   UNL     1       2.299   4.459  20.148  0.00  0.00    +0.000 OA
ATOM     12  C   UNL     1       2.312   3.128  20.442  0.00  0.00    +0.000 A 
ATOM     13  C   UNL     1       1.516   2.700  21.608  0.00  0.00    +0.000 C 
ATOM     14  C   UNL     1       3.102   2.445  19.543  0.00  0.00    +0.000 A 
ATOM     15  C   UNL     1       3.608   3.412  18.636  0.00  0.00    +0.000 A 
ATOM     16  C   UNL     1       4.455   3.391  17.513  0.00  0.00    +0.000 A 
ENDBRANCH   5   7
BRANCH   4  17
ATOM     17  O   UNL     1       7.378   5.806  16.631  0.00  0.00    +0.000 OA
ATOM     18  H   UNL     1       7.257   5.237  17.408  0.00  0.00    +0.000 HD
ENDBRANCH   4  17
BRANCH   1  19
ATOM     19  C   UNL     1       5.471   3.117  12.007  0.00  0.00    +0.000 C 
BRANCH  19  21
ATOM     20  C   UNL     1       6.319   0.951  11.049  0.00  0.00    +0.000 C 
ATOM     21  C   UNL     1       6.529   2.218  11.429  0.00  0.00    +0.000 C 
ENDBRANCH  19  21
ENDBRANCH   1  19
TORSDOF 4
ENDMDL
MODEL 7
REMARK VINA RESULT:      -7.7      1.942      7.074
REMARK  Name = 
REMARK  5 active torsions:
REMARK  status: ('A' for Active; 'I' for Inactive)
REMARK    1  A    between atoms: C_2  and  C_3
REMARK    2  A    between atoms: C_3  and  C_4
REMARK    3  A    between atoms: C_7  and  O_8
REMARK    4  A    between atoms: C_9  and  C_10
REMARK    5  A    between atoms: C_15  and  C_16
REMARK                            x       y       z     vdW  Elec       q    Type
REMARK                         _______ _______ _______ _____ _____    ______ ____
ROOT
ATOM      1  C   UNL     1       2.438   4.861  20.648  0.00  0.00    +0.000 A 
ATOM      2  C   UNL     1       1.700   6.039  20.789  0.00  0.00    +0.000 A 
ATOM      3  C   UNL     1       1.928   7.112  19.932  0.00  0.00    +0.000 A 
ATOM      4  C   UNL     1       2.888   7.012  18.919  0.00  0.00    +0.000 A 
ATOM      5  C   UNL     1       3.665   5.848  18.741  0.00  0.00    +0.000 A 
ATOM      6  C   UNL     1       3.409   4.783  19.632  0.00  0.00    +0.000 A 
ENDROOT
BRANCH   5   7
ATOM      7  C   UNL     1       4.717   5.708  17.691  0.00  0.00    +0.000 A 
ATOM      8  C   UNL     1       6.024   6.208  17.889  0.00  0.00    +0.000 A 
ATOM      9  C   UNL     1       7.035   6.113  16.917  0.00  0.00    +0.000 A 
ATOM     10  C   UNL     1       6.698   5.463  15.737  0.00  0.00    +0.000 A 
ATOM     11  O   UNL     1       7.532   5.239  14.682  0.00  0.00    +0.000 OA
ATOM     12  C   UNL     1       6.811   4.558  13.746  0.00  0.00    +0.000 A 
ATOM     13  C   UNL     1       7.519   4.192  12.504  0.00  0.00    +0.000 C 
ATOM     14  C   UNL     1       5.523   4.353  14.188  0.00  0.00    +0.000 A 
ATOM     15  C   UNL     1       5.440   4.941  15.476  0.00  0.00    +0.000 A 
ATOM     16  C   UNL     1       4.437   5.088  16.452  0.00  0.00    +0.000 A 
ENDBRANCH   5   7
BRANCH   4  17
ATOM     17  O   UNL     1       3.043   8.083  18.076  0.00  0.00    +0.000 OA
ATOM     18  H   UNL     1       2.894   8.905  18.571  0.00  0.00    +0.000 HD
ENDBRANCH   4  17
BRANCH   1  19
ATOM     19  C   UNL     1       2.178   3.681  21.558  0.00  0.00    +0.000 C 
BRANCH  19  21
ATOM     20  C   UNL     1       0.748   2.645  19.766  0.00  0.00    +0.000 C 
ATOM     21  C   UNL     1       1.558   2.523  20.826  0.00  0.00    +0.000 C 
ENDBRANCH  19  21
ENDBRANCH   1  19
TORSDOF 4
ENDMDL
MODEL 8
REMARK VINA RESULT:      -7.7      3.566      5.600
REMARK  Name = 
REMARK  5 active torsions:
REMARK  status: ('A' for Active; 'I' for Inactive)
REMARK    1  A    between atoms: C_2  and  C_3
REMARK    2  A    between atoms: C_3  and  C_4
REMARK    3  A    between atoms: C_7  and  O_8
REMARK    4  A    between atoms: C_9  and  C_10
REMARK    5  A    between atoms: C_15  and  C_16
REMARK                            x       y       z     vdW  Elec       q    Type
REMARK                         _______ _______ _______ _____ _____    ______ ____
ROOT
ATOM      1  C   UNL     1       5.279   5.272  16.940  0.00  0.00    +0.000 A 
ATOM      2  C   UNL     1       4.719   3.996  16.856  0.00  0.00    +0.000 A 
ATOM      3  C   UNL     1       3.422   3.770  17.310  0.00  0.00    +0.000 A 
ATOM      4  C   UNL     1       2.670   4.824  17.842  0.00  0.00    +0.000 A 
ATOM      5  C   UNL     1       3.193   6.129  17.957  0.00  0.00    +0.000 A 
ATOM      6  C   UNL     1       4.513   6.317  17.491  0.00  0.00    +0.000 A 
ENDROOT
BRANCH   5   7
ATOM      7  C   UNL     1       2.436   7.275  18.541  0.00  0.00    +0.000 A 
ATOM      8  C   UNL     1       2.019   8.364  17.742  0.00  0.00    +0.000 A 
ATOM      9  C   UNL     1       1.322   9.470  18.258  0.00  0.00    +0.000 A 
ATOM     10  C   UNL     1       1.024   9.433  19.614  0.00  0.00    +0.000 A 
ATOM     11  O   UNL     1       0.336  10.384  20.307  0.00  0.00    +0.000 OA
ATOM     12  C   UNL     1       0.249   9.950  21.596  0.00  0.00    +0.000 A 
ATOM     13  C   UNL     1      -0.472  10.823  22.542  0.00  0.00    +0.000 C 
ATOM     14  C   UNL     1       0.884   8.735  21.738  0.00  0.00    +0.000 A 
ATOM     15  C   UNL     1       1.392   8.396  20.457  0.00  0.00    +0.000 A 
ATOM     16  C   UNL     1       2.126   7.322  19.919  0.00  0.00    +0.000 A 
ENDBRANCH   5   7
BRANCH   4  17
ATOM     17  O   UNL     1       1.384   4.556  18.235  0.00  0.00    +0.000 OA
ATOM     18  H   UNL     1       1.209   4.994  19.083  0.00  0.00    +0.000 HD
ENDBRANCH   4  17
BRANCH   1  19
ATOM     19  C   UNL     1       6.677   5.531  16.425  0.00  0.00    +0.000 C 
BRANCH  19  21
ATOM     20  C   UNL     1       6.767   4.766  14.031  0.00  0.00    +0.000 C 
ATOM     21  C   UNL     1       7.063   4.583  15.324  0.00  0.00    +0.000 C 
ENDBRANCH  19  21
ENDBRANCH   1  19
TORSDOF 4
ENDMDL
MODEL 9
REMARK VINA RESULT:      -7.7      1.268      1.641
REMARK  Name = 
REMARK  5 active torsions:
REMARK  status: ('A' for Active; 'I' for Inactive)
REMARK    1  A    between atoms: C_2  and  C_3
REMARK    2  A    between atoms: C_3  and  C_4
REMARK    3  A    between atoms: C_7  and  O_8
REMARK    4  A    between atoms: C_9  and  C_10
REMARK    5  A    between atoms: C_15  and  C_16
REMARK                            x       y       z     vdW  Elec       q    Type
REMARK                         _______ _______ _______ _____ _____    ______ ____
ROOT
ATOM      1  C   UNL     1       5.843   3.699  12.742  0.00  0.00    +0.000 A 
ATOM      2  C   UNL     1       7.001   4.449  12.528  0.00  0.00    +0.000 A 
ATOM      3  C   UNL     1       7.592   5.138  13.583  0.00  0.00    +0.000 A 
ATOM      4  C   UNL     1       7.035   5.073  14.866  0.00  0.00    +0.000 A 
ATOM      5  C   UNL     1       5.862   4.337  15.132  0.00  0.00    +0.000 A 
ATOM      6  C   UNL     1       5.289   3.655  14.036  0.00  0.00    +0.000 A 
ENDROOT
BRANCH   5   7
ATOM      7  C   UNL     1       5.221   4.261  16.478  0.00  0.00    +0.000 A 
ATOM      8  C   UNL     1       5.942   4.568  17.654  0.00  0.00    +0.000 A 
ATOM      9  C   UNL     1       5.380   4.489  18.939  0.00  0.00    +0.000 A 
ATOM     10  C   UNL     1       4.042   4.121  19.006  0.00  0.00    +0.000 A 
ATOM     11  O   UNL     1       3.300   4.011  20.144  0.00  0.00    +0.000 OA
ATOM     12  C   UNL     1       2.043   3.646  19.763  0.00  0.00    +0.000 A 
ATOM     13  C   UNL     1       1.048   3.475  20.839  0.00  0.00    +0.000 C 
ATOM     14  C   UNL     1       1.976   3.513  18.393  0.00  0.00    +0.000 A 
ATOM     15  C   UNL     1       3.270   3.814  17.896  0.00  0.00    +0.000 A 
ATOM     16  C   UNL     1       3.874   3.861  16.625  0.00  0.00    +0.000 A 
ENDBRANCH   5   7
BRANCH   4  17
ATOM     17  O   UNL     1       7.682   5.736  15.877  0.00  0.00    +0.000 OA
ATOM     18  H   UNL     1       7.826   6.659  15.615  0.00  0.00    +0.000 HD
ENDBRANCH   4  17
BRANCH   1  19
ATOM     19  C   UNL     1       5.209   2.925  11.607  0.00  0.00    +0.000 C 
BRANCH  19  21
ATOM     20  C   UNL     1       6.954   1.277  10.855  0.00  0.00    +0.000 C 
ATOM     21  C   UNL     1       5.791   1.546  11.463  0.00  0.00    +0.000 C 
ENDBRANCH  19  21
ENDBRANCH   1  19
TORSDOF 4
ENDMDL
