MODEL 1
REMARK VINA RESULT:      -6.4      0.000      0.000
REMARK  Name = 
REMARK  2 active torsions:
REMARK  status: ('A' for Active; 'I' for Inactive)
REMARK    1  A    between atoms: N_2  and  C_4
REMARK    2  A    between atoms: C_9  and  N_10
REMARK                            x       y       z     vdW  Elec       q    Type
REMARK                         _______ _______ _______ _____ _____    ______ ____
ROOT
ATOM      1  C   UNL     1       3.487   3.832  19.395  0.00  0.00    +0.000 A 
ATOM      2  C   UNL     1       2.387   3.894  20.263  0.00  0.00    +0.000 A 
ATOM      3  C   UNL     1       1.810   5.126  20.519  0.00  0.00    +0.000 A 
ATOM      4  C   UNL     1       2.361   6.225  19.892  0.00  0.00    +0.000 A 
ATOM      5  N   UNL     1       3.417   6.166  19.041  0.00  0.00    +0.000 NA
ATOM      6  C   UNL     1       4.001   4.970  18.765  0.00  0.00    +0.000 A 
ENDROOT
BRANCH   6   7
ATOM      7  N   UNL     1       5.092   5.008  17.931  0.00  0.00    +0.000 N 
ATOM      8  C   UNL     1       5.048   4.967  16.462  0.00  0.00    +0.000 C 
ATOM      9  C   UNL     1       6.209   4.080  15.981  0.00  0.00    +0.000 C 
ATOM     10  O   UNL     1       7.474   4.598  16.435  0.00  0.00    +0.000 OA
ATOM     11  C   UNL     1       7.504   4.675  17.874  0.00  0.00    +0.000 C 
ATOM     12  C   UNL     1       6.367   5.557  18.425  0.00  0.00    +0.000 C 
ENDBRANCH   6   7
BRANCH   1  14
ATOM     13  O   UNL     1       3.755   1.814  18.355  0.00  0.00    +0.000 OA
ATOM     14  N   UNL     1       4.132   2.548  19.282  0.00  0.00    +0.000 N 
ATOM     15  O   UNL     1       4.981   2.244  20.131  0.00  0.00    +0.000 OA
ENDBRANCH   1  14
TORSDOF 2
ENDMDL
MODEL 2
REMARK VINA RESULT:      -6.1      2.094      4.621
REMARK  Name = 
REMARK  2 active torsions:
REMARK  status: ('A' for Active; 'I' for Inactive)
REMARK    1  A    between atoms: N_2  and  C_4
REMARK    2  A    between atoms: C_9  and  N_10
REMARK                            x       y       z     vdW  Elec       q    Type
REMARK                         _______ _______ _______ _____ _____    ______ ____
ROOT
ATOM      1  C   UNL     1       6.000   5.500  17.217  0.00  0.00    +0.000 A 
ATOM      2  C   UNL     1       7.246   6.139  17.302  0.00  0.00    +0.000 A 
ATOM      3  C   UNL     1       7.878   6.206  18.532  0.00  0.00    +0.000 A 
ATOM      4  C   UNL     1       7.232   5.628  19.607  0.00  0.00    +0.000 A 
ATOM      5  N   UNL     1       6.034   4.997  19.525  0.00  0.00    +0.000 NA
ATOM      6  C   UNL     1       5.391   4.910  18.330  0.00  0.00    +0.000 A 
ENDROOT
BRANCH   6   7
ATOM      7  N   UNL     1       4.163   4.295  18.348  0.00  0.00    +0.000 N 
ATOM      8  C   UNL     1       3.931   2.852  18.506  0.00  0.00    +0.000 C 
ATOM      9  C   UNL     1       2.786   2.453  17.558  0.00  0.00    +0.000 C 
ATOM     10  O   UNL     1       1.589   3.195  17.857  0.00  0.00    +0.000 OA
ATOM     11  C   UNL     1       1.826   4.611  17.739  0.00  0.00    +0.000 C 
ATOM     12  C   UNL     1       2.960   5.083  18.669  0.00  0.00    +0.000 C 
ENDBRANCH   6   7
BRANCH   1  14
ATOM     13  O   UNL     1       5.090   4.519  15.364  0.00  0.00    +0.000 OA
ATOM     14  N   UNL     1       5.328   5.588  15.946  0.00  0.00    +0.000 N 
ATOM     15  O   UNL     1       5.071   6.715  15.499  0.00  0.00    +0.000 OA
ENDBRANCH   1  14
TORSDOF 2
ENDMDL
MODEL 3
REMARK VINA RESULT:      -6.1      2.201      4.775
REMARK  Name = 
REMARK  2 active torsions:
REMARK  status: ('A' for Active; 'I' for Inactive)
REMARK    1  A    between atoms: N_2  and  C_4
REMARK    2  A    between atoms: C_9  and  N_10
REMARK                            x       y       z     vdW  Elec       q    Type
REMARK                         _______ _______ _______ _____ _____    ______ ____
ROOT
ATOM      1  C   UNL     1       5.911   6.329  17.519  0.00  0.00    +0.000 A 
ATOM      2  C   UNL     1       7.127   7.028  17.560  0.00  0.00    +0.000 A 
ATOM      3  C   UNL     1       8.044   6.711  18.547  0.00  0.00    +0.000 A 
ATOM      4  C   UNL     1       7.698   5.712  19.435  0.00  0.00    +0.000 A 
ATOM      5  N   UNL     1       6.529   5.025  19.389  0.00  0.00    +0.000 NA
ATOM      6  C   UNL     1       5.610   5.309  18.428  0.00  0.00    +0.000 A 
ENDROOT
BRANCH   6   7
ATOM      7  N   UNL     1       4.437   4.597  18.484  0.00  0.00    +0.000 N 
ATOM      8  C   UNL     1       4.142   3.373  17.726  0.00  0.00    +0.000 C 
ATOM      9  C   UNL     1       2.679   3.451  17.256  0.00  0.00    +0.000 C 
ATOM     10  O   UNL     1       1.785   3.580  18.378  0.00  0.00    +0.000 OA
ATOM     11  C   UNL     1       2.098   4.760  19.144  0.00  0.00    +0.000 C 
ATOM     12  C   UNL     1       3.552   4.744  19.653  0.00  0.00    +0.000 C 
ENDBRANCH   6   7
BRANCH   1  14
ATOM     13  O   UNL     1       3.911   7.315  17.020  0.00  0.00    +0.000 OA
ATOM     14  N   UNL     1       4.942   6.800  16.562  0.00  0.00    +0.000 N 
ATOM     15  O   UNL     1       5.178   6.624  15.359  0.00  0.00    +0.000 OA
ENDBRANCH   1  14
TORSDOF 2
ENDMDL
MODEL 4
REMARK VINA RESULT:      -6.1      0.554      1.357
REMARK  Name = 
REMARK  2 active torsions:
REMARK  status: ('A' for Active; 'I' for Inactive)
REMARK    1  A    between atoms: N_2  and  C_4
REMARK    2  A    between atoms: C_9  and  N_10
REMARK                            x       y       z     vdW  Elec       q    Type
REMARK                         _______ _______ _______ _____ _____    ______ ____
ROOT
ATOM      1  C   UNL     1       3.462   3.712  19.445  0.00  0.00    +0.000 A 
ATOM      2  C   UNL     1       2.351   3.849  20.290  0.00  0.00    +0.000 A 
ATOM      3  C   UNL     1       1.803   5.107  20.472  0.00  0.00    +0.000 A 
ATOM      4  C   UNL     1       2.394   6.157  19.798  0.00  0.00    +0.000 A 
ATOM      5  N   UNL     1       3.460   6.025  18.969  0.00  0.00    +0.000 NA
ATOM      6  C   UNL     1       4.016   4.801  18.765  0.00  0.00    +0.000 A 
ENDROOT
BRANCH   6   7
ATOM      7  N   UNL     1       5.120   4.768  17.948  0.00  0.00    +0.000 N 
ATOM      8  C   UNL     1       6.519   4.782  18.399  0.00  0.00    +0.000 C 
ATOM      9  C   UNL     1       7.315   5.681  17.437  0.00  0.00    +0.000 C 
ATOM     10  O   UNL     1       7.223   5.195  16.085  0.00  0.00    +0.000 OA
ATOM     11  C   UNL     1       5.849   5.144  15.654  0.00  0.00    +0.000 C 
ATOM     12  C   UNL     1       4.993   4.252  16.573  0.00  0.00    +0.000 C 
ENDBRANCH   6   7
BRANCH   1  14
ATOM     13  O   UNL     1       3.646   1.614  18.557  0.00  0.00    +0.000 OA
ATOM     14  N   UNL     1       4.073   2.408  19.409  0.00  0.00    +0.000 N 
ATOM     15  O   UNL     1       4.947   2.150  20.248  0.00  0.00    +0.000 OA
ENDBRANCH   1  14
TORSDOF 2
ENDMDL
MODEL 5
REMARK VINA RESULT:      -6.0      2.174      4.733
REMARK  Name = 
REMARK  2 active torsions:
REMARK  status: ('A' for Active; 'I' for Inactive)
REMARK    1  A    between atoms: N_2  and  C_4
REMARK    2  A    between atoms: C_9  and  N_10
REMARK                            x       y       z     vdW  Elec       q    Type
REMARK                         _______ _______ _______ _____ _____    ______ ____
ROOT
ATOM      1  C   UNL     1       6.040   5.624  17.010  0.00  0.00    +0.000 A 
ATOM      2  C   UNL     1       7.278   6.218  17.295  0.00  0.00    +0.000 A 
ATOM      3  C   UNL     1       7.769   6.148  18.588  0.00  0.00    +0.000 A 
ATOM      4  C   UNL     1       6.998   5.484  19.521  0.00  0.00    +0.000 A 
ATOM      5  N   UNL     1       5.808   4.896  19.245  0.00  0.00    +0.000 NA
ATOM      6  C   UNL     1       5.302   4.943  17.983  0.00  0.00    +0.000 A 
ENDROOT
BRANCH   6   7
ATOM      7  N   UNL     1       4.070   4.363  17.804  0.00  0.00    +0.000 N 
ATOM      8  C   UNL     1       2.786   5.077  17.756  0.00  0.00    +0.000 C 
ATOM      9  C   UNL     1       1.748   4.230  18.514  0.00  0.00    +0.000 C 
ATOM     10  O   UNL     1       1.623   2.922  17.924  0.00  0.00    +0.000 OA
ATOM     11  C   UNL     1       2.890   2.235  17.935  0.00  0.00    +0.000 C 
ATOM     12  C   UNL     1       3.978   3.028  17.186  0.00  0.00    +0.000 C 
ENDBRANCH   6   7
BRANCH   1  14
ATOM     13  O   UNL     1       5.656   4.937  14.864  0.00  0.00    +0.000 OA
ATOM     14  N   UNL     1       5.517   5.854  15.687  0.00  0.00    +0.000 N 
ATOM     15  O   UNL     1       5.006   6.957  15.446  0.00  0.00    +0.000 OA
ENDBRANCH   1  14
TORSDOF 2
ENDMDL
MODEL 6
REMARK VINA RESULT:      -6.0      2.062      4.792
REMARK  Name = 
REMARK  2 active torsions:
REMARK  status: ('A' for Active; 'I' for Inactive)
REMARK    1  A    between atoms: N_2  and  C_4
REMARK    2  A    between atoms: C_9  and  N_10
REMARK                            x       y       z     vdW  Elec       q    Type
REMARK                         _______ _______ _______ _____ _____    ______ ____
ROOT
ATOM      1  C   UNL     1       5.941   6.262  17.606  0.00  0.00    +0.000 A 
ATOM      2  C   UNL     1       7.140   6.991  17.611  0.00  0.00    +0.000 A 
ATOM      3  C   UNL     1       8.075   6.728  18.596  0.00  0.00    +0.000 A 
ATOM      4  C   UNL     1       7.764   5.749  19.519  0.00  0.00    +0.000 A 
ATOM      5  N   UNL     1       6.612   5.033  19.508  0.00  0.00    +0.000 NA
ATOM      6  C   UNL     1       5.676   5.264  18.549  0.00  0.00    +0.000 A 
ENDROOT
BRANCH   6   7
ATOM      7  N   UNL     1       4.521   4.526  18.642  0.00  0.00    +0.000 N 
ATOM      8  C   UNL     1       3.352   4.867  19.465  0.00  0.00    +0.000 C 
ATOM      9  C   UNL     1       2.819   3.565  20.088  0.00  0.00    +0.000 C 
ATOM     10  O   UNL     1       2.460   2.615  19.066  0.00  0.00    +0.000 OA
ATOM     11  C   UNL     1       3.596   2.309  18.235  0.00  0.00    +0.000 C 
ATOM     12  C   UNL     1       4.178   3.573  17.572  0.00  0.00    +0.000 C 
ENDBRANCH   6   7
BRANCH   1  14
ATOM     13  O   UNL     1       5.189   6.437  15.455  0.00  0.00    +0.000 OA
ATOM     14  N   UNL     1       4.950   6.680  16.647  0.00  0.00    +0.000 N 
ATOM     15  O   UNL     1       3.953   7.285  17.065  0.00  0.00    +0.000 OA
ENDBRANCH   1  14
TORSDOF 2
ENDMDL
MODEL 7
REMARK VINA RESULT:      -5.9      1.946      4.718
REMARK  Name = 
REMARK  2 active torsions:
REMARK  status: ('A' for Active; 'I' for Inactive)
REMARK    1  A    between atoms: N_2  and  C_4
REMARK    2  A    between atoms: C_9  and  N_10
REMARK                            x       y       z     vdW  Elec       q    Type
REMARK                         _______ _______ _______ _____ _____    ______ ____
ROOT
ATOM      1  C   UNL     1       5.919   4.564  17.678  0.00  0.00    +0.000 A 
ATOM      2  C   UNL     1       7.152   4.647  17.014  0.00  0.00    +0.000 A 
ATOM      3  C   UNL     1       7.167   4.625  15.630  0.00  0.00    +0.000 A 
ATOM      4  C   UNL     1       5.950   4.526  14.986  0.00  0.00    +0.000 A 
ATOM      5  N   UNL     1       4.755   4.460  15.625  0.00  0.00    +0.000 NA
ATOM      6  C   UNL     1       4.707   4.485  16.984  0.00  0.00    +0.000 A 
ENDROOT
BRANCH   6   7
ATOM      7  N   UNL     1       3.460   4.367  17.547  0.00  0.00    +0.000 N 
ATOM      8  C   UNL     1       2.669   5.469  18.115  0.00  0.00    +0.000 C 
ATOM      9  C   UNL     1       1.985   4.948  19.391  0.00  0.00    +0.000 C 
ATOM     10  O   UNL     1       1.141   3.818  19.098  0.00  0.00    +0.000 OA
ATOM     11  C   UNL     1       1.908   2.751  18.506  0.00  0.00    +0.000 C 
ATOM     12  C   UNL     1       2.618   3.203  17.215  0.00  0.00    +0.000 C 
ENDBRANCH   6   7
BRANCH   1  14
ATOM     13  O   UNL     1       6.604   5.329  19.720  0.00  0.00    +0.000 OA
ATOM     14  N   UNL     1       5.979   4.447  19.112  0.00  0.00    +0.000 N 
ATOM     15  O   UNL     1       5.444   3.461  19.639  0.00  0.00    +0.000 OA
ENDBRANCH   1  14
TORSDOF 2
ENDMDL
MODEL 8
REMARK VINA RESULT:      -5.8      1.382      1.657
REMARK  Name = 
REMARK  2 active torsions:
REMARK  status: ('A' for Active; 'I' for Inactive)
REMARK    1  A    between atoms: N_2  and  C_4
REMARK    2  A    between atoms: C_9  and  N_10
REMARK                            x       y       z     vdW  Elec       q    Type
REMARK                         _______ _______ _______ _____ _____    ______ ____
ROOT
ATOM      1  C   UNL     1       2.478   3.664  18.708  0.00  0.00    +0.000 A 
ATOM      2  C   UNL     1       1.395   3.261  19.503  0.00  0.00    +0.000 A 
ATOM      3  C   UNL     1       1.067   4.016  20.615  0.00  0.00    +0.000 A 
ATOM      4  C   UNL     1       1.835   5.134  20.870  0.00  0.00    +0.000 A 
ATOM      5  N   UNL     1       2.874   5.535  20.095  0.00  0.00    +0.000 NA
ATOM      6  C   UNL     1       3.218   4.817  18.992  0.00  0.00    +0.000 A 
ENDROOT
BRANCH   6   7
ATOM      7  N   UNL     1       4.310   5.269  18.293  0.00  0.00    +0.000 N 
ATOM      8  C   UNL     1       4.317   6.399  17.353  0.00  0.00    +0.000 C 
ATOM      9  C   UNL     1       5.208   6.014  16.159  0.00  0.00    +0.000 C 
ATOM     10  O   UNL     1       6.546   5.708  16.594  0.00  0.00    +0.000 OA
ATOM     11  C   UNL     1       6.537   4.625  17.545  0.00  0.00    +0.000 C 
ATOM     12  C   UNL     1       5.666   4.948  18.774  0.00  0.00    +0.000 C 
ENDBRANCH   6   7
BRANCH   1  14
ATOM     13  O   UNL     1       2.410   3.004  16.521  0.00  0.00    +0.000 OA
ATOM     14  N   UNL     1       2.859   2.762  17.651  0.00  0.00    +0.000 N 
ATOM     15  O   UNL     1       3.569   1.789  17.943  0.00  0.00    +0.000 OA
ENDBRANCH   1  14
TORSDOF 2
ENDMDL
MODEL 9
REMARK VINA RESULT:      -5.8      1.878      2.546
REMARK  Name = 
REMARK  2 active torsions:
REMARK  status: ('A' for Active; 'I' for Inactive)
REMARK    1  A    between atoms: N_2  and  C_4
REMARK    2  A    between atoms: C_9  and  N_10
REMARK                            x       y       z     vdW  Elec       q    Type
REMARK                         _______ _______ _______ _____ _____    ______ ____
ROOT
ATOM      1  C   UNL     1       3.169   4.506  19.535  0.00  0.00    +0.000 A 
ATOM      2  C   UNL     1       2.317   3.950  20.501  0.00  0.00    +0.000 A 
ATOM      3  C   UNL     1       2.687   2.763  21.111  0.00  0.00    +0.000 A 
ATOM      4  C   UNL     1       3.888   2.202  20.726  0.00  0.00    +0.000 A 
ATOM      5  N   UNL     1       4.720   2.745  19.802  0.00  0.00    +0.000 NA
ATOM      6  C   UNL     1       4.388   3.913  19.190  0.00  0.00    +0.000 A 
ENDROOT
BRANCH   6   7
ATOM      7  N   UNL     1       5.265   4.366  18.236  0.00  0.00    +0.000 N 
ATOM      8  C   UNL     1       5.008   4.411  16.789  0.00  0.00    +0.000 C 
ATOM      9  C   UNL     1       6.302   3.993  16.068  0.00  0.00    +0.000 C 
ATOM     10  O   UNL     1       7.390   4.869  16.416  0.00  0.00    +0.000 OA
ATOM     11  C   UNL     1       7.619   4.855  17.839  0.00  0.00    +0.000 C 
ATOM     12  C   UNL     1       6.361   5.272  18.626  0.00  0.00    +0.000 C 
ENDBRANCH   6   7
BRANCH   1  14
ATOM     13  O   UNL     1       1.931   5.444  17.858  0.00  0.00    +0.000 OA
ATOM     14  N   UNL     1       2.664   5.660  18.835  0.00  0.00    +0.000 N 
ATOM     15  O   UNL     1       3.023   6.781  19.223  0.00  0.00    +0.000 OA
ENDBRANCH   1  14
TORSDOF 2
ENDMDL
