MODEL 1
REMARK VINA RESULT:      -6.9      0.000      0.000
REMARK  Name = 
REMARK  3 active torsions:
REMARK  status: ('A' for Active; 'I' for Inactive)
REMARK    1  A    between atoms: C_5  and  C_6
REMARK    2  A    between atoms: C_7  and  C_8
REMARK    3  A    between atoms: N_16  and  C_17
REMARK                            x       y       z     vdW  Elec       q    Type
REMARK                         _______ _______ _______ _____ _____    ______ ____
ROOT
ATOM      1  C   UNL     1      -0.393  10.533  20.629  0.00  0.00    +0.000 A 
ATOM      2  C   UNL     1      -0.555  11.135  21.883  0.00  0.00    +0.000 A 
ATOM      3  N   UNL     1       0.351  10.609  22.772  0.00  0.00    +0.000 NA
ATOM      4  N   UNL     1       1.012   9.646  22.167  0.00  0.00    +0.000 NA
ATOM      5  N   UNL     1       0.668   9.643  20.854  0.00  0.00    +0.000 N 
ENDROOT
BRANCH   1  10
ATOM      6 CL   UNL     1      -3.194  11.137  15.338  0.00  0.00    +0.000 Cl
ATOM      7  C   UNL     1      -2.441  10.986  16.876  0.00  0.00    +0.000 A 
ATOM      8  C   UNL     1      -1.683  12.034  17.387  0.00  0.00    +0.000 A 
ATOM      9  C   UNL     1      -1.020  11.883  18.611  0.00  0.00    +0.000 A 
ATOM     10  C   UNL     1      -1.138  10.706  19.365  0.00  0.00    +0.000 A 
ATOM     11  C   UNL     1      -1.979   9.696  18.861  0.00  0.00    +0.000 A 
ATOM     12  C   UNL     1      -2.589   9.814  17.607  0.00  0.00    +0.000 A 
ENDBRANCH   1  10
BRANCH   2  13
ATOM     13  C   UNL     1      -1.508  12.137  22.336  0.00  0.00    +0.000 C 
ATOM     14  N   UNL     1      -1.424  13.346  21.906  0.00  0.00    +0.000 NA
ATOM     15  C   UNL     1      -2.431  14.289  22.405  0.00  0.00    +0.000 C 
ATOM     16  C   UNL     1      -3.742  13.612  22.794  0.00  0.00    +0.000 C 
ATOM     17  C   UNL     1      -3.453  12.492  23.774  0.00  0.00    +0.000 C 
ATOM     18  N   UNL     1      -2.449  11.640  23.200  0.00  0.00    +0.000 N 
ATOM     19  H   UNL     1      -2.422  10.657  23.446  0.00  0.00    +0.000 HD
ENDBRANCH   2  13
BRANCH   5  20
ATOM     20  C   UNL     1       1.397   8.807  19.966  0.00  0.00    +0.000 A 
ATOM     21  C   UNL     1       1.828   7.549  20.421  0.00  0.00    +0.000 A 
ATOM     22  C   UNL     1       2.478   6.673  19.549  0.00  0.00    +0.000 A 
ATOM     23  C   UNL     1       2.726   7.056  18.232  0.00  0.00    +0.000 A 
ATOM     24  C   UNL     1       2.343   8.321  17.789  0.00  0.00    +0.000 A 
ATOM     25  C   UNL     1       1.689   9.202  18.655  0.00  0.00    +0.000 A 
ENDBRANCH   5  20
TORSDOF 3
ENDMDL
MODEL 2
REMARK VINA RESULT:      -6.8      0.348      1.055
REMARK  Name = 
REMARK  3 active torsions:
REMARK  status: ('A' for Active; 'I' for Inactive)
REMARK    1  A    between atoms: C_5  and  C_6
REMARK    2  A    between atoms: C_7  and  C_8
REMARK    3  A    between atoms: N_16  and  C_17
REMARK                            x       y       z     vdW  Elec       q    Type
REMARK                         _______ _______ _______ _____ _____    ______ ____
ROOT
ATOM      1  C   UNL     1      -0.313  10.433  20.718  0.00  0.00    +0.000 A 
ATOM      2  C   UNL     1      -0.467  10.985  21.995  0.00  0.00    +0.000 A 
ATOM      3  N   UNL     1       0.438  10.418  22.859  0.00  0.00    +0.000 NA
ATOM      4  N   UNL     1       1.090   9.475  22.214  0.00  0.00    +0.000 NA
ATOM      5  N   UNL     1       0.741   9.526  20.903  0.00  0.00    +0.000 N 
ENDROOT
BRANCH   1  10
ATOM      6 CL   UNL     1      -3.131  11.259  15.465  0.00  0.00    +0.000 Cl
ATOM      7  C   UNL     1      -2.372  11.046  16.994  0.00  0.00    +0.000 A 
ATOM      8  C   UNL     1      -1.573  12.054  17.522  0.00  0.00    +0.000 A 
ATOM      9  C   UNL     1      -0.907  11.850  18.736  0.00  0.00    +0.000 A 
ATOM     10  C   UNL     1      -1.062  10.662  19.464  0.00  0.00    +0.000 A 
ATOM     11  C   UNL     1      -1.942   9.695  18.945  0.00  0.00    +0.000 A 
ATOM     12  C   UNL     1      -2.557   9.864  17.699  0.00  0.00    +0.000 A 
ENDBRANCH   1  10
BRANCH   2  13
ATOM     13  C   UNL     1      -1.410  11.976  22.491  0.00  0.00    +0.000 C 
ATOM     14  N   UNL     1      -2.388  11.615  23.244  0.00  0.00    +0.000 NA
ATOM     15  C   UNL     1      -3.285  12.680  23.708  0.00  0.00    +0.000 C 
ATOM     16  C   UNL     1      -2.601  14.042  23.793  0.00  0.00    +0.000 C 
ATOM     17  C   UNL     1      -1.957  14.359  22.458  0.00  0.00    +0.000 C 
ATOM     18  N   UNL     1      -1.117  13.254  22.088  0.00  0.00    +0.000 N 
ATOM     19  H   UNL     1      -0.300  13.413  21.510  0.00  0.00    +0.000 HD
ENDBRANCH   2  13
BRANCH   5  20
ATOM     20  C   UNL     1       1.461   8.721  19.980  0.00  0.00    +0.000 A 
ATOM     21  C   UNL     1       1.883   7.442  20.383  0.00  0.00    +0.000 A 
ATOM     22  C   UNL     1       2.523   6.597  19.475  0.00  0.00    +0.000 A 
ATOM     23  C   UNL     1       2.770   7.030  18.173  0.00  0.00    +0.000 A 
ATOM     24  C   UNL     1       2.395   8.315  17.782  0.00  0.00    +0.000 A 
ATOM     25  C   UNL     1       1.751   9.165  18.685  0.00  0.00    +0.000 A 
ENDBRANCH   5  20
TORSDOF 3
ENDMDL
MODEL 3
REMARK VINA RESULT:      -6.8      0.668      1.189
REMARK  Name = 
REMARK  3 active torsions:
REMARK  status: ('A' for Active; 'I' for Inactive)
REMARK    1  A    between atoms: C_5  and  C_6
REMARK    2  A    between atoms: C_7  and  C_8
REMARK    3  A    between atoms: N_16  and  C_17
REMARK                            x       y       z     vdW  Elec       q    Type
REMARK                         _______ _______ _______ _____ _____    ______ ____
ROOT
ATOM      1  C   UNL     1      -0.065  10.203  20.881  0.00  0.00    +0.000 A 
ATOM      2  C   UNL     1      -0.133  10.710  22.184  0.00  0.00    +0.000 A 
ATOM      3  N   UNL     1       0.738  10.024  22.996  0.00  0.00    +0.000 NA
ATOM      4  N   UNL     1       1.281   9.054  22.292  0.00  0.00    +0.000 NA
ATOM      5  N   UNL     1       0.905   9.196  20.996  0.00  0.00    +0.000 N 
ENDROOT
BRANCH   1  10
ATOM      6 CL   UNL     1      -2.919  11.541  15.755  0.00  0.00    +0.000 Cl
ATOM      7  C   UNL     1      -2.150  11.179  17.249  0.00  0.00    +0.000 A 
ATOM      8  C   UNL     1      -1.335  12.125  17.861  0.00  0.00    +0.000 A 
ATOM      9  C   UNL     1      -0.660  11.803  19.045  0.00  0.00    +0.000 A 
ATOM     10  C   UNL     1      -0.822  10.554  19.661  0.00  0.00    +0.000 A 
ATOM     11  C   UNL     1      -1.718   9.649  19.063  0.00  0.00    +0.000 A 
ATOM     12  C   UNL     1      -2.341   9.939  17.844  0.00  0.00    +0.000 A 
ENDBRANCH   1  10
BRANCH   2  13
ATOM     13  C   UNL     1      -0.967  11.760  22.749  0.00  0.00    +0.000 C 
ATOM     14  N   UNL     1      -0.502  12.952  22.879  0.00  0.00    +0.000 NA
ATOM     15  C   UNL     1      -1.413  13.952  23.447  0.00  0.00    +0.000 C 
ATOM     16  C   UNL     1      -2.883  13.635  23.189  0.00  0.00    +0.000 C 
ATOM     17  C   UNL     1      -3.181  12.230  23.672  0.00  0.00    +0.000 C 
ATOM     18  N   UNL     1      -2.229  11.336  23.075  0.00  0.00    +0.000 N 
ATOM     19  H   UNL     1      -2.484  10.370  22.901  0.00  0.00    +0.000 HD
ENDBRANCH   2  13
BRANCH   5  20
ATOM     20  C   UNL     1       1.521   8.369  20.019  0.00  0.00    +0.000 A 
ATOM     21  C   UNL     1       1.800   8.912  18.752  0.00  0.00    +0.000 A 
ATOM     22  C   UNL     1       2.476   8.150  17.797  0.00  0.00    +0.000 A 
ATOM     23  C   UNL     1       2.851   6.839  18.087  0.00  0.00    +0.000 A 
ATOM     24  C   UNL     1       2.536   6.281  19.326  0.00  0.00    +0.000 A 
ATOM     25  C   UNL     1       1.863   7.039  20.288  0.00  0.00    +0.000 A 
ENDBRANCH   5  20
TORSDOF 3
ENDMDL
MODEL 4
REMARK VINA RESULT:      -6.8      4.392      8.827
REMARK  Name = 
REMARK  3 active torsions:
REMARK  status: ('A' for Active; 'I' for Inactive)
REMARK    1  A    between atoms: C_5  and  C_6
REMARK    2  A    between atoms: C_7  and  C_8
REMARK    3  A    between atoms: N_16  and  C_17
REMARK                            x       y       z     vdW  Elec       q    Type
REMARK                         _______ _______ _______ _____ _____    ______ ____
ROOT
ATOM      1  C   UNL     1       2.934   6.653  18.384  0.00  0.00    +0.000 A 
ATOM      2  C   UNL     1       3.855   6.734  17.333  0.00  0.00    +0.000 A 
ATOM      3  N   UNL     1       3.850   8.003  16.807  0.00  0.00    +0.000 NA
ATOM      4  N   UNL     1       2.911   8.697  17.412  0.00  0.00    +0.000 NA
ATOM      5  N   UNL     1       2.414   7.955  18.434  0.00  0.00    +0.000 N 
ENDROOT
BRANCH   1  10
ATOM      6 CL   UNL     1       1.120   2.201  22.004  0.00  0.00    +0.000 Cl
ATOM      7  C   UNL     1       1.671   3.435  20.940  0.00  0.00    +0.000 A 
ATOM      8  C   UNL     1       2.814   4.163  21.250  0.00  0.00    +0.000 A 
ATOM      9  C   UNL     1       3.223   5.208  20.413  0.00  0.00    +0.000 A 
ATOM     10  C   UNL     1       2.528   5.514  19.234  0.00  0.00    +0.000 A 
ATOM     11  C   UNL     1       1.424   4.706  18.905  0.00  0.00    +0.000 A 
ATOM     12  C   UNL     1       0.971   3.705  19.772  0.00  0.00    +0.000 A 
ENDBRANCH   1  10
BRANCH   2  13
ATOM     13  C   UNL     1       4.719   5.718  16.751  0.00  0.00    +0.000 C 
ATOM     14  N   UNL     1       4.347   4.487  16.735  0.00  0.00    +0.000 NA
ATOM     15  C   UNL     1       5.275   3.531  16.120  0.00  0.00    +0.000 C 
ATOM     16  C   UNL     1       6.167   4.164  15.057  0.00  0.00    +0.000 C 
ATOM     17  C   UNL     1       6.875   5.365  15.653  0.00  0.00    +0.000 C 
ATOM     18  N   UNL     1       5.886   6.225  16.240  0.00  0.00    +0.000 N 
ATOM     19  H   UNL     1       6.054   7.224  16.294  0.00  0.00    +0.000 HD
ENDBRANCH   2  13
BRANCH   5  20
ATOM     20  C   UNL     1       1.516   8.573  19.345  0.00  0.00    +0.000 A 
ATOM     21  C   UNL     1       0.665   9.588  18.873  0.00  0.00    +0.000 A 
ATOM     22  C   UNL     1      -0.282  10.160  19.724  0.00  0.00    +0.000 A 
ATOM     23  C   UNL     1      -0.368   9.746  21.052  0.00  0.00    +0.000 A 
ATOM     24  C   UNL     1       0.504   8.772  21.537  0.00  0.00    +0.000 A 
ATOM     25  C   UNL     1       1.453   8.193  20.690  0.00  0.00    +0.000 A 
ENDBRANCH   5  20
TORSDOF 3
ENDMDL
MODEL 5
REMARK VINA RESULT:      -6.8      4.377      8.806
REMARK  Name = 
REMARK  3 active torsions:
REMARK  status: ('A' for Active; 'I' for Inactive)
REMARK    1  A    between atoms: C_5  and  C_6
REMARK    2  A    between atoms: C_7  and  C_8
REMARK    3  A    between atoms: N_16  and  C_17
REMARK                            x       y       z     vdW  Elec       q    Type
REMARK                         _______ _______ _______ _____ _____    ______ ____
ROOT
ATOM      1  C   UNL     1       3.005   6.754  18.319  0.00  0.00    +0.000 A 
ATOM      2  C   UNL     1       4.060   6.753  17.399  0.00  0.00    +0.000 A 
ATOM      3  N   UNL     1       4.136   7.976  16.777  0.00  0.00    +0.000 NA
ATOM      4  N   UNL     1       3.129   8.714  17.192  0.00  0.00    +0.000 NA
ATOM      5  N   UNL     1       2.493   8.054  18.193  0.00  0.00    +0.000 N 
ENDROOT
BRANCH   1  10
ATOM      6 CL   UNL     1       1.091   2.240  21.808  0.00  0.00    +0.000 Cl
ATOM      7  C   UNL     1       1.591   3.561  20.827  0.00  0.00    +0.000 A 
ATOM      8  C   UNL     1       1.189   3.633  19.498  0.00  0.00    +0.000 A 
ATOM      9  C   UNL     1       1.650   4.677  18.686  0.00  0.00    +0.000 A 
ATOM     10  C   UNL     1       2.479   5.686  19.195  0.00  0.00    +0.000 A 
ATOM     11  C   UNL     1       2.801   5.631  20.564  0.00  0.00    +0.000 A 
ATOM     12  C   UNL     1       2.400   4.554  21.363  0.00  0.00    +0.000 A 
ENDBRANCH   1  10
BRANCH   2  13
ATOM     13  C   UNL     1       4.987   5.696  17.022  0.00  0.00    +0.000 C 
ATOM     14  N   UNL     1       4.614   4.771  16.210  0.00  0.00    +0.000 NA
ATOM     15  C   UNL     1       5.615   3.752  15.876  0.00  0.00    +0.000 C 
ATOM     16  C   UNL     1       7.048   4.264  15.984  0.00  0.00    +0.000 C 
ATOM     17  C   UNL     1       7.261   4.863  17.360  0.00  0.00    +0.000 C 
ATOM     18  N   UNL     1       6.225   5.831  17.595  0.00  0.00    +0.000 N 
ATOM     19  H   UNL     1       6.403   6.622  18.204  0.00  0.00    +0.000 HD
ENDBRANCH   2  13
BRANCH   5  20
ATOM     20  C   UNL     1       1.485   8.741  18.922  0.00  0.00    +0.000 A 
ATOM     21  C   UNL     1       0.607   9.591  18.227  0.00  0.00    +0.000 A 
ATOM     22  C   UNL     1      -0.442  10.219  18.901  0.00  0.00    +0.000 A 
ATOM     23  C   UNL     1      -0.604  10.026  20.272  0.00  0.00    +0.000 A 
ATOM     24  C   UNL     1       0.291   9.220  20.975  0.00  0.00    +0.000 A 
ATOM     25  C   UNL     1       1.341   8.587  20.306  0.00  0.00    +0.000 A 
ENDBRANCH   5  20
TORSDOF 3
ENDMDL
MODEL 6
REMARK VINA RESULT:      -6.7      0.201      1.406
REMARK  Name = 
REMARK  3 active torsions:
REMARK  status: ('A' for Active; 'I' for Inactive)
REMARK    1  A    between atoms: C_5  and  C_6
REMARK    2  A    between atoms: C_7  and  C_8
REMARK    3  A    between atoms: N_16  and  C_17
REMARK                            x       y       z     vdW  Elec       q    Type
REMARK                         _______ _______ _______ _____ _____    ______ ____
ROOT
ATOM      1  C   UNL     1      -0.270  10.408  20.616  0.00  0.00    +0.000 A 
ATOM      2  C   UNL     1      -0.419  11.021  21.865  0.00  0.00    +0.000 A 
ATOM      3  N   UNL     1       0.458  10.464  22.764  0.00  0.00    +0.000 NA
ATOM      4  N   UNL     1       1.085   9.472  22.169  0.00  0.00    +0.000 NA
ATOM      5  N   UNL     1       0.753   9.477  20.853  0.00  0.00    +0.000 N 
ENDROOT
BRANCH   1  10
ATOM      6 CL   UNL     1      -3.458  11.308  15.592  0.00  0.00    +0.000 Cl
ATOM      7  C   UNL     1      -2.503  11.030  16.995  0.00  0.00    +0.000 A 
ATOM      8  C   UNL     1      -2.581   9.812  17.661  0.00  0.00    +0.000 A 
ATOM      9  C   UNL     1      -1.849   9.613  18.838  0.00  0.00    +0.000 A 
ATOM     10  C   UNL     1      -0.997  10.605  19.344  0.00  0.00    +0.000 A 
ATOM     11  C   UNL     1      -0.876  11.795  18.603  0.00  0.00    +0.000 A 
ATOM     12  C   UNL     1      -1.656  12.026  17.464  0.00  0.00    +0.000 A 
ENDBRANCH   1  10
BRANCH   2  13
ATOM     13  C   UNL     1      -1.334  12.063  22.306  0.00  0.00    +0.000 C 
ATOM     14  N   UNL     1      -1.194  13.268  21.877  0.00  0.00    +0.000 NA
ATOM     15  C   UNL     1      -2.168  14.252  22.363  0.00  0.00    +0.000 C 
ATOM     16  C   UNL     1      -3.511  13.631  22.735  0.00  0.00    +0.000 C 
ATOM     17  C   UNL     1      -3.281  12.501  23.719  0.00  0.00    +0.000 C 
ATOM     18  N   UNL     1      -2.306  11.607  23.159  0.00  0.00    +0.000 N 
ATOM     19  H   UNL     1      -2.324  10.624  23.405  0.00  0.00    +0.000 HD
ENDBRANCH   2  13
BRANCH   5  20
ATOM     20  C   UNL     1       1.455   8.609  19.975  0.00  0.00    +0.000 A 
ATOM     21  C   UNL     1       1.761   9.060  18.679  0.00  0.00    +0.000 A 
ATOM     22  C   UNL     1       2.518   8.262  17.819  0.00  0.00    +0.000 A 
ATOM     23  C   UNL     1       2.948   7.003  18.235  0.00  0.00    +0.000 A 
ATOM     24  C   UNL     1       2.609   6.532  19.502  0.00  0.00    +0.000 A 
ATOM     25  C   UNL     1       1.854   7.327  20.369  0.00  0.00    +0.000 A 
ENDBRANCH   5  20
TORSDOF 3
ENDMDL
MODEL 7
REMARK VINA RESULT:      -6.7      0.490      1.781
REMARK  Name = 
REMARK  3 active torsions:
REMARK  status: ('A' for Active; 'I' for Inactive)
REMARK    1  A    between atoms: C_5  and  C_6
REMARK    2  A    between atoms: C_7  and  C_8
REMARK    3  A    between atoms: N_16  and  C_17
REMARK                            x       y       z     vdW  Elec       q    Type
REMARK                         _______ _______ _______ _____ _____    ______ ____
ROOT
ATOM      1  C   UNL     1      -0.175  10.325  20.717  0.00  0.00    +0.000 A 
ATOM      2  C   UNL     1      -0.308  10.889  21.992  0.00  0.00    +0.000 A 
ATOM      3  N   UNL     1       0.560  10.277  22.864  0.00  0.00    +0.000 NA
ATOM      4  N   UNL     1       1.164   9.297  22.226  0.00  0.00    +0.000 NA
ATOM      5  N   UNL     1       0.827   9.363  20.913  0.00  0.00    +0.000 N 
ENDROOT
BRANCH   1  10
ATOM      6 CL   UNL     1      -3.361  11.493  15.747  0.00  0.00    +0.000 Cl
ATOM      7  C   UNL     1      -2.407  11.139  17.134  0.00  0.00    +0.000 A 
ATOM      8  C   UNL     1      -2.495   9.892  17.741  0.00  0.00    +0.000 A 
ATOM      9  C   UNL     1      -1.764   9.630  18.906  0.00  0.00    +0.000 A 
ATOM     10  C   UNL     1      -0.902  10.589  19.458  0.00  0.00    +0.000 A 
ATOM     11  C   UNL     1      -0.771  11.811  18.774  0.00  0.00    +0.000 A 
ATOM     12  C   UNL     1      -1.550  12.104  17.648  0.00  0.00    +0.000 A 
ENDBRANCH   1  10
BRANCH   2  13
ATOM     13  C   UNL     1      -1.199  11.931  22.478  0.00  0.00    +0.000 C 
ATOM     14  N   UNL     1      -2.265  11.618  23.126  0.00  0.00    +0.000 NA
ATOM     15  C   UNL     1      -3.101  12.731  23.588  0.00  0.00    +0.000 C 
ATOM     16  C   UNL     1      -2.311  14.016  23.819  0.00  0.00    +0.000 C 
ATOM     17  C   UNL     1      -1.530  14.352  22.564  0.00  0.00    +0.000 C 
ATOM     18  N   UNL     1      -0.763  13.198  22.187  0.00  0.00    +0.000 N 
ATOM     19  H   UNL     1       0.111  13.315  21.687  0.00  0.00    +0.000 HD
ENDBRANCH   2  13
BRANCH   5  20
ATOM     20  C   UNL     1       1.508   8.517  19.998  0.00  0.00    +0.000 A 
ATOM     21  C   UNL     1       1.803   9.007  18.713  0.00  0.00    +0.000 A 
ATOM     22  C   UNL     1       2.539   8.229  17.817  0.00  0.00    +0.000 A 
ATOM     23  C   UNL     1       2.960   6.952  18.185  0.00  0.00    +0.000 A 
ATOM     24  C   UNL     1       2.632   6.443  19.441  0.00  0.00    +0.000 A 
ATOM     25  C   UNL     1       1.898   7.218  20.343  0.00  0.00    +0.000 A 
ENDBRANCH   5  20
TORSDOF 3
ENDMDL
MODEL 8
REMARK VINA RESULT:      -6.6      3.852      6.516
REMARK  Name = 
REMARK  3 active torsions:
REMARK  status: ('A' for Active; 'I' for Inactive)
REMARK    1  A    between atoms: C_5  and  C_6
REMARK    2  A    between atoms: C_7  and  C_8
REMARK    3  A    between atoms: N_16  and  C_17
REMARK                            x       y       z     vdW  Elec       q    Type
REMARK                         _______ _______ _______ _____ _____    ______ ____
ROOT
ATOM      1  C   UNL     1       2.762   7.175  18.295  0.00  0.00    +0.000 A 
ATOM      2  C   UNL     1       2.233   8.465  18.169  0.00  0.00    +0.000 A 
ATOM      3  N   UNL     1       3.032   9.216  17.341  0.00  0.00    +0.000 NA
ATOM      4  N   UNL     1       4.082   8.494  17.015  0.00  0.00    +0.000 NA
ATOM      5  N   UNL     1       3.903   7.233  17.481  0.00  0.00    +0.000 N 
ENDROOT
BRANCH   1  10
ATOM      6 CL   UNL     1       1.209   2.336  21.518  0.00  0.00    +0.000 Cl
ATOM      7  C   UNL     1       1.600   3.740  20.606  0.00  0.00    +0.000 A 
ATOM      8  C   UNL     1       1.381   3.763  19.233  0.00  0.00    +0.000 A 
ATOM      9  C   UNL     1       1.759   4.885  18.485  0.00  0.00    +0.000 A 
ATOM     10  C   UNL     1       2.316   6.017  19.098  0.00  0.00    +0.000 A 
ATOM     11  C   UNL     1       2.448   5.996  20.498  0.00  0.00    +0.000 A 
ATOM     12  C   UNL     1       2.136   4.852  21.243  0.00  0.00    +0.000 A 
ENDBRANCH   1  10
BRANCH   2  13
ATOM     13  C   UNL     1       1.060   9.071  18.781  0.00  0.00    +0.000 C 
ATOM     14  N   UNL     1       0.912   9.042  20.058  0.00  0.00    +0.000 NA
ATOM     15  C   UNL     1      -0.293   9.687  20.592  0.00  0.00    +0.000 C 
ATOM     16  C   UNL     1      -0.816  10.808  19.699  0.00  0.00    +0.000 C 
ATOM     17  C   UNL     1      -1.012  10.274  18.293  0.00  0.00    +0.000 C 
ATOM     18  N   UNL     1       0.213   9.652  17.873  0.00  0.00    +0.000 N 
ATOM     19  H   UNL     1       0.454   9.628  16.889  0.00  0.00    +0.000 HD
ENDBRANCH   2  13
BRANCH   5  20
ATOM     20  C   UNL     1       4.827   6.228  17.086  0.00  0.00    +0.000 A 
ATOM     21  C   UNL     1       5.078   6.041  15.715  0.00  0.00    +0.000 A 
ATOM     22  C   UNL     1       6.038   5.117  15.298  0.00  0.00    +0.000 A 
ATOM     23  C   UNL     1       6.729   4.356  16.240  0.00  0.00    +0.000 A 
ATOM     24  C   UNL     1       6.450   4.504  17.598  0.00  0.00    +0.000 A 
ATOM     25  C   UNL     1       5.493   5.430  18.022  0.00  0.00    +0.000 A 
ENDBRANCH   5  20
TORSDOF 3
ENDMDL
MODEL 9
REMARK VINA RESULT:      -6.6      1.050      1.498
REMARK  Name = 
REMARK  3 active torsions:
REMARK  status: ('A' for Active; 'I' for Inactive)
REMARK    1  A    between atoms: C_5  and  C_6
REMARK    2  A    between atoms: C_7  and  C_8
REMARK    3  A    between atoms: N_16  and  C_17
REMARK                            x       y       z     vdW  Elec       q    Type
REMARK                         _______ _______ _______ _____ _____    ______ ____
ROOT
ATOM      1  C   UNL     1      -0.851  11.093  20.023  0.00  0.00    +0.000 A 
ATOM      2  C   UNL     1      -1.070  11.940  21.115  0.00  0.00    +0.000 A 
ATOM      3  N   UNL     1      -0.115  11.714  22.077  0.00  0.00    +0.000 NA
ATOM      4  N   UNL     1       0.636  10.707  21.686  0.00  0.00    +0.000 NA
ATOM      5  N   UNL     1       0.292  10.379  20.415  0.00  0.00    +0.000 N 
ENDROOT
BRANCH   1  10
ATOM      6 CL   UNL     1      -3.709  10.226  14.798  0.00  0.00    +0.000 Cl
ATOM      7  C   UNL     1      -2.941  10.498  16.312  0.00  0.00    +0.000 A 
ATOM      8  C   UNL     1      -2.257  11.686  16.544  0.00  0.00    +0.000 A 
ATOM      9  C   UNL     1      -1.580  11.876  17.755  0.00  0.00    +0.000 A 
ATOM     10  C   UNL     1      -1.612  10.908  18.769  0.00  0.00    +0.000 A 
ATOM     11  C   UNL     1      -2.381   9.753  18.537  0.00  0.00    +0.000 A 
ATOM     12  C   UNL     1      -3.003   9.527  17.304  0.00  0.00    +0.000 A 
ENDBRANCH   1  10
BRANCH   2  13
ATOM     13  C   UNL     1      -2.115  12.924  21.356  0.00  0.00    +0.000 C 
ATOM     14  N   UNL     1      -3.223  12.567  21.903  0.00  0.00    +0.000 NA
ATOM     15  C   UNL     1      -4.217  13.624  22.119  0.00  0.00    +0.000 C 
ATOM     16  C   UNL     1      -3.592  15.006  22.284  0.00  0.00    +0.000 C 
ATOM     17  C   UNL     1      -2.686  15.288  21.102  0.00  0.00    +0.000 C 
ATOM     18  N   UNL     1      -1.767  14.192  20.967  0.00  0.00    +0.000 N 
ATOM     19  H   UNL     1      -0.849  14.350  20.567  0.00  0.00    +0.000 HD
ENDBRANCH   2  13
BRANCH   5  20
ATOM     20  C   UNL     1       1.097   9.440  19.717  0.00  0.00    +0.000 A 
ATOM     21  C   UNL     1       1.497   8.266  20.381  0.00  0.00    +0.000 A 
ATOM     22  C   UNL     1       2.222   7.288  19.699  0.00  0.00    +0.000 A 
ATOM     23  C   UNL     1       2.576   7.484  18.365  0.00  0.00    +0.000 A 
ATOM     24  C   UNL     1       2.222   8.666  17.716  0.00  0.00    +0.000 A 
ATOM     25  C   UNL     1       1.493   9.648  18.392  0.00  0.00    +0.000 A 
ENDBRANCH   5  20
TORSDOF 3
ENDMDL
