MODEL 1
REMARK VINA RESULT:      -7.5      0.000      0.000
REMARK  Name = 
REMARK  6 active torsions:
REMARK  status: ('A' for Active; 'I' for Inactive)
REMARK    1  A    between atoms: C_1  and  O_2
REMARK    2  A    between atoms: O_2  and  C_3
REMARK    3  A    between atoms: C_6  and  C_7
REMARK    4  A    between atoms: N_8  and  C_9
REMARK    5  A    between atoms: C_12  and  O_13
REMARK    6  A    between atoms: O_13  and  C_14
REMARK                            x       y       z     vdW  Elec       q    Type
REMARK                         _______ _______ _______ _____ _____    ______ ____
ROOT
ATOM      1  C   UNL     1       2.805   5.816  20.005  0.00  0.00    +0.000 C 
ATOM      2  N   UNL     1       2.930   5.010  18.807  0.00  0.00    +0.000 N 
ATOM      3  C   UNL     1       1.869   4.064  18.754  0.00  0.00    +0.000 C 
ATOM      4  S   UNL     1       1.444   3.003  17.534  0.00  0.00    +0.000 S 
ATOM      5  N   UNL     1       1.238   4.089  20.037  0.00  0.00    +0.000 N 
ATOM      6  C   UNL     1       1.075   2.846  20.785  0.00  0.00    +0.000 C 
ATOM      7  C   UNL     1       2.362   2.794  21.581  0.00  0.00    +0.000 C 
ATOM      8  C   UNL     1       2.615   4.261  21.915  0.00  0.00    +0.000 C 
ATOM      9  N   UNL     1       1.906   5.048  20.885  0.00  0.00    +0.000 NA
ENDROOT
BRANCH   1  13
ATOM     10  C   UNL     1       0.992   9.688  19.116  0.00  0.00    +0.000 A 
ATOM     11  C   UNL     1       1.703   9.007  18.134  0.00  0.00    +0.000 A 
ATOM     12  C   UNL     1       2.287   7.767  18.413  0.00  0.00    +0.000 A 
ATOM     13  C   UNL     1       2.196   7.191  19.690  0.00  0.00    +0.000 A 
ATOM     14  C   UNL     1       1.508   7.908  20.686  0.00  0.00    +0.000 A 
ATOM     15  C   UNL     1       0.911   9.144  20.399  0.00  0.00    +0.000 A 
BRANCH  10  17
ATOM     16  C   UNL     1      -0.913  10.856  18.358  0.00  0.00    +0.000 C 
ATOM     17  O   UNL     1       0.460  10.885  18.728  0.00  0.00    +0.000 OA
ENDBRANCH  10  17
ENDBRANCH   1  13
BRANCH   2  18
ATOM     18  C   UNL     1       4.155   4.906  18.092  0.00  0.00    +0.000 A 
ATOM     19  C   UNL     1       4.161   4.901  16.688  0.00  0.00    +0.000 A 
ATOM     20  C   UNL     1       5.361   4.837  15.975  0.00  0.00    +0.000 A 
ATOM     21  C   UNL     1       6.580   4.786  16.641  0.00  0.00    +0.000 A 
ATOM     22  C   UNL     1       6.591   4.773  18.034  0.00  0.00    +0.000 A 
ATOM     23  C   UNL     1       5.386   4.829  18.750  0.00  0.00    +0.000 A 
BRANCH  21  24
ATOM     24  O   UNL     1       7.677   4.710  15.831  0.00  0.00    +0.000 OA
ATOM     25  C   UNL     1       7.433   4.886  14.441  0.00  0.00    +0.000 C 
ENDBRANCH  21  24
ENDBRANCH   2  18
TORSDOF 4
ENDMDL
MODEL 2
REMARK VINA RESULT:      -7.4      0.350      1.024
REMARK  Name = 
REMARK  6 active torsions:
REMARK  status: ('A' for Active; 'I' for Inactive)
REMARK    1  A    between atoms: C_1  and  O_2
REMARK    2  A    between atoms: O_2  and  C_3
REMARK    3  A    between atoms: C_6  and  C_7
REMARK    4  A    between atoms: N_8  and  C_9
REMARK    5  A    between atoms: C_12  and  O_13
REMARK    6  A    between atoms: O_13  and  C_14
REMARK                            x       y       z     vdW  Elec       q    Type
REMARK                         _______ _______ _______ _____ _____    ______ ____
ROOT
ATOM      1  C   UNL     1       2.807   5.821  19.974  0.00  0.00    +0.000 C 
ATOM      2  N   UNL     1       2.948   5.014  18.777  0.00  0.00    +0.000 N 
ATOM      3  C   UNL     1       1.897   4.058  18.719  0.00  0.00    +0.000 C 
ATOM      4  S   UNL     1       1.491   2.990  17.499  0.00  0.00    +0.000 S 
ATOM      5  N   UNL     1       1.257   4.079  19.999  0.00  0.00    +0.000 N 
ATOM      6  C   UNL     1       1.103   2.834  20.748  0.00  0.00    +0.000 C 
ATOM      7  C   UNL     1       2.384   2.797  21.552  0.00  0.00    +0.000 C 
ATOM      8  C   UNL     1       2.621   4.267  21.886  0.00  0.00    +0.000 C 
ATOM      9  N   UNL     1       1.911   5.045  20.849  0.00  0.00    +0.000 NA
ENDROOT
BRANCH   1  13
ATOM     10  C   UNL     1       1.124   9.744  19.055  0.00  0.00    +0.000 A 
ATOM     11  C   UNL     1       0.956   9.190  20.319  0.00  0.00    +0.000 A 
ATOM     12  C   UNL     1       1.492   7.933  20.619  0.00  0.00    +0.000 A 
ATOM     13  C   UNL     1       2.187   7.189  19.652  0.00  0.00    +0.000 A 
ATOM     14  C   UNL     1       2.315   7.743  18.366  0.00  0.00    +0.000 A 
ATOM     15  C   UNL     1       1.790   9.010  18.072  0.00  0.00    +0.000 A 
BRANCH  10  17
ATOM     16  C   UNL     1      -0.364  11.379  19.880  0.00  0.00    +0.000 C 
ATOM     17  O   UNL     1       0.564  10.978  18.879  0.00  0.00    +0.000 OA
ENDBRANCH  10  17
ENDBRANCH   1  13
BRANCH   2  18
ATOM     18  C   UNL     1       4.178   4.921  18.071  0.00  0.00    +0.000 A 
ATOM     19  C   UNL     1       4.205   5.025  16.672  0.00  0.00    +0.000 A 
ATOM     20  C   UNL     1       5.412   4.973  15.969  0.00  0.00    +0.000 A 
ATOM     21  C   UNL     1       6.618   4.826  16.643  0.00  0.00    +0.000 A 
ATOM     22  C   UNL     1       6.609   4.703  18.031  0.00  0.00    +0.000 A 
ATOM     23  C   UNL     1       5.396   4.748  18.735  0.00  0.00    +0.000 A 
BRANCH  21  24
ATOM     24  O   UNL     1       7.724   4.773  15.843  0.00  0.00    +0.000 OA
ATOM     25  C   UNL     1       7.480   4.872  14.445  0.00  0.00    +0.000 C 
ENDBRANCH  21  24
ENDBRANCH   2  18
TORSDOF 4
ENDMDL
MODEL 3
REMARK VINA RESULT:      -7.2      0.783      1.038
REMARK  Name = 
REMARK  6 active torsions:
REMARK  status: ('A' for Active; 'I' for Inactive)
REMARK    1  A    between atoms: C_1  and  O_2
REMARK    2  A    between atoms: O_2  and  C_3
REMARK    3  A    between atoms: C_6  and  C_7
REMARK    4  A    between atoms: N_8  and  C_9
REMARK    5  A    between atoms: C_12  and  O_13
REMARK    6  A    between atoms: O_13  and  C_14
REMARK                            x       y       z     vdW  Elec       q    Type
REMARK                         _______ _______ _______ _____ _____    ______ ____
ROOT
ATOM      1  C   UNL     1       2.676   6.096  20.012  0.00  0.00    +0.000 C 
ATOM      2  N   UNL     1       2.761   5.461  18.712  0.00  0.00    +0.000 N 
ATOM      3  C   UNL     1       1.736   4.482  18.590  0.00  0.00    +0.000 C 
ATOM      4  S   UNL     1       1.281   3.571  17.264  0.00  0.00    +0.000 S 
ATOM      5  N   UNL     1       1.183   4.308  19.898  0.00  0.00    +0.000 N 
ATOM      6  C   UNL     1       1.115   2.970  20.480  0.00  0.00    +0.000 C 
ATOM      7  C   UNL     1       2.447   2.875  21.191  0.00  0.00    +0.000 C 
ATOM      8  C   UNL     1       2.663   4.296  21.705  0.00  0.00    +0.000 C 
ATOM      9  N   UNL     1       1.863   5.177  20.829  0.00  0.00    +0.000 NA
ENDROOT
BRANCH   1  13
ATOM     10  C   UNL     1       0.662   9.961  19.748  0.00  0.00    +0.000 A 
ATOM     11  C   UNL     1       1.366   9.464  18.658  0.00  0.00    +0.000 A 
ATOM     12  C   UNL     1       2.015   8.227  18.736  0.00  0.00    +0.000 A 
ATOM     13  C   UNL     1       1.995   7.470  19.918  0.00  0.00    +0.000 A 
ATOM     14  C   UNL     1       1.313   8.002  21.027  0.00  0.00    +0.000 A 
ATOM     15  C   UNL     1       0.651   9.235  20.941  0.00  0.00    +0.000 A 
BRANCH  10  17
ATOM     16  C   UNL     1      -1.340  11.137  19.326  0.00  0.00    +0.000 C 
ATOM     17  O   UNL     1       0.064  11.174  19.554  0.00  0.00    +0.000 OA
ENDBRANCH  10  17
ENDBRANCH   1  13
BRANCH   2  18
ATOM     18  C   UNL     1       3.943   5.510  17.924  0.00  0.00    +0.000 A 
ATOM     19  C   UNL     1       4.849   4.438  17.932  0.00  0.00    +0.000 A 
ATOM     20  C   UNL     1       5.996   4.460  17.134  0.00  0.00    +0.000 A 
ATOM     21  C   UNL     1       6.261   5.543  16.304  0.00  0.00    +0.000 A 
ATOM     22  C   UNL     1       5.382   6.623  16.297  0.00  0.00    +0.000 A 
ATOM     23  C   UNL     1       4.235   6.605  17.104  0.00  0.00    +0.000 A 
BRANCH  21  24
ATOM     24  O   UNL     1       7.421   5.450  15.588  0.00  0.00    +0.000 OA
ATOM     25  C   UNL     1       7.299   4.894  14.284  0.00  0.00    +0.000 C 
ENDBRANCH  21  24
ENDBRANCH   2  18
TORSDOF 4
ENDMDL
MODEL 4
REMARK VINA RESULT:      -6.9      1.448      1.596
REMARK  Name = 
REMARK  6 active torsions:
REMARK  status: ('A' for Active; 'I' for Inactive)
REMARK    1  A    between atoms: C_1  and  O_2
REMARK    2  A    between atoms: O_2  and  C_3
REMARK    3  A    between atoms: C_6  and  C_7
REMARK    4  A    between atoms: N_8  and  C_9
REMARK    5  A    between atoms: C_12  and  O_13
REMARK    6  A    between atoms: O_13  and  C_14
REMARK                            x       y       z     vdW  Elec       q    Type
REMARK                         _______ _______ _______ _____ _____    ______ ____
ROOT
ATOM      1  C   UNL     1       2.372   5.975  20.497  0.00  0.00    +0.000 C 
ATOM      2  N   UNL     1       2.758   5.584  19.155  0.00  0.00    +0.000 N 
ATOM      3  C   UNL     1       1.893   4.555  18.689  0.00  0.00    +0.000 C 
ATOM      4  S   UNL     1       1.789   3.851  17.176  0.00  0.00    +0.000 S 
ATOM      5  N   UNL     1       1.144   4.110  19.823  0.00  0.00    +0.000 N 
ATOM      6  C   UNL     1       1.133   2.691  20.169  0.00  0.00    +0.000 C 
ATOM      7  C   UNL     1       2.322   2.591  21.100  0.00  0.00    +0.000 C 
ATOM      8  C   UNL     1       2.274   3.915  21.858  0.00  0.00    +0.000 C 
ATOM      9  N   UNL     1       1.542   4.861  20.990  0.00  0.00    +0.000 NA
ENDROOT
BRANCH   1  13
ATOM     10  C   UNL     1      -0.007   9.636  20.444  0.00  0.00    +0.000 A 
ATOM     11  C   UNL     1       0.950   9.411  19.462  0.00  0.00    +0.000 A 
ATOM     12  C   UNL     1       1.717   8.240  19.473  0.00  0.00    +0.000 A 
ATOM     13  C   UNL     1       1.560   7.279  20.485  0.00  0.00    +0.000 A 
ATOM     14  C   UNL     1       0.616   7.538  21.495  0.00  0.00    +0.000 A 
ATOM     15  C   UNL     1      -0.161   8.705  21.472  0.00  0.00    +0.000 A 
BRANCH  10  17
ATOM     16  C   UNL     1      -0.690  11.399  19.033  0.00  0.00    +0.000 C 
ATOM     17  O   UNL     1      -0.699  10.808  20.327  0.00  0.00    +0.000 OA
ENDBRANCH  10  17
ENDBRANCH   1  13
BRANCH   2  18
ATOM     18  C   UNL     1       4.046   5.872  18.627  0.00  0.00    +0.000 A 
ATOM     19  C   UNL     1       4.192   6.761  17.551  0.00  0.00    +0.000 A 
ATOM     20  C   UNL     1       5.455   7.081  17.047  0.00  0.00    +0.000 A 
ATOM     21  C   UNL     1       6.602   6.530  17.609  0.00  0.00    +0.000 A 
ATOM     22  C   UNL     1       6.474   5.631  18.666  0.00  0.00    +0.000 A 
ATOM     23  C   UNL     1       5.205   5.305  19.166  0.00  0.00    +0.000 A 
BRANCH  21  24
ATOM     24  O   UNL     1       7.773   6.908  17.017  0.00  0.00    +0.000 OA
ATOM     25  C   UNL     1       8.246   8.206  17.356  0.00  0.00    +0.000 C 
ENDBRANCH  21  24
ENDBRANCH   2  18
TORSDOF 4
ENDMDL
MODEL 5
REMARK VINA RESULT:      -6.9      1.583      1.985
REMARK  Name = 
REMARK  6 active torsions:
REMARK  status: ('A' for Active; 'I' for Inactive)
REMARK    1  A    between atoms: C_1  and  O_2
REMARK    2  A    between atoms: O_2  and  C_3
REMARK    3  A    between atoms: C_6  and  C_7
REMARK    4  A    between atoms: N_8  and  C_9
REMARK    5  A    between atoms: C_12  and  O_13
REMARK    6  A    between atoms: O_13  and  C_14
REMARK                            x       y       z     vdW  Elec       q    Type
REMARK                         _______ _______ _______ _____ _____    ______ ____
ROOT
ATOM      1  C   UNL     1       2.362   5.941  20.496  0.00  0.00    +0.000 C 
ATOM      2  N   UNL     1       2.752   5.561  19.152  0.00  0.00    +0.000 N 
ATOM      3  C   UNL     1       1.895   4.529  18.679  0.00  0.00    +0.000 C 
ATOM      4  S   UNL     1       1.797   3.834  17.162  0.00  0.00    +0.000 S 
ATOM      5  N   UNL     1       1.147   4.072  19.809  0.00  0.00    +0.000 N 
ATOM      6  C   UNL     1       1.146   2.651  20.146  0.00  0.00    +0.000 C 
ATOM      7  C   UNL     1       2.334   2.553  21.078  0.00  0.00    +0.000 C 
ATOM      8  C   UNL     1       2.277   3.872  21.844  0.00  0.00    +0.000 C 
ATOM      9  N   UNL     1       1.539   4.818  20.981  0.00  0.00    +0.000 NA
ENDROOT
BRANCH   1  13
ATOM     10  C   UNL     1       0.105   9.679  20.505  0.00  0.00    +0.000 A 
ATOM     11  C   UNL     1      -0.124   8.722  21.487  0.00  0.00    +0.000 A 
ATOM     12  C   UNL     1       0.595   7.521  21.489  0.00  0.00    +0.000 A 
ATOM     13  C   UNL     1       1.542   7.240  20.492  0.00  0.00    +0.000 A 
ATOM     14  C   UNL     1       1.736   8.199  19.482  0.00  0.00    +0.000 A 
ATOM     15  C   UNL     1       1.025   9.408  19.491  0.00  0.00    +0.000 A 
BRANCH  10  17
ATOM     16  C   UNL     1      -0.740  11.373  21.912  0.00  0.00    +0.000 C 
ATOM     17  O   UNL     1      -0.649  10.813  20.608  0.00  0.00    +0.000 OA
ENDBRANCH  10  17
ENDBRANCH   1  13
BRANCH   2  18
ATOM     18  C   UNL     1       4.039   5.861  18.628  0.00  0.00    +0.000 A 
ATOM     19  C   UNL     1       4.180   6.756  17.556  0.00  0.00    +0.000 A 
ATOM     20  C   UNL     1       5.442   7.087  17.056  0.00  0.00    +0.000 A 
ATOM     21  C   UNL     1       6.591   6.543  17.617  0.00  0.00    +0.000 A 
ATOM     22  C   UNL     1       6.469   5.639  18.670  0.00  0.00    +0.000 A 
ATOM     23  C   UNL     1       5.201   5.301  19.167  0.00  0.00    +0.000 A 
BRANCH  21  24
ATOM     24  O   UNL     1       7.761   6.932  17.029  0.00  0.00    +0.000 OA
ATOM     25  C   UNL     1       8.223   8.232  17.374  0.00  0.00    +0.000 C 
ENDBRANCH  21  24
ENDBRANCH   2  18
TORSDOF 4
ENDMDL
MODEL 6
REMARK VINA RESULT:      -6.7      0.761      1.068
REMARK  Name = 
REMARK  6 active torsions:
REMARK  status: ('A' for Active; 'I' for Inactive)
REMARK    1  A    between atoms: C_1  and  O_2
REMARK    2  A    between atoms: O_2  and  C_3
REMARK    3  A    between atoms: C_6  and  C_7
REMARK    4  A    between atoms: N_8  and  C_9
REMARK    5  A    between atoms: C_12  and  O_13
REMARK    6  A    between atoms: O_13  and  C_14
REMARK                            x       y       z     vdW  Elec       q    Type
REMARK                         _______ _______ _______ _____ _____    ______ ____
ROOT
ATOM      1  C   UNL     1       2.740   5.936  19.963  0.00  0.00    +0.000 C 
ATOM      2  N   UNL     1       2.758   5.243  18.690  0.00  0.00    +0.000 N 
ATOM      3  C   UNL     1       1.696   4.297  18.645  0.00  0.00    +0.000 C 
ATOM      4  S   UNL     1       1.164   3.347  17.376  0.00  0.00    +0.000 S 
ATOM      5  N   UNL     1       1.183   4.199  19.977  0.00  0.00    +0.000 N 
ATOM      6  C   UNL     1       1.090   2.891  20.619  0.00  0.00    +0.000 C 
ATOM      7  C   UNL     1       2.443   2.778  21.289  0.00  0.00    +0.000 C 
ATOM      8  C   UNL     1       2.724   4.211  21.732  0.00  0.00    +0.000 C 
ATOM      9  N   UNL     1       1.925   5.082  20.846  0.00  0.00    +0.000 NA
ENDROOT
BRANCH   1  13
ATOM     10  C   UNL     1       0.851   9.855  19.593  0.00  0.00    +0.000 A 
ATOM     11  C   UNL     1       1.548   9.312  18.521  0.00  0.00    +0.000 A 
ATOM     12  C   UNL     1       2.157   8.057  18.633  0.00  0.00    +0.000 A 
ATOM     13  C   UNL     1       2.104   7.328  19.832  0.00  0.00    +0.000 A 
ATOM     14  C   UNL     1       1.429   7.906  20.922  0.00  0.00    +0.000 A 
ATOM     15  C   UNL     1       0.807   9.157  20.802  0.00  0.00    +0.000 A 
BRANCH  10  17
ATOM     16  C   UNL     1       1.149  12.042  18.760  0.00  0.00    +0.000 C 
ATOM     17  O   UNL     1       0.293  11.081  19.366  0.00  0.00    +0.000 OA
ENDBRANCH  10  17
ENDBRANCH   1  13
BRANCH   2  18
ATOM     18  C   UNL     1       3.913   5.217  17.862  0.00  0.00    +0.000 A 
ATOM     19  C   UNL     1       4.952   6.138  18.061  0.00  0.00    +0.000 A 
ATOM     20  C   UNL     1       6.109   6.098  17.277  0.00  0.00    +0.000 A 
ATOM     21  C   UNL     1       6.260   5.136  16.285  0.00  0.00    +0.000 A 
ATOM     22  C   UNL     1       5.230   4.226  16.062  0.00  0.00    +0.000 A 
ATOM     23  C   UNL     1       4.066   4.270  16.844  0.00  0.00    +0.000 A 
BRANCH  21  24
ATOM     24  O   UNL     1       7.427   5.213  15.579  0.00  0.00    +0.000 OA
ATOM     25  C   UNL     1       7.358   4.791  14.223  0.00  0.00    +0.000 C 
ENDBRANCH  21  24
ENDBRANCH   2  18
TORSDOF 4
ENDMDL
MODEL 7
REMARK VINA RESULT:      -6.6      4.658      9.289
REMARK  Name = 
REMARK  6 active torsions:
REMARK  status: ('A' for Active; 'I' for Inactive)
REMARK    1  A    between atoms: C_1  and  O_2
REMARK    2  A    between atoms: O_2  and  C_3
REMARK    3  A    between atoms: C_6  and  C_7
REMARK    4  A    between atoms: N_8  and  C_9
REMARK    5  A    between atoms: C_12  and  O_13
REMARK    6  A    between atoms: O_13  and  C_14
REMARK                            x       y       z     vdW  Elec       q    Type
REMARK                         _______ _______ _______ _____ _____    ______ ____
ROOT
ATOM      1  C   UNL     1      -0.553  10.868  20.561  0.00  0.00    +0.000 C 
ATOM      2  N   UNL     1      -0.941  11.857  19.574  0.00  0.00    +0.000 N 
ATOM      3  C   UNL     1      -0.210  13.058  19.788  0.00  0.00    +0.000 C 
ATOM      4  S   UNL     1      -0.149  14.450  18.864  0.00  0.00    +0.000 S 
ATOM      5  N   UNL     1       0.430  12.923  21.060  0.00  0.00    +0.000 N 
ATOM      6  C   UNL     1       0.233  13.951  22.079  0.00  0.00    +0.000 C 
ATOM      7  C   UNL     1      -0.991  13.436  22.805  0.00  0.00    +0.000 C 
ATOM      8  C   UNL     1      -0.789  11.923  22.783  0.00  0.00    +0.000 C 
ATOM      9  N   UNL     1       0.097  11.642  21.634  0.00  0.00    +0.000 NA
ENDROOT
BRANCH   1  13
ATOM     10  C   UNL     1       2.175   7.931  18.829  0.00  0.00    +0.000 A 
ATOM     11  C   UNL     1       1.806   7.839  20.167  0.00  0.00    +0.000 A 
ATOM     12  C   UNL     1       0.933   8.777  20.728  0.00  0.00    +0.000 A 
ATOM     13  C   UNL     1       0.430   9.846  19.970  0.00  0.00    +0.000 A 
ATOM     14  C   UNL     1       0.842   9.952  18.629  0.00  0.00    +0.000 A 
ATOM     15  C   UNL     1       1.705   9.000  18.065  0.00  0.00    +0.000 A 
BRANCH  10  17
ATOM     16  C   UNL     1       3.324   5.933  19.331  0.00  0.00    +0.000 C 
ATOM     17  O   UNL     1       3.025   6.956  18.390  0.00  0.00    +0.000 OA
ENDBRANCH  10  17
ENDBRANCH   1  13
BRANCH   2  18
ATOM     18  C   UNL     1      -2.157  11.758  18.845  0.00  0.00    +0.000 A 
ATOM     19  C   UNL     1      -3.378  12.098  19.447  0.00  0.00    +0.000 A 
ATOM     20  C   UNL     1      -4.576  12.040  18.730  0.00  0.00    +0.000 A 
ATOM     21  C   UNL     1      -4.584  11.651  17.395  0.00  0.00    +0.000 A 
ATOM     22  C   UNL     1      -3.383  11.291  16.787  0.00  0.00    +0.000 A 
ATOM     23  C   UNL     1      -2.182  11.343  17.510  0.00  0.00    +0.000 A 
BRANCH  21  24
ATOM     24  O   UNL     1      -5.818  11.619  16.811  0.00  0.00    +0.000 OA
ATOM     25  C   UNL     1      -6.688  12.693  17.146  0.00  0.00    +0.000 C 
ENDBRANCH  21  24
ENDBRANCH   2  18
TORSDOF 4
ENDMDL
MODEL 8
REMARK VINA RESULT:      -6.5      4.203      8.345
REMARK  Name = 
REMARK  6 active torsions:
REMARK  status: ('A' for Active; 'I' for Inactive)
REMARK    1  A    between atoms: C_1  and  O_2
REMARK    2  A    between atoms: O_2  and  C_3
REMARK    3  A    between atoms: C_6  and  C_7
REMARK    4  A    between atoms: N_8  and  C_9
REMARK    5  A    between atoms: C_12  and  O_13
REMARK    6  A    between atoms: O_13  and  C_14
REMARK                            x       y       z     vdW  Elec       q    Type
REMARK                         _______ _______ _______ _____ _____    ______ ____
ROOT
ATOM      1  C   UNL     1      -0.323  10.181  20.503  0.00  0.00    +0.000 C 
ATOM      2  N   UNL     1      -0.415  11.110  19.394  0.00  0.00    +0.000 N 
ATOM      3  C   UNL     1       0.329  12.285  19.691  0.00  0.00    +0.000 C 
ATOM      4  S   UNL     1       0.687  13.597  18.718  0.00  0.00    +0.000 S 
ATOM      5  N   UNL     1       0.661  12.215  21.080  0.00  0.00    +0.000 N 
ATOM      6  C   UNL     1       0.313  13.327  21.961  0.00  0.00    +0.000 C 
ATOM      7  C   UNL     1      -1.073  12.932  22.423  0.00  0.00    +0.000 C 
ATOM      8  C   UNL     1      -0.973  11.414  22.543  0.00  0.00    +0.000 C 
ATOM      9  N   UNL     1       0.124  11.000  21.644  0.00  0.00    +0.000 NA
ENDROOT
BRANCH   1  13
ATOM     10  C   UNL     1       2.517   6.983  19.621  0.00  0.00    +0.000 A 
ATOM     11  C   UNL     1       1.850   7.009  20.840  0.00  0.00    +0.000 A 
ATOM     12  C   UNL     1       0.939   8.031  21.130  0.00  0.00    +0.000 A 
ATOM     13  C   UNL     1       0.695   9.067  20.215  0.00  0.00    +0.000 A 
ATOM     14  C   UNL     1       1.406   9.052  19.001  0.00  0.00    +0.000 A 
ATOM     15  C   UNL     1       2.306   8.018  18.707  0.00  0.00    +0.000 A 
BRANCH  10  17
ATOM     16  C   UNL     1       4.106   5.937  18.227  0.00  0.00    +0.000 C 
ATOM     17  O   UNL     1       3.375   5.935  19.447  0.00  0.00    +0.000 OA
ENDBRANCH  10  17
ENDBRANCH   1  13
BRANCH   2  18
ATOM     18  C   UNL     1      -1.444  11.017  18.417  0.00  0.00    +0.000 A 
ATOM     19  C   UNL     1      -1.303  10.162  17.314  0.00  0.00    +0.000 A 
ATOM     20  C   UNL     1      -2.323  10.036  16.366  0.00  0.00    +0.000 A 
ATOM     21  C   UNL     1      -3.508  10.750  16.502  0.00  0.00    +0.000 A 
ATOM     22  C   UNL     1      -3.657  11.617  17.581  0.00  0.00    +0.000 A 
ATOM     23  C   UNL     1      -2.630  11.750  18.528  0.00  0.00    +0.000 A 
BRANCH  21  24
ATOM     24  O   UNL     1      -4.418  10.551  15.503  0.00  0.00    +0.000 OA
ATOM     25  C   UNL     1      -3.892  10.064  14.275  0.00  0.00    +0.000 C 
ENDBRANCH  21  24
ENDBRANCH   2  18
TORSDOF 4
ENDMDL
MODEL 9
REMARK VINA RESULT:      -6.5      6.643      8.262
REMARK  Name = 
REMARK  6 active torsions:
REMARK  status: ('A' for Active; 'I' for Inactive)
REMARK    1  A    between atoms: C_1  and  O_2
REMARK    2  A    between atoms: O_2  and  C_3
REMARK    3  A    between atoms: C_6  and  C_7
REMARK    4  A    between atoms: N_8  and  C_9
REMARK    5  A    between atoms: C_12  and  O_13
REMARK    6  A    between atoms: O_13  and  C_14
REMARK                            x       y       z     vdW  Elec       q    Type
REMARK                         _______ _______ _______ _____ _____    ______ ____
ROOT
ATOM      1  C   UNL     1       0.600  11.097  20.113  0.00  0.00    +0.000 C 
ATOM      2  N   UNL     1      -0.787  11.515  20.037  0.00  0.00    +0.000 N 
ATOM      3  C   UNL     1      -1.278  11.781  21.345  0.00  0.00    +0.000 C 
ATOM      4  S   UNL     1      -2.742  12.431  21.825  0.00  0.00    +0.000 S 
ATOM      5  N   UNL     1      -0.299  11.276  22.258  0.00  0.00    +0.000 N 
ATOM      6  C   UNL     1      -0.702  10.334  23.298  0.00  0.00    +0.000 C 
ATOM      7  C   UNL     1      -0.523   9.004  22.598  0.00  0.00    +0.000 C 
ATOM      8  C   UNL     1       0.715   9.238  21.735  0.00  0.00    +0.000 C 
ATOM      9  N   UNL     1       0.797  10.697  21.518  0.00  0.00    +0.000 NA
ENDROOT
BRANCH   1  13
ATOM     10  C   UNL     1       3.361  14.312  19.060  0.00  0.00    +0.000 A 
ATOM     11  C   UNL     1       2.949  14.148  20.377  0.00  0.00    +0.000 A 
ATOM     12  C   UNL     1       2.063  13.121  20.721  0.00  0.00    +0.000 A 
ATOM     13  C   UNL     1       1.549  12.249  19.749  0.00  0.00    +0.000 A 
ATOM     14  C   UNL     1       1.943  12.449  18.413  0.00  0.00    +0.000 A 
ATOM     15  C   UNL     1       2.843  13.470  18.074  0.00  0.00    +0.000 A 
BRANCH  10  17
ATOM     16  C   UNL     1       5.314  15.058  17.965  0.00  0.00    +0.000 C 
ATOM     17  O   UNL     1       4.232  15.342  18.844  0.00  0.00    +0.000 OA
ENDBRANCH  10  17
ENDBRANCH   1  13
BRANCH   2  18
ATOM     18  C   UNL     1      -1.595  11.245  18.899  0.00  0.00    +0.000 A 
ATOM     19  C   UNL     1      -1.202  10.279  17.960  0.00  0.00    +0.000 A 
ATOM     20  C   UNL     1      -2.005   9.978  16.857  0.00  0.00    +0.000 A 
ATOM     21  C   UNL     1      -3.221  10.626  16.669  0.00  0.00    +0.000 A 
ATOM     22  C   UNL     1      -3.617  11.601  17.581  0.00  0.00    +0.000 A 
ATOM     23  C   UNL     1      -2.807  11.908  18.684  0.00  0.00    +0.000 A 
BRANCH  21  24
ATOM     24  O   UNL     1      -3.904  10.256  15.546  0.00  0.00    +0.000 OA
ATOM     25  C   UNL     1      -3.116  10.074  14.375  0.00  0.00    +0.000 C 
ENDBRANCH  21  24
ENDBRANCH   2  18
TORSDOF 4
ENDMDL
