MODEL 1
REMARK VINA RESULT:      -6.7      0.000      0.000
REMARK  Name = 
REMARK  7 active torsions:
REMARK  status: ('A' for Active; 'I' for Inactive)
REMARK    1  A    between atoms: C_1  and  O_2
REMARK    2  A    between atoms: O_2  and  C_3
REMARK    3  A    between atoms: C_8  and  O_9
REMARK    4  A    between atoms: O_9  and  C_10
REMARK    5  A    between atoms: C_13  and  C_14
REMARK    6  A    between atoms: C_17  and  O_18
REMARK    7  A    between atoms: C_19  and  O_20
REMARK                            x       y       z     vdW  Elec       q    Type
REMARK                         _______ _______ _______ _____ _____    ______ ____
ROOT
ATOM      1  C   UNL     1       5.820   5.744  16.351  0.00  0.00    +0.000 A 
ATOM      2  C   UNL     1       4.525   5.239  16.515  0.00  0.00    +0.000 A 
ATOM      3  C   UNL     1       3.996   5.046  17.790  0.00  0.00    +0.000 A 
ATOM      4  C   UNL     1       4.808   5.227  18.904  0.00  0.00    +0.000 A 
ATOM      5  C   UNL     1       6.118   5.685  18.753  0.00  0.00    +0.000 A 
ATOM      6  C   UNL     1       6.628   5.973  17.479  0.00  0.00    +0.000 A 
ATOM      7  O   UNL     1       4.386   5.016  20.192  0.00  0.00    +0.000 OA
ATOM      8  C   UNL     1       3.048   4.513  20.330  0.00  0.00    +0.000 C 
ATOM      9  C   UNL     1       2.044   5.113  19.329  0.00  0.00    +0.000 C 
ATOM     10  C   UNL     1       2.544   4.694  17.939  0.00  0.00    +0.000 C 
ENDROOT
BRANCH   9  11
ATOM     11  C   UNL     1       1.790   6.622  19.461  0.00  0.00    +0.000 A 
ATOM     12  C   UNL     1       1.381   7.216  20.670  0.00  0.00    +0.000 A 
ATOM     13  C   UNL     1       1.150   8.594  20.769  0.00  0.00    +0.000 A 
ATOM     14  C   UNL     1       1.330   9.393  19.650  0.00  0.00    +0.000 A 
ATOM     15  C   UNL     1       1.720   8.824  18.445  0.00  0.00    +0.000 A 
ATOM     16  C   UNL     1       1.945   7.459  18.339  0.00  0.00    +0.000 A 
BRANCH  14  17
ATOM     17  O   UNL     1       1.113  10.743  19.687  0.00  0.00    +0.000 OA
ATOM     18  H   UNL     1       1.878  11.157  20.123  0.00  0.00    +0.000 HD
ENDBRANCH  14  17
BRANCH  15  19
ATOM     19  O   UNL     1       1.885   9.615  17.344  0.00  0.00    +0.000 OA
ATOM     20  H   UNL     1       2.466  10.343  17.657  0.00  0.00    +0.000 HD
ENDBRANCH  15  19
ENDBRANCH   9  11
BRANCH   1  22
ATOM     21  C   UNL     1       6.784   4.894  14.373  0.00  0.00    +0.000 C 
ATOM     22  O   UNL     1       6.339   6.032  15.111  0.00  0.00    +0.000 OA
ENDBRANCH   1  22
BRANCH   6  23
ATOM     23  O   UNL     1       7.877   6.497  17.256  0.00  0.00    +0.000 OA
ATOM     24  C   UNL     1       8.091   7.850  17.643  0.00  0.00    +0.000 C 
ENDBRANCH   6  23
TORSDOF 5
ENDMDL
MODEL 2
REMARK VINA RESULT:      -6.5      0.634      1.451
REMARK  Name = 
REMARK  7 active torsions:
REMARK  status: ('A' for Active; 'I' for Inactive)
REMARK    1  A    between atoms: C_1  and  O_2
REMARK    2  A    between atoms: O_2  and  C_3
REMARK    3  A    between atoms: C_8  and  O_9
REMARK    4  A    between atoms: O_9  and  C_10
REMARK    5  A    between atoms: C_13  and  C_14
REMARK    6  A    between atoms: C_17  and  O_18
REMARK    7  A    between atoms: C_19  and  O_20
REMARK                            x       y       z     vdW  Elec       q    Type
REMARK                         _______ _______ _______ _____ _____    ______ ____
ROOT
ATOM      1  C   UNL     1       5.879   5.681  16.288  0.00  0.00    +0.000 A 
ATOM      2  C   UNL     1       4.596   5.151  16.460  0.00  0.00    +0.000 A 
ATOM      3  C   UNL     1       4.071   4.963  17.738  0.00  0.00    +0.000 A 
ATOM      4  C   UNL     1       4.880   5.176  18.848  0.00  0.00    +0.000 A 
ATOM      5  C   UNL     1       6.180   5.660  18.691  0.00  0.00    +0.000 A 
ATOM      6  C   UNL     1       6.683   5.942  17.413  0.00  0.00    +0.000 A 
ATOM      7  O   UNL     1       4.463   4.973  20.139  0.00  0.00    +0.000 OA
ATOM      8  C   UNL     1       3.135   4.443  20.285  0.00  0.00    +0.000 C 
ATOM      9  C   UNL     1       2.119   5.008  19.276  0.00  0.00    +0.000 C 
ATOM     10  C   UNL     1       2.628   4.581  17.893  0.00  0.00    +0.000 C 
ENDROOT
BRANCH   9  11
ATOM     11  C   UNL     1       1.833   6.513  19.389  0.00  0.00    +0.000 A 
ATOM     12  C   UNL     1       1.920   7.383  18.285  0.00  0.00    +0.000 A 
ATOM     13  C   UNL     1       1.659   8.753  18.408  0.00  0.00    +0.000 A 
ATOM     14  C   UNL     1       1.305   9.266  19.647  0.00  0.00    +0.000 A 
ATOM     15  C   UNL     1       1.228   8.427  20.750  0.00  0.00    +0.000 A 
ATOM     16  C   UNL     1       1.490   7.070  20.636  0.00  0.00    +0.000 A 
BRANCH  14  17
ATOM     17  O   UNL     1       1.045  10.597  19.827  0.00  0.00    +0.000 OA
ATOM     18  H   UNL     1       0.945  10.756  20.781  0.00  0.00    +0.000 HD
ENDBRANCH  14  17
BRANCH  15  19
ATOM     19  O   UNL     1       0.888   8.941  21.970  0.00  0.00    +0.000 OA
ATOM     20  H   UNL     1       1.107   8.221  22.602  0.00  0.00    +0.000 HD
ENDBRANCH  15  19
ENDBRANCH   9  11
BRANCH   1  22
ATOM     21  C   UNL     1       6.816   4.821  14.301  0.00  0.00    +0.000 C 
ATOM     22  O   UNL     1       6.391   5.964  15.044  0.00  0.00    +0.000 OA
ENDBRANCH   1  22
BRANCH   6  23
ATOM     23  O   UNL     1       7.920   6.490  17.181  0.00  0.00    +0.000 OA
ATOM     24  C   UNL     1       8.126   7.831  17.611  0.00  0.00    +0.000 C 
ENDBRANCH   6  23
TORSDOF 5
ENDMDL
MODEL 3
REMARK VINA RESULT:      -6.3      1.102      1.347
REMARK  Name = 
REMARK  7 active torsions:
REMARK  status: ('A' for Active; 'I' for Inactive)
REMARK    1  A    between atoms: C_1  and  O_2
REMARK    2  A    between atoms: O_2  and  C_3
REMARK    3  A    between atoms: C_8  and  O_9
REMARK    4  A    between atoms: O_9  and  C_10
REMARK    5  A    between atoms: C_13  and  C_14
REMARK    6  A    between atoms: C_17  and  O_18
REMARK    7  A    between atoms: C_19  and  O_20
REMARK                            x       y       z     vdW  Elec       q    Type
REMARK                         _______ _______ _______ _____ _____    ______ ____
ROOT
ATOM      1  C   UNL     1       5.927   5.311  15.906  0.00  0.00    +0.000 A 
ATOM      2  C   UNL     1       4.754   4.582  16.129  0.00  0.00    +0.000 A 
ATOM      3  C   UNL     1       4.433   4.126  17.406  0.00  0.00    +0.000 A 
ATOM      4  C   UNL     1       5.352   4.279  18.438  0.00  0.00    +0.000 A 
ATOM      5  C   UNL     1       6.549   4.963  18.220  0.00  0.00    +0.000 A 
ATOM      6  C   UNL     1       6.837   5.508  16.961  0.00  0.00    +0.000 A 
ATOM      7  O   UNL     1       5.141   3.822  19.715  0.00  0.00    +0.000 OA
ATOM      8  C   UNL     1       3.921   3.092  19.917  0.00  0.00    +0.000 C 
ATOM      9  C   UNL     1       2.716   3.653  19.140  0.00  0.00    +0.000 C 
ATOM     10  C   UNL     1       3.082   3.522  17.656  0.00  0.00    +0.000 C 
ENDROOT
BRANCH   9  11
ATOM     11  C   UNL     1       2.265   5.065  19.539  0.00  0.00    +0.000 A 
ATOM     12  C   UNL     1       1.626   5.337  20.764  0.00  0.00    +0.000 A 
ATOM     13  C   UNL     1       1.217   6.631  21.109  0.00  0.00    +0.000 A 
ATOM     14  C   UNL     1       1.448   7.672  20.222  0.00  0.00    +0.000 A 
ATOM     15  C   UNL     1       2.064   7.423  19.003  0.00  0.00    +0.000 A 
ATOM     16  C   UNL     1       2.467   6.142  18.654  0.00  0.00    +0.000 A 
BRANCH  14  17
ATOM     17  O   UNL     1       1.065   8.955  20.503  0.00  0.00    +0.000 OA
ATOM     18  H   UNL     1       0.434   8.924  21.242  0.00  0.00    +0.000 HD
ENDBRANCH  14  17
BRANCH  15  19
ATOM     19  O   UNL     1       2.280   8.451  18.130  0.00  0.00    +0.000 OA
ATOM     20  H   UNL     1       3.221   8.348  17.866  0.00  0.00    +0.000 HD
ENDBRANCH  15  19
ENDBRANCH   9  11
BRANCH   1  22
ATOM     21  C   UNL     1       6.880   4.957  13.777  0.00  0.00    +0.000 C 
ATOM     22  O   UNL     1       6.228   5.852  14.679  0.00  0.00    +0.000 OA
ENDBRANCH   1  22
BRANCH   6  23
ATOM     23  O   UNL     1       7.954   6.256  16.688  0.00  0.00    +0.000 OA
ATOM     24  C   UNL     1       8.021   7.556  17.265  0.00  0.00    +0.000 C 
ENDBRANCH   6  23
TORSDOF 5
ENDMDL
MODEL 4
REMARK VINA RESULT:      -6.3      1.400      1.907
REMARK  Name = 
REMARK  7 active torsions:
REMARK  status: ('A' for Active; 'I' for Inactive)
REMARK    1  A    between atoms: C_1  and  O_2
REMARK    2  A    between atoms: O_2  and  C_3
REMARK    3  A    between atoms: C_8  and  O_9
REMARK    4  A    between atoms: O_9  and  C_10
REMARK    5  A    between atoms: C_13  and  C_14
REMARK    6  A    between atoms: C_17  and  O_18
REMARK    7  A    between atoms: C_19  and  O_20
REMARK                            x       y       z     vdW  Elec       q    Type
REMARK                         _______ _______ _______ _____ _____    ______ ____
ROOT
ATOM      1  C   UNL     1       6.361   4.592  16.817  0.00  0.00    +0.000 A 
ATOM      2  C   UNL     1       5.015   4.353  16.518  0.00  0.00    +0.000 A 
ATOM      3  C   UNL     1       4.088   4.148  17.538  0.00  0.00    +0.000 A 
ATOM      4  C   UNL     1       4.528   4.045  18.853  0.00  0.00    +0.000 A 
ATOM      5  C   UNL     1       5.876   4.233  19.161  0.00  0.00    +0.000 A 
ATOM      6  C   UNL     1       6.801   4.535  18.152  0.00  0.00    +0.000 A 
ATOM      7  O   UNL     1       3.694   3.798  19.914  0.00  0.00    +0.000 OA
ATOM      8  C   UNL     1       2.315   3.573  19.579  0.00  0.00    +0.000 C 
ATOM      9  C   UNL     1       1.792   4.465  18.438  0.00  0.00    +0.000 C 
ATOM     10  C   UNL     1       2.626   4.091  17.204  0.00  0.00    +0.000 C 
ENDROOT
BRANCH   9  11
ATOM     11  C   UNL     1       1.766   5.973  18.728  0.00  0.00    +0.000 A 
ATOM     12  C   UNL     1       1.835   6.940  17.707  0.00  0.00    +0.000 A 
ATOM     13  C   UNL     1       1.814   8.311  17.992  0.00  0.00    +0.000 A 
ATOM     14  C   UNL     1       1.721   8.727  19.311  0.00  0.00    +0.000 A 
ATOM     15  C   UNL     1       1.666   7.789  20.333  0.00  0.00    +0.000 A 
ATOM     16  C   UNL     1       1.692   6.429  20.058  0.00  0.00    +0.000 A 
BRANCH  14  17
ATOM     17  O   UNL     1       1.702  10.053  19.648  0.00  0.00    +0.000 OA
ATOM     18  H   UNL     1       2.018  10.561  18.882  0.00  0.00    +0.000 HD
ENDBRANCH  14  17
BRANCH  15  19
ATOM     19  O   UNL     1       1.585   8.205  21.632  0.00  0.00    +0.000 OA
ATOM     20  H   UNL     1       2.387   8.759  21.756  0.00  0.00    +0.000 HD
ENDBRANCH  15  19
ENDBRANCH   9  11
BRANCH   1  22
ATOM     21  C   UNL     1       6.836   4.650  14.506  0.00  0.00    +0.000 C 
ATOM     22  O   UNL     1       7.284   4.889  15.841  0.00  0.00    +0.000 OA
ENDBRANCH   1  22
BRANCH   6  23
ATOM     23  O   UNL     1       8.125   4.808  18.384  0.00  0.00    +0.000 OA
ATOM     24  C   UNL     1       8.424   5.742  19.416  0.00  0.00    +0.000 C 
ENDBRANCH   6  23
TORSDOF 5
ENDMDL
MODEL 5
REMARK VINA RESULT:      -6.2      2.059      6.630
REMARK  Name = 
REMARK  7 active torsions:
REMARK  status: ('A' for Active; 'I' for Inactive)
REMARK    1  A    between atoms: C_1  and  O_2
REMARK    2  A    between atoms: O_2  and  C_3
REMARK    3  A    between atoms: C_8  and  O_9
REMARK    4  A    between atoms: O_9  and  C_10
REMARK    5  A    between atoms: C_13  and  C_14
REMARK    6  A    between atoms: C_17  and  O_18
REMARK    7  A    between atoms: C_19  and  O_20
REMARK                            x       y       z     vdW  Elec       q    Type
REMARK                         _______ _______ _______ _____ _____    ______ ____
ROOT
ATOM      1  C   UNL     1       2.919   6.679  18.257  0.00  0.00    +0.000 A 
ATOM      2  C   UNL     1       4.133   7.183  17.779  0.00  0.00    +0.000 A 
ATOM      3  C   UNL     1       5.275   6.384  17.761  0.00  0.00    +0.000 A 
ATOM      4  C   UNL     1       5.239   5.124  18.348  0.00  0.00    +0.000 A 
ATOM      5  C   UNL     1       4.045   4.626  18.873  0.00  0.00    +0.000 A 
ATOM      6  C   UNL     1       2.869   5.386  18.809  0.00  0.00    +0.000 A 
ATOM      7  O   UNL     1       6.325   4.289  18.417  0.00  0.00    +0.000 OA
ATOM      8  C   UNL     1       7.554   4.828  17.904  0.00  0.00    +0.000 C 
ATOM      9  C   UNL     1       7.383   5.690  16.641  0.00  0.00    +0.000 C 
ATOM     10  C   UNL     1       6.509   6.879  17.065  0.00  0.00    +0.000 C 
ENDROOT
BRANCH   9  11
ATOM     11  C   UNL     1       6.859   4.956  15.397  0.00  0.00    +0.000 A 
ATOM     12  C   UNL     1       5.801   4.029  15.457  0.00  0.00    +0.000 A 
ATOM     13  C   UNL     1       5.341   3.366  14.312  0.00  0.00    +0.000 A 
ATOM     14  C   UNL     1       5.940   3.630  13.090  0.00  0.00    +0.000 A 
ATOM     15  C   UNL     1       6.994   4.531  13.013  0.00  0.00    +0.000 A 
ATOM     16  C   UNL     1       7.458   5.187  14.144  0.00  0.00    +0.000 A 
BRANCH  14  17
ATOM     17  O   UNL     1       5.536   3.009  11.940  0.00  0.00    +0.000 OA
ATOM     18  H   UNL     1       6.293   2.513  11.586  0.00  0.00    +0.000 HD
ENDBRANCH  14  17
BRANCH  15  19
ATOM     19  O   UNL     1       7.586   4.780  11.807  0.00  0.00    +0.000 OA
ATOM     20  H   UNL     1       7.161   4.140  11.195  0.00  0.00    +0.000 HD
ENDBRANCH  15  19
ENDBRANCH   9  11
BRANCH   1  22
ATOM     21  C   UNL     1       1.929   8.784  17.866  0.00  0.00    +0.000 C 
ATOM     22  O   UNL     1       1.754   7.408  18.205  0.00  0.00    +0.000 OA
ENDBRANCH   1  22
BRANCH   6  23
ATOM     23  O   UNL     1       1.644   4.936  19.234  0.00  0.00    +0.000 OA
ATOM     24  C   UNL     1       1.544   4.509  20.588  0.00  0.00    +0.000 C 
ENDBRANCH   6  23
TORSDOF 5
ENDMDL
MODEL 6
REMARK VINA RESULT:      -6.1      2.341      6.192
REMARK  Name = 
REMARK  7 active torsions:
REMARK  status: ('A' for Active; 'I' for Inactive)
REMARK    1  A    between atoms: C_1  and  O_2
REMARK    2  A    between atoms: O_2  and  C_3
REMARK    3  A    between atoms: C_8  and  O_9
REMARK    4  A    between atoms: O_9  and  C_10
REMARK    5  A    between atoms: C_13  and  C_14
REMARK    6  A    between atoms: C_17  and  O_18
REMARK    7  A    between atoms: C_19  and  O_20
REMARK                            x       y       z     vdW  Elec       q    Type
REMARK                         _______ _______ _______ _____ _____    ______ ____
ROOT
ATOM      1  C   UNL     1       2.489   3.960  20.642  0.00  0.00    +0.000 A 
ATOM      2  C   UNL     1       3.406   3.231  19.876  0.00  0.00    +0.000 A 
ATOM      3  C   UNL     1       3.751   3.652  18.592  0.00  0.00    +0.000 A 
ATOM      4  C   UNL     1       3.078   4.725  18.020  0.00  0.00    +0.000 A 
ATOM      5  C   UNL     1       2.125   5.433  18.755  0.00  0.00    +0.000 A 
ATOM      6  C   UNL     1       1.841   5.075  20.080  0.00  0.00    +0.000 A 
ATOM      7  O   UNL     1       3.318   5.179  16.747  0.00  0.00    +0.000 OA
ATOM      8  C   UNL     1       4.276   4.421  15.991  0.00  0.00    +0.000 C 
ATOM      9  C   UNL     1       5.471   3.914  16.817  0.00  0.00    +0.000 C 
ATOM     10  C   UNL     1       4.876   2.970  17.871  0.00  0.00    +0.000 C 
ENDROOT
BRANCH   9  11
ATOM     11  C   UNL     1       6.381   5.001  17.410  0.00  0.00    +0.000 A 
ATOM     12  C   UNL     1       6.699   6.183  16.713  0.00  0.00    +0.000 A 
ATOM     13  C   UNL     1       7.535   7.160  17.268  0.00  0.00    +0.000 A 
ATOM     14  C   UNL     1       8.061   6.960  18.536  0.00  0.00    +0.000 A 
ATOM     15  C   UNL     1       7.771   5.795  19.232  0.00  0.00    +0.000 A 
ATOM     16  C   UNL     1       6.948   4.820  18.686  0.00  0.00    +0.000 A 
BRANCH  14  17
ATOM     17  O   UNL     1       8.887   7.877  19.125  0.00  0.00    +0.000 OA
ATOM     18  H   UNL     1       8.446   8.743  19.088  0.00  0.00    +0.000 HD
ENDBRANCH  14  17
BRANCH  15  19
ATOM     19  O   UNL     1       8.301   5.599  20.477  0.00  0.00    +0.000 OA
ATOM     20  H   UNL     1       8.035   4.682  20.709  0.00  0.00    +0.000 HD
ENDBRANCH  15  19
ENDBRANCH   9  11
BRANCH   1  22
ATOM     21  C   UNL     1       1.435   2.425  22.091  0.00  0.00    +0.000 C 
ATOM     22  O   UNL     1       2.196   3.625  21.942  0.00  0.00    +0.000 OA
ENDBRANCH   1  22
BRANCH   6  23
ATOM     23  O   UNL     1       0.976   5.766  20.891  0.00  0.00    +0.000 OA
ATOM     24  C   UNL     1       1.188   7.168  21.020  0.00  0.00    +0.000 C 
ENDBRANCH   6  23
TORSDOF 5
ENDMDL
MODEL 7
REMARK VINA RESULT:      -6.1      2.718      6.676
REMARK  Name = 
REMARK  7 active torsions:
REMARK  status: ('A' for Active; 'I' for Inactive)
REMARK    1  A    between atoms: C_1  and  O_2
REMARK    2  A    between atoms: O_2  and  C_3
REMARK    3  A    between atoms: C_8  and  O_9
REMARK    4  A    between atoms: O_9  and  C_10
REMARK    5  A    between atoms: C_13  and  C_14
REMARK    6  A    between atoms: C_17  and  O_18
REMARK    7  A    between atoms: C_19  and  O_20
REMARK                            x       y       z     vdW  Elec       q    Type
REMARK                         _______ _______ _______ _____ _____    ______ ____
ROOT
ATOM      1  C   UNL     1       2.815   4.648  19.169  0.00  0.00    +0.000 A 
ATOM      2  C   UNL     1       3.491   5.723  18.582  0.00  0.00    +0.000 A 
ATOM      3  C   UNL     1       4.860   5.649  18.331  0.00  0.00    +0.000 A 
ATOM      4  C   UNL     1       5.582   4.554  18.792  0.00  0.00    +0.000 A 
ATOM      5  C   UNL     1       4.929   3.494  19.423  0.00  0.00    +0.000 A 
ATOM      6  C   UNL     1       3.538   3.518  19.594  0.00  0.00    +0.000 A 
ATOM      7  O   UNL     1       6.938   4.419  18.632  0.00  0.00    +0.000 OA
ATOM      8  C   UNL     1       7.602   5.531  18.011  0.00  0.00    +0.000 C 
ATOM      9  C   UNL     1       6.800   6.187  16.873  0.00  0.00    +0.000 C 
ATOM     10  C   UNL     1       5.521   6.729  17.526  0.00  0.00    +0.000 C 
ENDROOT
BRANCH   9  11
ATOM     11  C   UNL     1       6.536   5.302  15.647  0.00  0.00    +0.000 A 
ATOM     12  C   UNL     1       5.548   4.298  15.638  0.00  0.00    +0.000 A 
ATOM     13  C   UNL     1       5.324   3.497  14.511  0.00  0.00    +0.000 A 
ATOM     14  C   UNL     1       6.094   3.698  13.375  0.00  0.00    +0.000 A 
ATOM     15  C   UNL     1       7.082   4.673  13.368  0.00  0.00    +0.000 A 
ATOM     16  C   UNL     1       7.312   5.466  14.483  0.00  0.00    +0.000 A 
BRANCH  14  17
ATOM     17  O   UNL     1       5.924   2.942  12.247  0.00  0.00    +0.000 OA
ATOM     18  H   UNL     1       6.362   2.086  12.392  0.00  0.00    +0.000 HD
ENDBRANCH  14  17
BRANCH  15  19
ATOM     19  O   UNL     1       7.844   4.859  12.249  0.00  0.00    +0.000 OA
ATOM     20  H   UNL     1       7.208   4.754  11.507  0.00  0.00    +0.000 HD
ENDBRANCH  15  19
ENDBRANCH   9  11
BRANCH   1  22
ATOM     21  C   UNL     1       0.998   5.428  20.456  0.00  0.00    +0.000 C 
ATOM     22  O   UNL     1       1.452   4.652  19.346  0.00  0.00    +0.000 OA
ENDBRANCH   1  22
BRANCH   6  23
ATOM     23  O   UNL     1       2.816   2.484  20.135  0.00  0.00    +0.000 OA
ATOM     24  C   UNL     1       2.680   2.460  21.552  0.00  0.00    +0.000 C 
ENDBRANCH   6  23
TORSDOF 5
ENDMDL
MODEL 8
REMARK VINA RESULT:      -5.9      8.338     11.315
REMARK  Name = 
REMARK  7 active torsions:
REMARK  status: ('A' for Active; 'I' for Inactive)
REMARK    1  A    between atoms: C_1  and  O_2
REMARK    2  A    between atoms: O_2  and  C_3
REMARK    3  A    between atoms: C_8  and  O_9
REMARK    4  A    between atoms: O_9  and  C_10
REMARK    5  A    between atoms: C_13  and  C_14
REMARK    6  A    between atoms: C_17  and  O_18
REMARK    7  A    between atoms: C_19  and  O_20
REMARK                            x       y       z     vdW  Elec       q    Type
REMARK                         _______ _______ _______ _____ _____    ______ ____
ROOT
ATOM      1  C   UNL     1      -3.180  11.213  16.963  0.00  0.00    +0.000 A 
ATOM      2  C   UNL     1      -4.576  11.122  16.958  0.00  0.00    +0.000 A 
ATOM      3  C   UNL     1      -5.322  11.598  18.036  0.00  0.00    +0.000 A 
ATOM      4  C   UNL     1      -4.667  12.039  19.180  0.00  0.00    +0.000 A 
ATOM      5  C   UNL     1      -3.272  12.090  19.218  0.00  0.00    +0.000 A 
ATOM      6  C   UNL     1      -2.516  11.704  18.102  0.00  0.00    +0.000 A 
ATOM      7  O   UNL     1      -5.319  12.481  20.303  0.00  0.00    +0.000 OA
ATOM      8  C   UNL     1      -6.752  12.391  20.263  0.00  0.00    +0.000 C 
ATOM      9  C   UNL     1      -7.364  12.727  18.891  0.00  0.00    +0.000 C 
ATOM     10  C   UNL     1      -6.816  11.670  17.922  0.00  0.00    +0.000 C 
ENDROOT
BRANCH   9  11
ATOM     11  C   UNL     1      -7.161  14.169  18.405  0.00  0.00    +0.000 A 
ATOM     12  C   UNL     1      -6.852  15.226  19.283  0.00  0.00    +0.000 A 
ATOM     13  C   UNL     1      -6.676  16.537  18.821  0.00  0.00    +0.000 A 
ATOM     14  C   UNL     1      -6.807  16.800  17.466  0.00  0.00    +0.000 A 
ATOM     15  C   UNL     1      -7.125  15.774  16.586  0.00  0.00    +0.000 A 
ATOM     16  C   UNL     1      -7.306  14.475  17.038  0.00  0.00    +0.000 A 
BRANCH  14  17
ATOM     17  O   UNL     1      -6.651  18.061  16.959  0.00  0.00    +0.000 OA
ATOM     18  H   UNL     1      -5.716  18.310  17.059  0.00  0.00    +0.000 HD
ENDBRANCH  14  17
BRANCH  15  19
ATOM     19  O   UNL     1      -7.262  16.042  15.253  0.00  0.00    +0.000 OA
ATOM     20  H   UNL     1      -6.542  15.525  14.830  0.00  0.00    +0.000 HD
ENDBRANCH  15  19
ENDBRANCH   9  11
BRANCH   1  22
ATOM     21  C   UNL     1      -3.164  10.278  14.797  0.00  0.00    +0.000 C 
ATOM     22  O   UNL     1      -2.420  10.838  15.880  0.00  0.00    +0.000 OA
ENDBRANCH   1  22
BRANCH   6  23
ATOM     23  O   UNL     1      -1.149  11.796  18.035  0.00  0.00    +0.000 OA
ATOM     24  C   UNL     1      -0.567  13.053  18.368  0.00  0.00    +0.000 C 
ENDBRANCH   6  23
TORSDOF 5
ENDMDL
MODEL 9
REMARK VINA RESULT:      -5.8      2.203      5.937
REMARK  Name = 
REMARK  7 active torsions:
REMARK  status: ('A' for Active; 'I' for Inactive)
REMARK    1  A    between atoms: C_1  and  O_2
REMARK    2  A    between atoms: O_2  and  C_3
REMARK    3  A    between atoms: C_8  and  O_9
REMARK    4  A    between atoms: O_9  and  C_10
REMARK    5  A    between atoms: C_13  and  C_14
REMARK    6  A    between atoms: C_17  and  O_18
REMARK    7  A    between atoms: C_19  and  O_20
REMARK                            x       y       z     vdW  Elec       q    Type
REMARK                         _______ _______ _______ _____ _____    ______ ____
ROOT
ATOM      1  C   UNL     1       2.589   4.186  20.549  0.00  0.00    +0.000 A 
ATOM      2  C   UNL     1       3.532   3.471  19.803  0.00  0.00    +0.000 A 
ATOM      3  C   UNL     1       3.933   3.922  18.547  0.00  0.00    +0.000 A 
ATOM      4  C   UNL     1       3.291   5.014  17.974  0.00  0.00    +0.000 A 
ATOM      5  C   UNL     1       2.313   5.709  18.688  0.00  0.00    +0.000 A 
ATOM      6  C   UNL     1       1.972   5.320  19.991  0.00  0.00    +0.000 A 
ATOM      7  O   UNL     1       3.587   5.498  16.725  0.00  0.00    +0.000 OA
ATOM      8  C   UNL     1       4.570   4.753  15.990  0.00  0.00    +0.000 C 
ATOM      9  C   UNL     1       5.727   4.217  16.852  0.00  0.00    +0.000 C 
ATOM     10  C   UNL     1       5.083   3.250  17.855  0.00  0.00    +0.000 C 
ENDROOT
BRANCH   9  11
ATOM     11  C   UNL     1       6.618   5.281  17.509  0.00  0.00    +0.000 A 
ATOM     12  C   UNL     1       7.397   5.014  18.651  0.00  0.00    +0.000 A 
ATOM     13  C   UNL     1       8.200   5.999  19.239  0.00  0.00    +0.000 A 
ATOM     14  C   UNL     1       8.231   7.269  18.682  0.00  0.00    +0.000 A 
ATOM     15  C   UNL     1       7.460   7.556  17.564  0.00  0.00    +0.000 A 
ATOM     16  C   UNL     1       6.658   6.586  16.981  0.00  0.00    +0.000 A 
BRANCH  14  17
ATOM     17  O   UNL     1       8.993   8.271  19.218  0.00  0.00    +0.000 OA
ATOM     18  H   UNL     1       8.991   9.015  18.591  0.00  0.00    +0.000 HD
ENDBRANCH  14  17
BRANCH  15  19
ATOM     19  O   UNL     1       7.487   8.812  17.026  0.00  0.00    +0.000 OA
ATOM     20  H   UNL     1       8.168   8.755  16.321  0.00  0.00    +0.000 HD
ENDBRANCH  15  19
ENDBRANCH   9  11
BRANCH   1  22
ATOM     21  C   UNL     1       1.647   2.525  21.935  0.00  0.00    +0.000 C 
ATOM     22  O   UNL     1       2.240   3.820  21.828  0.00  0.00    +0.000 OA
ENDBRANCH   1  22
BRANCH   6  23
ATOM     23  O   UNL     1       1.078   5.996  20.782  0.00  0.00    +0.000 OA
ATOM     24  C   UNL     1       1.273   7.399  20.928  0.00  0.00    +0.000 C 
ENDBRANCH   6  23
TORSDOF 5
ENDMDL
