MODEL 1
REMARK VINA RESULT:      -7.9      0.000      0.000
REMARK  Name = 
REMARK  6 active torsions:
REMARK  status: ('A' for Active; 'I' for Inactive)
REMARK    1  A    between atoms: N_1  and  C_2
REMARK    2  A    between atoms: C_2  and  C_3
REMARK    3  A    between atoms: C_5  and  O_6
REMARK    4  A    between atoms: O_6  and  C_7
REMARK    5  A    between atoms: C_11  and  O_12
REMARK    6  A    between atoms: O_12  and  C_13
REMARK                            x       y       z     vdW  Elec       q    Type
REMARK                         _______ _______ _______ _____ _____    ______ ____
ROOT
ATOM      1  C   UNL     1       6.159   5.412  16.649  0.00  0.00    +0.000 A 
ATOM      2  C   UNL     1       5.549   6.598  16.225  0.00  0.00    +0.000 A 
ATOM      3  C   UNL     1       4.480   7.138  16.949  0.00  0.00    +0.000 A 
ATOM      4  C   UNL     1       4.005   6.489  18.095  0.00  0.00    +0.000 A 
ATOM      5  C   UNL     1       4.606   5.305  18.536  0.00  0.00    +0.000 A 
ATOM      6  C   UNL     1       5.680   4.769  17.805  0.00  0.00    +0.000 A 
ENDROOT
BRANCH   1   7
ATOM      7  O   UNL     1       7.177   4.885  15.921  0.00  0.00    +0.000 OA
BRANCH   7  10
ATOM      8  C   UNL     1       6.333   3.690  12.578  0.00  0.00    +0.000 A 
ATOM      9  C   UNL     1       6.315   3.815  13.973  0.00  0.00    +0.000 A 
ATOM     10  C   UNL     1       7.168   4.743  14.571  0.00  0.00    +0.000 A 
ATOM     11  N   UNL     1       7.981   5.509  13.792  0.00  0.00    +0.000 NA
ATOM     12  C   UNL     1       7.975   5.387  12.440  0.00  0.00    +0.000 A 
ATOM     13  N   UNL     1       7.158   4.483  11.844  0.00  0.00    +0.000 NA
BRANCH   8  14
ATOM     14  C   UNL     1       5.461   2.687  11.882  0.00  0.00    +0.000 C 
BRANCH  14  15
ATOM     15  N   UNL     1       6.209   1.468  11.595  0.00  0.00    +0.000 NA
ATOM     16  H   UNL     1       6.389   1.428  10.566  0.00  0.00    +0.000 HD
ATOM     17  H   UNL     1       5.630   0.637  11.855  0.00  0.00    +0.000 HD
ENDBRANCH  14  15
ENDBRANCH   8  14
ENDBRANCH   7  10
ENDBRANCH   1   7
BRANCH   5  18
ATOM     18  O   UNL     1       4.121   4.681  19.642  0.00  0.00    +0.000 OA
BRANCH  18  19
ATOM     19  C   UNL     1       2.970   3.959  19.710  0.00  0.00    +0.000 A 
ATOM     20  C   UNL     1       2.345   3.679  20.943  0.00  0.00    +0.000 A 
ATOM     21  C   UNL     1       1.156   2.949  20.983  0.00  0.00    +0.000 A 
ATOM     22  C   UNL     1       0.577   2.489  19.798  0.00  0.00    +0.000 A 
ATOM     23  C   UNL     1       1.187   2.766  18.571  0.00  0.00    +0.000 A 
ATOM     24  C   UNL     1       2.376   3.504  18.525  0.00  0.00    +0.000 A 
ENDBRANCH  18  19
ENDBRANCH   5  18
TORSDOF 6
ENDMDL
MODEL 2
REMARK VINA RESULT:      -7.8      0.922      1.116
REMARK  Name = 
REMARK  6 active torsions:
REMARK  status: ('A' for Active; 'I' for Inactive)
REMARK    1  A    between atoms: N_1  and  C_2
REMARK    2  A    between atoms: C_2  and  C_3
REMARK    3  A    between atoms: C_5  and  O_6
REMARK    4  A    between atoms: O_6  and  C_7
REMARK    5  A    between atoms: C_11  and  O_12
REMARK    6  A    between atoms: O_12  and  C_13
REMARK                            x       y       z     vdW  Elec       q    Type
REMARK                         _______ _______ _______ _____ _____    ______ ____
ROOT
ATOM      1  C   UNL     1       5.512   5.311  16.614  0.00  0.00    +0.000 A 
ATOM      2  C   UNL     1       5.744   6.688  16.706  0.00  0.00    +0.000 A 
ATOM      3  C   UNL     1       4.779   7.529  17.272  0.00  0.00    +0.000 A 
ATOM      4  C   UNL     1       3.570   7.001  17.738  0.00  0.00    +0.000 A 
ATOM      5  C   UNL     1       3.322   5.626  17.659  0.00  0.00    +0.000 A 
ATOM      6  C   UNL     1       4.296   4.787  17.091  0.00  0.00    +0.000 A 
ENDROOT
BRANCH   1   7
ATOM      7  O   UNL     1       6.444   4.511  16.037  0.00  0.00    +0.000 OA
BRANCH   7  10
ATOM      8  C   UNL     1       6.253   3.555  12.521  0.00  0.00    +0.000 A 
ATOM      9  C   UNL     1       5.966   3.590  13.891  0.00  0.00    +0.000 A 
ATOM     10  C   UNL     1       6.697   4.457  14.705  0.00  0.00    +0.000 A 
ATOM     11  N   UNL     1       7.656   5.251  14.152  0.00  0.00    +0.000 NA
ATOM     12  C   UNL     1       7.911   5.216  12.818  0.00  0.00    +0.000 A 
ATOM     13  N   UNL     1       7.216   4.373  12.016  0.00  0.00    +0.000 NA
BRANCH   8  14
ATOM     14  C   UNL     1       5.521   2.621  11.602  0.00  0.00    +0.000 C 
BRANCH  14  15
ATOM     15  N   UNL     1       6.220   1.344  11.507  0.00  0.00    +0.000 NA
ATOM     16  H   UNL     1       7.225   1.536  11.288  0.00  0.00    +0.000 HD
ATOM     17  H   UNL     1       5.819   0.788  10.717  0.00  0.00    +0.000 HD
ENDBRANCH  14  15
ENDBRANCH   8  14
ENDBRANCH   7  10
ENDBRANCH   1   7
BRANCH   5  18
ATOM     18  O   UNL     1       2.135   5.134  18.103  0.00  0.00    +0.000 OA
BRANCH  18  19
ATOM     19  C   UNL     1       1.962   4.323  19.182  0.00  0.00    +0.000 A 
ATOM     20  C   UNL     1       2.313   4.738  20.483  0.00  0.00    +0.000 A 
ATOM     21  C   UNL     1       2.109   3.892  21.574  0.00  0.00    +0.000 A 
ATOM     22  C   UNL     1       1.557   2.624  21.382  0.00  0.00    +0.000 A 
ATOM     23  C   UNL     1       1.201   2.205  20.097  0.00  0.00    +0.000 A 
ATOM     24  C   UNL     1       1.397   3.053  19.000  0.00  0.00    +0.000 A 
ENDBRANCH  18  19
ENDBRANCH   5  18
TORSDOF 6
ENDMDL
MODEL 3
REMARK VINA RESULT:      -7.8      2.693      5.092
REMARK  Name = 
REMARK  6 active torsions:
REMARK  status: ('A' for Active; 'I' for Inactive)
REMARK    1  A    between atoms: N_1  and  C_2
REMARK    2  A    between atoms: C_2  and  C_3
REMARK    3  A    between atoms: C_5  and  O_6
REMARK    4  A    between atoms: O_6  and  C_7
REMARK    5  A    between atoms: C_11  and  O_12
REMARK    6  A    between atoms: O_12  and  C_13
REMARK                            x       y       z     vdW  Elec       q    Type
REMARK                         _______ _______ _______ _____ _____    ______ ____
ROOT
ATOM      1  C   UNL     1       3.728   3.817  19.703  0.00  0.00    +0.000 A 
ATOM      2  C   UNL     1       2.761   2.808  19.774  0.00  0.00    +0.000 A 
ATOM      3  C   UNL     1       1.451   3.113  20.159  0.00  0.00    +0.000 A 
ATOM      4  C   UNL     1       1.100   4.427  20.488  0.00  0.00    +0.000 A 
ATOM      5  C   UNL     1       2.052   5.450  20.418  0.00  0.00    +0.000 A 
ATOM      6  C   UNL     1       3.366   5.137  20.029  0.00  0.00    +0.000 A 
ENDROOT
BRANCH   1   7
ATOM      7  O   UNL     1       5.002   3.502  19.356  0.00  0.00    +0.000 OA
BRANCH   7  10
ATOM      8  C   UNL     1       6.469   5.062  16.402  0.00  0.00    +0.000 A 
ATOM      9  C   UNL     1       5.626   4.264  17.185  0.00  0.00    +0.000 A 
ATOM     10  C   UNL     1       5.800   4.268  18.570  0.00  0.00    +0.000 A 
ATOM     11  N   UNL     1       6.767   5.051  19.124  0.00  0.00    +0.000 NA
ATOM     12  C   UNL     1       7.565   5.832  18.352  0.00  0.00    +0.000 A 
ATOM     13  N   UNL     1       7.415   5.832  17.004  0.00  0.00    +0.000 NA
BRANCH   8  14
ATOM     14  C   UNL     1       6.349   5.075  14.906  0.00  0.00    +0.000 C 
BRANCH  14  15
ATOM     15  N   UNL     1       7.631   5.401  14.292  0.00  0.00    +0.000 NA
ATOM     16  H   UNL     1       7.614   5.071  13.300  0.00  0.00    +0.000 HD
ATOM     17  H   UNL     1       8.394   4.887  14.790  0.00  0.00    +0.000 HD
ENDBRANCH  14  15
ENDBRANCH   8  14
ENDBRANCH   7  10
ENDBRANCH   1   7
BRANCH   5  18
ATOM     18  O   UNL     1       1.698   6.718  20.756  0.00  0.00    +0.000 OA
BRANCH  18  19
ATOM     19  C   UNL     1       1.663   7.788  19.916  0.00  0.00    +0.000 A 
ATOM     20  C   UNL     1       2.225   7.732  18.624  0.00  0.00    +0.000 A 
ATOM     21  C   UNL     1       2.161   8.840  17.778  0.00  0.00    +0.000 A 
ATOM     22  C   UNL     1       1.540  10.014  18.207  0.00  0.00    +0.000 A 
ATOM     23  C   UNL     1       0.976  10.078  19.485  0.00  0.00    +0.000 A 
ATOM     24  C   UNL     1       1.031   8.967  20.335  0.00  0.00    +0.000 A 
ENDBRANCH  18  19
ENDBRANCH   5  18
TORSDOF 6
ENDMDL
MODEL 4
REMARK VINA RESULT:      -7.8      1.086      1.408
REMARK  Name = 
REMARK  6 active torsions:
REMARK  status: ('A' for Active; 'I' for Inactive)
REMARK    1  A    between atoms: N_1  and  C_2
REMARK    2  A    between atoms: C_2  and  C_3
REMARK    3  A    between atoms: C_5  and  O_6
REMARK    4  A    between atoms: O_6  and  C_7
REMARK    5  A    between atoms: C_11  and  O_12
REMARK    6  A    between atoms: O_12  and  C_13
REMARK                            x       y       z     vdW  Elec       q    Type
REMARK                         _______ _______ _______ _____ _____    ______ ____
ROOT
ATOM      1  C   UNL     1       5.644   5.311  16.530  0.00  0.00    +0.000 A 
ATOM      2  C   UNL     1       5.424   6.682  16.704  0.00  0.00    +0.000 A 
ATOM      3  C   UNL     1       4.239   7.137  17.291  0.00  0.00    +0.000 A 
ATOM      4  C   UNL     1       3.258   6.225  17.698  0.00  0.00    +0.000 A 
ATOM      5  C   UNL     1       3.462   4.850  17.537  0.00  0.00    +0.000 A 
ATOM      6  C   UNL     1       4.656   4.400  16.947  0.00  0.00    +0.000 A 
ENDROOT
BRANCH   1   7
ATOM      7  O   UNL     1       6.786   4.885  15.933  0.00  0.00    +0.000 OA
BRANCH   7  10
ATOM      8  C   UNL     1       6.350   3.650  12.527  0.00  0.00    +0.000 A 
ATOM      9  C   UNL     1       6.160   3.796  13.907  0.00  0.00    +0.000 A 
ATOM     10  C   UNL     1       6.944   4.723  14.594  0.00  0.00    +0.000 A 
ATOM     11  N   UNL     1       7.858   5.469  13.913  0.00  0.00    +0.000 NA
ATOM     12  C   UNL     1       8.018   5.327  12.572  0.00  0.00    +0.000 A 
ATOM     13  N   UNL     1       7.270   4.423  11.891  0.00  0.00    +0.000 NA
BRANCH   8  14
ATOM     14  C   UNL     1       5.558   2.646  11.741  0.00  0.00    +0.000 C 
BRANCH  14  15
ATOM     15  N   UNL     1       4.235   3.172  11.424  0.00  0.00    +0.000 NA
ATOM     16  H   UNL     1       4.345   3.930  10.711  0.00  0.00    +0.000 HD
ATOM     17  H   UNL     1       3.816   3.596  12.283  0.00  0.00    +0.000 HD
ENDBRANCH  14  15
ENDBRANCH   8  14
ENDBRANCH   7  10
ENDBRANCH   1   7
BRANCH   5  18
ATOM     18  O   UNL     1       2.492   3.980  17.923  0.00  0.00    +0.000 OA
BRANCH  18  19
ATOM     19  C   UNL     1       2.305   3.502  19.183  0.00  0.00    +0.000 A 
ATOM     20  C   UNL     1       1.025   3.452  19.774  0.00  0.00    +0.000 A 
ATOM     21  C   UNL     1       0.861   2.943  21.062  0.00  0.00    +0.000 A 
ATOM     22  C   UNL     1       1.966   2.479  21.778  0.00  0.00    +0.000 A 
ATOM     23  C   UNL     1       3.239   2.519  21.200  0.00  0.00    +0.000 A 
ATOM     24  C   UNL     1       3.408   3.023  19.904  0.00  0.00    +0.000 A 
ENDBRANCH  18  19
ENDBRANCH   5  18
TORSDOF 6
ENDMDL
MODEL 5
REMARK VINA RESULT:      -7.8      2.679      4.997
REMARK  Name = 
REMARK  6 active torsions:
REMARK  status: ('A' for Active; 'I' for Inactive)
REMARK    1  A    between atoms: N_1  and  C_2
REMARK    2  A    between atoms: C_2  and  C_3
REMARK    3  A    between atoms: C_5  and  O_6
REMARK    4  A    between atoms: O_6  and  C_7
REMARK    5  A    between atoms: C_11  and  O_12
REMARK    6  A    between atoms: O_12  and  C_13
REMARK                            x       y       z     vdW  Elec       q    Type
REMARK                         _______ _______ _______ _____ _____    ______ ____
ROOT
ATOM      1  C   UNL     1       3.703   3.782  19.650  0.00  0.00    +0.000 A 
ATOM      2  C   UNL     1       2.717   2.790  19.709  0.00  0.00    +0.000 A 
ATOM      3  C   UNL     1       1.414   3.114  20.104  0.00  0.00    +0.000 A 
ATOM      4  C   UNL     1       1.090   4.430  20.454  0.00  0.00    +0.000 A 
ATOM      5  C   UNL     1       2.061   5.435  20.396  0.00  0.00    +0.000 A 
ATOM      6  C   UNL     1       3.368   5.103  19.998  0.00  0.00    +0.000 A 
ENDROOT
BRANCH   1   7
ATOM      7  O   UNL     1       4.969   3.448  19.293  0.00  0.00    +0.000 OA
BRANCH   7  10
ATOM      8  C   UNL     1       6.485   5.030  16.375  0.00  0.00    +0.000 A 
ATOM      9  C   UNL     1       5.626   4.230  17.139  0.00  0.00    +0.000 A 
ATOM     10  C   UNL     1       5.783   4.216  18.526  0.00  0.00    +0.000 A 
ATOM     11  N   UNL     1       6.750   4.984  19.101  0.00  0.00    +0.000 NA
ATOM     12  C   UNL     1       7.564   5.767  18.347  0.00  0.00    +0.000 A 
ATOM     13  N   UNL     1       7.430   5.784  16.998  0.00  0.00    +0.000 NA
BRANCH   8  14
ATOM     14  C   UNL     1       6.383   5.061  14.878  0.00  0.00    +0.000 C 
BRANCH  14  15
ATOM     15  N   UNL     1       7.665   5.427  14.286  0.00  0.00    +0.000 NA
ATOM     16  H   UNL     1       8.277   4.579  14.277  0.00  0.00    +0.000 HD
ATOM     17  H   UNL     1       8.127   6.152  14.881  0.00  0.00    +0.000 HD
ENDBRANCH  14  15
ENDBRANCH   8  14
ENDBRANCH   7  10
ENDBRANCH   1   7
BRANCH   5  18
ATOM     18  O   UNL     1       1.732   6.705  20.756  0.00  0.00    +0.000 OA
BRANCH  18  19
ATOM     19  C   UNL     1       1.660   7.776  19.922  0.00  0.00    +0.000 A 
ATOM     20  C   UNL     1       1.016   8.971  20.305  0.00  0.00    +0.000 A 
ATOM     21  C   UNL     1       0.970  10.060  19.434  0.00  0.00    +0.000 A 
ATOM     22  C   UNL     1       1.563   9.974  18.173  0.00  0.00    +0.000 A 
ATOM     23  C   UNL     1       2.209   8.796  17.785  0.00  0.00    +0.000 A 
ATOM     24  C   UNL     1       2.263   7.702  18.658  0.00  0.00    +0.000 A 
ENDBRANCH  18  19
ENDBRANCH   5  18
TORSDOF 6
ENDMDL
MODEL 6
REMARK VINA RESULT:      -7.7      0.671      1.159
REMARK  Name = 
REMARK  6 active torsions:
REMARK  status: ('A' for Active; 'I' for Inactive)
REMARK    1  A    between atoms: N_1  and  C_2
REMARK    2  A    between atoms: C_2  and  C_3
REMARK    3  A    between atoms: C_5  and  O_6
REMARK    4  A    between atoms: O_6  and  C_7
REMARK    5  A    between atoms: C_11  and  O_12
REMARK    6  A    between atoms: O_12  and  C_13
REMARK                            x       y       z     vdW  Elec       q    Type
REMARK                         _______ _______ _______ _____ _____    ______ ____
ROOT
ATOM      1  C   UNL     1       6.318   5.387  16.604  0.00  0.00    +0.000 A 
ATOM      2  C   UNL     1       5.638   6.568  16.284  0.00  0.00    +0.000 A 
ATOM      3  C   UNL     1       4.550   6.986  17.057  0.00  0.00    +0.000 A 
ATOM      4  C   UNL     1       4.126   6.222  18.150  0.00  0.00    +0.000 A 
ATOM      5  C   UNL     1       4.797   5.042  18.489  0.00  0.00    +0.000 A 
ATOM      6  C   UNL     1       5.890   4.627  17.708  0.00  0.00    +0.000 A 
ENDROOT
BRANCH   1   7
ATOM      7  O   UNL     1       7.354   4.978  15.828  0.00  0.00    +0.000 OA
BRANCH   7  10
ATOM      8  C   UNL     1       6.397   3.706  12.545  0.00  0.00    +0.000 A 
ATOM      9  C   UNL     1       6.436   3.855  13.937  0.00  0.00    +0.000 A 
ATOM     10  C   UNL     1       7.292   4.812  14.482  0.00  0.00    +0.000 A 
ATOM     11  N   UNL     1       8.055   5.582  13.657  0.00  0.00    +0.000 NA
ATOM     12  C   UNL     1       7.994   5.436  12.308  0.00  0.00    +0.000 A 
ATOM     13  N   UNL     1       7.173   4.504  11.762  0.00  0.00    +0.000 NA
BRANCH   8  14
ATOM     14  C   UNL     1       5.519   2.673  11.903  0.00  0.00    +0.000 C 
BRANCH  14  15
ATOM     15  N   UNL     1       4.272   3.274  11.444  0.00  0.00    +0.000 NA
ATOM     16  H   UNL     1       3.517   3.023  12.124  0.00  0.00    +0.000 HD
ATOM     17  H   UNL     1       4.015   2.871  10.514  0.00  0.00    +0.000 HD
ENDBRANCH  14  15
ENDBRANCH   8  14
ENDBRANCH   7  10
ENDBRANCH   1   7
BRANCH   5  18
ATOM     18  O   UNL     1       4.362   4.304  19.545  0.00  0.00    +0.000 OA
BRANCH  18  19
ATOM     19  C   UNL     1       3.129   3.744  19.671  0.00  0.00    +0.000 A 
ATOM     20  C   UNL     1       2.679   2.738  18.791  0.00  0.00    +0.000 A 
ATOM     21  C   UNL     1       1.415   2.170  18.954  0.00  0.00    +0.000 A 
ATOM     22  C   UNL     1       0.584   2.597  19.992  0.00  0.00    +0.000 A 
ATOM     23  C   UNL     1       1.023   3.589  20.873  0.00  0.00    +0.000 A 
ATOM     24  C   UNL     1       2.293   4.158  20.718  0.00  0.00    +0.000 A 
ENDBRANCH  18  19
ENDBRANCH   5  18
TORSDOF 6
ENDMDL
MODEL 7
REMARK VINA RESULT:      -7.7      1.221      1.610
REMARK  Name = 
REMARK  6 active torsions:
REMARK  status: ('A' for Active; 'I' for Inactive)
REMARK    1  A    between atoms: N_1  and  C_2
REMARK    2  A    between atoms: C_2  and  C_3
REMARK    3  A    between atoms: C_5  and  O_6
REMARK    4  A    between atoms: O_6  and  C_7
REMARK    5  A    between atoms: C_11  and  O_12
REMARK    6  A    between atoms: O_12  and  C_13
REMARK                            x       y       z     vdW  Elec       q    Type
REMARK                         _______ _______ _______ _____ _____    ______ ____
ROOT
ATOM      1  C   UNL     1       6.004   5.599  16.538  0.00  0.00    +0.000 A 
ATOM      2  C   UNL     1       7.058   6.341  17.083  0.00  0.00    +0.000 A 
ATOM      3  C   UNL     1       7.428   6.163  18.420  0.00  0.00    +0.000 A 
ATOM      4  C   UNL     1       6.739   5.250  19.227  0.00  0.00    +0.000 A 
ATOM      5  C   UNL     1       5.685   4.496  18.698  0.00  0.00    +0.000 A 
ATOM      6  C   UNL     1       5.320   4.680  17.354  0.00  0.00    +0.000 A 
ENDROOT
BRANCH   1   7
ATOM      7  O   UNL     1       5.637   5.803  15.247  0.00  0.00    +0.000 OA
BRANCH   7  10
ATOM      8  C   UNL     1       6.057   3.486  12.460  0.00  0.00    +0.000 A 
ATOM      9  C   UNL     1       5.472   4.131  13.556  0.00  0.00    +0.000 A 
ATOM     10  C   UNL     1       6.177   5.161  14.180  0.00  0.00    +0.000 A 
ATOM     11  N   UNL     1       7.402   5.521  13.705  0.00  0.00    +0.000 NA
ATOM     12  C   UNL     1       7.949   4.896  12.631  0.00  0.00    +0.000 A 
ATOM     13  N   UNL     1       7.280   3.887  12.019  0.00  0.00    +0.000 NA
BRANCH   8  14
ATOM     14  C   UNL     1       5.359   2.352  11.768  0.00  0.00    +0.000 C 
BRANCH  14  15
ATOM     15  N   UNL     1       6.324   1.352  11.324  0.00  0.00    +0.000 NA
ATOM     16  H   UNL     1       6.930   1.784  10.589  0.00  0.00    +0.000 HD
ATOM     17  H   UNL     1       5.814   0.548  10.890  0.00  0.00    +0.000 HD
ENDBRANCH  14  15
ENDBRANCH   8  14
ENDBRANCH   7  10
ENDBRANCH   1   7
BRANCH   5  18
ATOM     18  O   UNL     1       5.017   3.626  19.501  0.00  0.00    +0.000 OA
BRANCH  18  19
ATOM     19  C   UNL     1       3.681   3.642  19.756  0.00  0.00    +0.000 A 
ATOM     20  C   UNL     1       2.898   2.472  19.674  0.00  0.00    +0.000 A 
ATOM     21  C   UNL     1       1.532   2.514  19.956  0.00  0.00    +0.000 A 
ATOM     22  C   UNL     1       0.930   3.720  20.321  0.00  0.00    +0.000 A 
ATOM     23  C   UNL     1       1.698   4.885  20.410  0.00  0.00    +0.000 A 
ATOM     24  C   UNL     1       3.070   4.846  20.134  0.00  0.00    +0.000 A 
ENDBRANCH  18  19
ENDBRANCH   5  18
TORSDOF 6
ENDMDL
MODEL 8
REMARK VINA RESULT:      -7.7      1.196      1.502
REMARK  Name = 
REMARK  6 active torsions:
REMARK  status: ('A' for Active; 'I' for Inactive)
REMARK    1  A    between atoms: N_1  and  C_2
REMARK    2  A    between atoms: C_2  and  C_3
REMARK    3  A    between atoms: C_5  and  O_6
REMARK    4  A    between atoms: O_6  and  C_7
REMARK    5  A    between atoms: C_11  and  O_12
REMARK    6  A    between atoms: O_12  and  C_13
REMARK                            x       y       z     vdW  Elec       q    Type
REMARK                         _______ _______ _______ _____ _____    ______ ____
ROOT
ATOM      1  C   UNL     1       6.100   5.647  16.616  0.00  0.00    +0.000 A 
ATOM      2  C   UNL     1       7.148   6.383  17.181  0.00  0.00    +0.000 A 
ATOM      3  C   UNL     1       7.503   6.189  18.521  0.00  0.00    +0.000 A 
ATOM      4  C   UNL     1       6.805   5.266  19.308  0.00  0.00    +0.000 A 
ATOM      5  C   UNL     1       5.759   4.517  18.759  0.00  0.00    +0.000 A 
ATOM      6  C   UNL     1       5.408   4.717  17.412  0.00  0.00    +0.000 A 
ENDROOT
BRANCH   1   7
ATOM      7  O   UNL     1       5.748   5.866  15.323  0.00  0.00    +0.000 OA
BRANCH   7  10
ATOM      8  C   UNL     1       6.085   3.554  12.521  0.00  0.00    +0.000 A 
ATOM      9  C   UNL     1       5.519   4.220  13.615  0.00  0.00    +0.000 A 
ATOM     10  C   UNL     1       6.268   5.206  14.258  0.00  0.00    +0.000 A 
ATOM     11  N   UNL     1       7.517   5.506  13.803  0.00  0.00    +0.000 NA
ATOM     12  C   UNL     1       8.046   4.862  12.731  0.00  0.00    +0.000 A 
ATOM     13  N   UNL     1       7.334   3.894  12.101  0.00  0.00    +0.000 NA
BRANCH   8  14
ATOM     14  C   UNL     1       5.339   2.463  11.810  0.00  0.00    +0.000 C 
BRANCH  14  15
ATOM     15  N   UNL     1       6.258   1.423  11.360  0.00  0.00    +0.000 NA
ATOM     16  H   UNL     1       6.751   1.036  12.198  0.00  0.00    +0.000 HD
ATOM     17  H   UNL     1       6.977   1.846  10.729  0.00  0.00    +0.000 HD
ENDBRANCH  14  15
ENDBRANCH   8  14
ENDBRANCH   7  10
ENDBRANCH   1   7
BRANCH   5  18
ATOM     18  O   UNL     1       5.083   3.636  19.543  0.00  0.00    +0.000 OA
BRANCH  18  19
ATOM     19  C   UNL     1       3.739   3.622  19.750  0.00  0.00    +0.000 A 
ATOM     20  C   UNL     1       3.052   4.756  20.231  0.00  0.00    +0.000 A 
ATOM     21  C   UNL     1       1.670   4.717  20.420  0.00  0.00    +0.000 A 
ATOM     22  C   UNL     1       0.957   3.551  20.135  0.00  0.00    +0.000 A 
ATOM     23  C   UNL     1       1.628   2.423  19.654  0.00  0.00    +0.000 A 
ATOM     24  C   UNL     1       3.014   2.459  19.457  0.00  0.00    +0.000 A 
ENDBRANCH  18  19
ENDBRANCH   5  18
TORSDOF 6
ENDMDL
MODEL 9
REMARK VINA RESULT:      -7.6      3.463      7.169
REMARK  Name = 
REMARK  6 active torsions:
REMARK  status: ('A' for Active; 'I' for Inactive)
REMARK    1  A    between atoms: N_1  and  C_2
REMARK    2  A    between atoms: C_2  and  C_3
REMARK    3  A    between atoms: C_5  and  O_6
REMARK    4  A    between atoms: O_6  and  C_7
REMARK    5  A    between atoms: C_11  and  O_12
REMARK    6  A    between atoms: O_12  and  C_13
REMARK                            x       y       z     vdW  Elec       q    Type
REMARK                         _______ _______ _______ _____ _____    ______ ____
ROOT
ATOM      1  C   UNL     1       4.881   6.022  17.838  0.00  0.00    +0.000 A 
ATOM      2  C   UNL     1       5.595   5.666  18.988  0.00  0.00    +0.000 A 
ATOM      3  C   UNL     1       6.949   5.325  18.899  0.00  0.00    +0.000 A 
ATOM      4  C   UNL     1       7.597   5.326  17.658  0.00  0.00    +0.000 A 
ATOM      5  C   UNL     1       6.900   5.685  16.499  0.00  0.00    +0.000 A 
ATOM      6  C   UNL     1       5.540   6.027  16.595  0.00  0.00    +0.000 A 
ENDROOT
BRANCH   1   7
ATOM      7  O   UNL     1       3.560   6.323  17.935  0.00  0.00    +0.000 OA
BRANCH   7  10
ATOM      8  C   UNL     1       1.265   3.818  19.265  0.00  0.00    +0.000 A 
ATOM      9  C   UNL     1       2.171   4.443  18.399  0.00  0.00    +0.000 A 
ATOM     10  C   UNL     1       2.683   5.691  18.755  0.00  0.00    +0.000 A 
ATOM     11  N   UNL     1       2.304   6.263  19.931  0.00  0.00    +0.000 NA
ATOM     12  C   UNL     1       1.436   5.638  20.768  0.00  0.00    +0.000 A 
ATOM     13  N   UNL     1       0.923   4.428  20.432  0.00  0.00    +0.000 NA
BRANCH   8  14
ATOM     14  C   UNL     1       0.658   2.490  18.921  0.00  0.00    +0.000 C 
BRANCH  14  15
ATOM     15  N   UNL     1       1.680   1.570  18.436  0.00  0.00    +0.000 NA
ATOM     16  H   UNL     1       2.484   2.134  18.074  0.00  0.00    +0.000 HD
ATOM     17  H   UNL     1       1.294   1.011  17.640  0.00  0.00    +0.000 HD
ENDBRANCH  14  15
ENDBRANCH   8  14
ENDBRANCH   7  10
ENDBRANCH   1   7
BRANCH   5  18
ATOM     18  O   UNL     1       7.542   5.665  15.300  0.00  0.00    +0.000 OA
BRANCH  18  19
ATOM     19  C   UNL     1       7.148   4.975  14.196  0.00  0.00    +0.000 A 
ATOM     20  C   UNL     1       7.729   5.207  12.932  0.00  0.00    +0.000 A 
ATOM     21  C   UNL     1       7.316   4.474  11.819  0.00  0.00    +0.000 A 
ATOM     22  C   UNL     1       6.320   3.504  11.950  0.00  0.00    +0.000 A 
ATOM     23  C   UNL     1       5.740   3.264  13.199  0.00  0.00    +0.000 A 
ATOM     24  C   UNL     1       6.156   3.992  14.320  0.00  0.00    +0.000 A 
ENDBRANCH  18  19
ENDBRANCH   5  18
TORSDOF 6
ENDMDL
