MODEL 1
REMARK VINA RESULT:      -8.9      0.000      0.000
REMARK  Name = 
REMARK  1 active torsions:
REMARK  status: ('A' for Active; 'I' for Inactive)
REMARK    1  A    between atoms: C_5  and  C_6
REMARK                            x       y       z     vdW  Elec       q    Type
REMARK                         _______ _______ _______ _____ _____    ______ ____
ROOT
ATOM      1  C   UNL     1       2.337   6.613  19.098  0.00  0.00    +0.000 A 
ATOM      2  N   UNL     1       3.374   6.706  18.246  0.00  0.00    +0.000 NA
ATOM      3  C   UNL     1       3.889   5.564  17.740  0.00  0.00    +0.000 A 
ATOM      4  N   UNL     1       4.937   5.688  16.850  0.00  0.00    +0.000 N 
ATOM      5  C   UNL     1       5.858   6.821  16.933  0.00  0.00    +0.000 C 
ATOM      6  C   UNL     1       7.299   6.251  16.878  0.00  0.00    +0.000 C 
ATOM      7  N   UNL     1       7.570   5.415  15.683  0.00  0.00    +0.000 NA
ATOM      8  C   UNL     1       6.530   4.374  15.537  0.00  0.00    +0.000 C 
ATOM      9  C   UNL     1       5.081   4.928  15.605  0.00  0.00    +0.000 C 
ATOM     10  C   UNL     1       3.398   4.301  18.156  0.00  0.00    +0.000 A 
ATOM     11  C   UNL     1       3.939   3.026  17.819  0.00  0.00    +0.000 A 
ATOM     12  C   UNL     1       3.356   1.837  18.237  0.00  0.00    +0.000 A 
ATOM     13  C   UNL     1       2.247   1.889  19.056  0.00  0.00    +0.000 A 
ATOM     14  C   UNL     1       1.745   3.130  19.454  0.00  0.00    +0.000 A 
ATOM     15  C   UNL     1       2.305   4.328  19.024  0.00  0.00    +0.000 A 
ATOM     16  N   UNL     1       1.775   5.459  19.485  0.00  0.00    +0.000 NA
ATOM     17  H   UNL     1       8.474   4.958  15.805  0.00  0.00    +0.000 HD
ENDROOT
BRANCH   1  22
ATOM     18 BR   UNL     1      -0.098  11.770  21.548  0.00  0.00    +0.000 Br
ATOM     19  C   UNL     1       0.651  10.202  20.798  0.00  0.00    +0.000 A 
ATOM     20  C   UNL     1       0.997  10.175  19.453  0.00  0.00    +0.000 A 
ATOM     21  C   UNL     1       1.546   9.011  18.892  0.00  0.00    +0.000 A 
ATOM     22  C   UNL     1       1.760   7.854  19.670  0.00  0.00    +0.000 A 
ATOM     23  C   UNL     1       1.398   7.926  21.034  0.00  0.00    +0.000 A 
ATOM     24  C   UNL     1       0.848   9.084  21.597  0.00  0.00    +0.000 A 
ENDBRANCH   1  22
TORSDOF 1
ENDMDL
MODEL 2
REMARK VINA RESULT:      -8.9      0.041      1.005
REMARK  Name = 
REMARK  1 active torsions:
REMARK  status: ('A' for Active; 'I' for Inactive)
REMARK    1  A    between atoms: C_5  and  C_6
REMARK                            x       y       z     vdW  Elec       q    Type
REMARK                         _______ _______ _______ _____ _____    ______ ____
ROOT
ATOM      1  C   UNL     1       2.335   6.621  19.132  0.00  0.00    +0.000 A 
ATOM      2  N   UNL     1       3.372   6.719  18.279  0.00  0.00    +0.000 NA
ATOM      3  C   UNL     1       3.888   5.579  17.771  0.00  0.00    +0.000 A 
ATOM      4  N   UNL     1       4.936   5.707  16.881  0.00  0.00    +0.000 N 
ATOM      5  C   UNL     1       5.855   6.841  16.966  0.00  0.00    +0.000 C 
ATOM      6  C   UNL     1       7.296   6.274  16.909  0.00  0.00    +0.000 C 
ATOM      7  N   UNL     1       7.569   5.442  15.712  0.00  0.00    +0.000 NA
ATOM      8  C   UNL     1       6.531   4.399  15.564  0.00  0.00    +0.000 C 
ATOM      9  C   UNL     1       5.081   4.950  15.634  0.00  0.00    +0.000 C 
ATOM     10  C   UNL     1       3.400   4.314  18.184  0.00  0.00    +0.000 A 
ATOM     11  C   UNL     1       3.943   3.041  17.844  0.00  0.00    +0.000 A 
ATOM     12  C   UNL     1       3.363   1.849  18.260  0.00  0.00    +0.000 A 
ATOM     13  C   UNL     1       2.254   1.898  19.079  0.00  0.00    +0.000 A 
ATOM     14  C   UNL     1       1.750   3.137  19.480  0.00  0.00    +0.000 A 
ATOM     15  C   UNL     1       2.307   4.337  19.053  0.00  0.00    +0.000 A 
ATOM     16  N   UNL     1       1.775   5.466  19.516  0.00  0.00    +0.000 NA
ATOM     17  H   UNL     1       8.474   4.987  15.833  0.00  0.00    +0.000 HD
ENDROOT
BRANCH   1  22
ATOM     18 BR   UNL     1      -0.070  11.840  21.481  0.00  0.00    +0.000 Br
ATOM     19  C   UNL     1       0.657  10.244  20.768  0.00  0.00    +0.000 A 
ATOM     20  C   UNL     1       0.841   9.139  21.589  0.00  0.00    +0.000 A 
ATOM     21  C   UNL     1       1.386   7.957  21.065  0.00  0.00    +0.000 A 
ATOM     22  C   UNL     1       1.756   7.860  19.707  0.00  0.00    +0.000 A 
ATOM     23  C   UNL     1       1.548   9.005  18.906  0.00  0.00    +0.000 A 
ATOM     24  C   UNL     1       1.006  10.188  19.425  0.00  0.00    +0.000 A 
ENDBRANCH   1  22
TORSDOF 1
ENDMDL
MODEL 3
REMARK VINA RESULT:      -8.7      1.104      1.112
REMARK  Name = 
REMARK  1 active torsions:
REMARK  status: ('A' for Active; 'I' for Inactive)
REMARK    1  A    between atoms: C_5  and  C_6
REMARK                            x       y       z     vdW  Elec       q    Type
REMARK                         _______ _______ _______ _____ _____    ______ ____
ROOT
ATOM      1  C   UNL     1       2.270   6.954  19.752  0.00  0.00    +0.000 A 
ATOM      2  N   UNL     1       3.194   6.938  18.775  0.00  0.00    +0.000 NA
ATOM      3  C   UNL     1       3.859   5.784  18.546  0.00  0.00    +0.000 A 
ATOM      4  N   UNL     1       4.786   5.786  17.523  0.00  0.00    +0.000 N 
ATOM      5  C   UNL     1       5.493   7.013  17.157  0.00  0.00    +0.000 C 
ATOM      6  C   UNL     1       7.002   6.668  17.069  0.00  0.00    +0.000 C 
ATOM      7  N   UNL     1       7.313   5.561  16.132  0.00  0.00    +0.000 NA
ATOM      8  C   UNL     1       6.467   4.385  16.428  0.00  0.00    +0.000 C 
ATOM      9  C   UNL     1       4.954   4.716  16.535  0.00  0.00    +0.000 C 
ATOM     10  C   UNL     1       3.641   4.646  19.364  0.00  0.00    +0.000 A 
ATOM     11  C   UNL     1       4.369   3.422  19.329  0.00  0.00    +0.000 A 
ATOM     12  C   UNL     1       4.048   2.342  20.140  0.00  0.00    +0.000 A 
ATOM     13  C   UNL     1       3.024   2.476  21.055  0.00  0.00    +0.000 A 
ATOM     14  C   UNL     1       2.345   3.693  21.152  0.00  0.00    +0.000 A 
ATOM     15  C   UNL     1       2.641   4.774  20.330  0.00  0.00    +0.000 A 
ATOM     16  N   UNL     1       1.959   5.901  20.521  0.00  0.00    +0.000 NA
ATOM     17  H   UNL     1       8.291   5.299  16.253  0.00  0.00    +0.000 HD
ENDROOT
BRANCH   1  22
ATOM     18 BR   UNL     1      -0.843  12.189  20.952  0.00  0.00    +0.000 Br
ATOM     19  C   UNL     1       0.112  10.597  20.583  0.00  0.00    +0.000 A 
ATOM     20  C   UNL     1       0.641  10.385  19.316  0.00  0.00    +0.000 A 
ATOM     21  C   UNL     1       1.344   9.202  19.037  0.00  0.00    +0.000 A 
ATOM     22  C   UNL     1       1.532   8.212  20.025  0.00  0.00    +0.000 A 
ATOM     23  C   UNL     1       0.982   8.470  21.300  0.00  0.00    +0.000 A 
ATOM     24  C   UNL     1       0.278   9.648  21.582  0.00  0.00    +0.000 A 
ENDBRANCH   1  22
TORSDOF 1
ENDMDL
MODEL 4
REMARK VINA RESULT:      -8.7      1.118      1.506
REMARK  Name = 
REMARK  1 active torsions:
REMARK  status: ('A' for Active; 'I' for Inactive)
REMARK    1  A    between atoms: C_5  and  C_6
REMARK                            x       y       z     vdW  Elec       q    Type
REMARK                         _______ _______ _______ _____ _____    ______ ____
ROOT
ATOM      1  C   UNL     1       2.246   7.000  19.692  0.00  0.00    +0.000 A 
ATOM      2  N   UNL     1       3.183   6.972  18.727  0.00  0.00    +0.000 NA
ATOM      3  C   UNL     1       3.851   5.815  18.521  0.00  0.00    +0.000 A 
ATOM      4  N   UNL     1       4.791   5.805  17.510  0.00  0.00    +0.000 N 
ATOM      5  C   UNL     1       5.502   7.027  17.138  0.00  0.00    +0.000 C 
ATOM      6  C   UNL     1       7.012   6.682  17.073  0.00  0.00    +0.000 C 
ATOM      7  N   UNL     1       7.335   5.563  16.154  0.00  0.00    +0.000 NA
ATOM      8  C   UNL     1       6.486   4.391  16.454  0.00  0.00    +0.000 C 
ATOM      9  C   UNL     1       4.971   4.723  16.538  0.00  0.00    +0.000 C 
ATOM     10  C   UNL     1       3.622   4.688  19.350  0.00  0.00    +0.000 A 
ATOM     11  C   UNL     1       4.351   3.464  19.339  0.00  0.00    +0.000 A 
ATOM     12  C   UNL     1       4.020   2.394  20.161  0.00  0.00    +0.000 A 
ATOM     13  C   UNL     1       2.984   2.539  21.060  0.00  0.00    +0.000 A 
ATOM     14  C   UNL     1       2.303   3.756  21.133  0.00  0.00    +0.000 A 
ATOM     15  C   UNL     1       2.610   4.827  20.302  0.00  0.00    +0.000 A 
ATOM     16  N   UNL     1       1.926   5.957  20.470  0.00  0.00    +0.000 NA
ATOM     17  H   UNL     1       8.311   5.303  16.290  0.00  0.00    +0.000 HD
ENDROOT
BRANCH   1  22
ATOM     18 BR   UNL     1      -0.828  12.304  20.670  0.00  0.00    +0.000 Br
ATOM     19  C   UNL     1       0.103  10.682  20.375  0.00  0.00    +0.000 A 
ATOM     20  C   UNL     1       0.187   9.737  21.389  0.00  0.00    +0.000 A 
ATOM     21  C   UNL     1       0.883   8.537  21.175  0.00  0.00    +0.000 A 
ATOM     22  C   UNL     1       1.505   8.261  19.939  0.00  0.00    +0.000 A 
ATOM     23  C   UNL     1       1.391   9.247  18.934  0.00  0.00    +0.000 A 
ATOM     24  C   UNL     1       0.699  10.447  19.143  0.00  0.00    +0.000 A 
ENDBRANCH   1  22
TORSDOF 1
ENDMDL
MODEL 5
REMARK VINA RESULT:      -8.5      1.558      3.997
REMARK  Name = 
REMARK  1 active torsions:
REMARK  status: ('A' for Active; 'I' for Inactive)
REMARK    1  A    between atoms: C_5  and  C_6
REMARK                            x       y       z     vdW  Elec       q    Type
REMARK                         _______ _______ _______ _____ _____    ______ ____
ROOT
ATOM      1  C   UNL     1       2.638   7.458  18.399  0.00  0.00    +0.000 A 
ATOM      2  N   UNL     1       2.308   6.251  18.894  0.00  0.00    +0.000 NA
ATOM      3  C   UNL     1       2.969   5.168  18.428  0.00  0.00    +0.000 A 
ATOM      4  N   UNL     1       2.628   3.944  18.968  0.00  0.00    +0.000 N 
ATOM      5  C   UNL     1       1.277   3.699  19.471  0.00  0.00    +0.000 C 
ATOM      6  C   UNL     1       0.798   2.352  18.872  0.00  0.00    +0.000 C 
ATOM      7  N   UNL     1       1.701   1.211  19.158  0.00  0.00    +0.000 NA
ATOM      8  C   UNL     1       3.091   1.549  18.785  0.00  0.00    +0.000 C 
ATOM      9  C   UNL     1       3.580   2.903  19.365  0.00  0.00    +0.000 C 
ATOM     10  C   UNL     1       3.929   5.295  17.393  0.00  0.00    +0.000 A 
ATOM     11  C   UNL     1       4.590   4.232  16.712  0.00  0.00    +0.000 A 
ATOM     12  C   UNL     1       5.556   4.457  15.740  0.00  0.00    +0.000 A 
ATOM     13  C   UNL     1       5.848   5.756  15.378  0.00  0.00    +0.000 A 
ATOM     14  C   UNL     1       5.159   6.809  15.985  0.00  0.00    +0.000 A 
ATOM     15  C   UNL     1       4.207   6.598  16.975  0.00  0.00    +0.000 A 
ATOM     16  N   UNL     1       3.582   7.664  17.470  0.00  0.00    +0.000 NA
ATOM     17  H   UNL     1       1.399   0.410  18.603  0.00  0.00    +0.000 HD
ENDROOT
BRANCH   1  22
ATOM     18 BR   UNL     1      -0.388  12.448  20.514  0.00  0.00    +0.000 Br
ATOM     19  C   UNL     1       0.541  10.931  19.867  0.00  0.00    +0.000 A 
ATOM     20  C   UNL     1       1.096  10.950  18.593  0.00  0.00    +0.000 A 
ATOM     21  C   UNL     1       1.780   9.824  18.109  0.00  0.00    +0.000 A 
ATOM     22  C   UNL     1       1.921   8.659  18.892  0.00  0.00    +0.000 A 
ATOM     23  C   UNL     1       1.345   8.684  20.182  0.00  0.00    +0.000 A 
ATOM     24  C   UNL     1       0.661   9.805  20.669  0.00  0.00    +0.000 A 
ENDBRANCH   1  22
TORSDOF 1
ENDMDL
MODEL 6
REMARK VINA RESULT:      -8.5      1.571      4.120
REMARK  Name = 
REMARK  1 active torsions:
REMARK  status: ('A' for Active; 'I' for Inactive)
REMARK    1  A    between atoms: C_5  and  C_6
REMARK                            x       y       z     vdW  Elec       q    Type
REMARK                         _______ _______ _______ _____ _____    ______ ____
ROOT
ATOM      1  C   UNL     1       2.597   7.472  18.449  0.00  0.00    +0.000 A 
ATOM      2  N   UNL     1       2.277   6.258  18.934  0.00  0.00    +0.000 NA
ATOM      3  C   UNL     1       2.943   5.184  18.456  0.00  0.00    +0.000 A 
ATOM      4  N   UNL     1       2.612   3.953  18.987  0.00  0.00    +0.000 N 
ATOM      5  C   UNL     1       1.264   3.695  19.492  0.00  0.00    +0.000 C 
ATOM      6  C   UNL     1       0.791   2.350  18.883  0.00  0.00    +0.000 C 
ATOM      7  N   UNL     1       1.702   1.212  19.156  0.00  0.00    +0.000 NA
ATOM      8  C   UNL     1       3.089   1.563  18.780  0.00  0.00    +0.000 C 
ATOM      9  C   UNL     1       3.572   2.915  19.370  0.00  0.00    +0.000 C 
ATOM     10  C   UNL     1       3.898   5.326  17.418  0.00  0.00    +0.000 A 
ATOM     11  C   UNL     1       4.563   4.273  16.726  0.00  0.00    +0.000 A 
ATOM     12  C   UNL     1       5.524   4.514  15.752  0.00  0.00    +0.000 A 
ATOM     13  C   UNL     1       5.806   5.817  15.400  0.00  0.00    +0.000 A 
ATOM     14  C   UNL     1       5.113   6.861  16.019  0.00  0.00    +0.000 A 
ATOM     15  C   UNL     1       4.165   6.635  17.011  0.00  0.00    +0.000 A 
ATOM     16  N   UNL     1       3.535   7.693  17.518  0.00  0.00    +0.000 NA
ATOM     17  H   UNL     1       1.403   0.415  18.595  0.00  0.00    +0.000 HD
ENDROOT
BRANCH   1  22
ATOM     18 BR   UNL     1      -0.401  12.500  20.514  0.00  0.00    +0.000 Br
ATOM     19  C   UNL     1       0.507  10.962  19.886  0.00  0.00    +0.000 A 
ATOM     20  C   UNL     1       0.637   9.850  20.709  0.00  0.00    +0.000 A 
ATOM     21  C   UNL     1       1.315   8.711  20.249  0.00  0.00    +0.000 A 
ATOM     22  C   UNL     1       1.874   8.664  18.955  0.00  0.00    +0.000 A 
ATOM     23  C   UNL     1       1.716   9.814  18.150  0.00  0.00    +0.000 A 
ATOM     24  C   UNL     1       1.041  10.954  18.605  0.00  0.00    +0.000 A 
ENDBRANCH   1  22
TORSDOF 1
ENDMDL
MODEL 7
REMARK VINA RESULT:      -7.5      3.729      7.727
REMARK  Name = 
REMARK  1 active torsions:
REMARK  status: ('A' for Active; 'I' for Inactive)
REMARK    1  A    between atoms: C_5  and  C_6
REMARK                            x       y       z     vdW  Elec       q    Type
REMARK                         _______ _______ _______ _____ _____    ______ ____
ROOT
ATOM      1  C   UNL     1       1.695   8.164  19.212  0.00  0.00    +0.000 A 
ATOM      2  N   UNL     1       0.849   8.952  18.524  0.00  0.00    +0.000 NA
ATOM      3  C   UNL     1       0.042   9.783  19.220  0.00  0.00    +0.000 A 
ATOM      4  N   UNL     1      -0.799  10.598  18.490  0.00  0.00    +0.000 N 
ATOM      5  C   UNL     1      -1.293  10.179  17.179  0.00  0.00    +0.000 C 
ATOM      6  C   UNL     1      -2.826  10.411  17.166  0.00  0.00    +0.000 C 
ATOM      7  N   UNL     1      -3.227  11.804  17.480  0.00  0.00    +0.000 NA
ATOM      8  C   UNL     1      -2.583  12.255  18.732  0.00  0.00    +0.000 C 
ATOM      9  C   UNL     1      -1.050  12.015  18.766  0.00  0.00    +0.000 C 
ATOM     10  C   UNL     1       0.035   9.768  20.638  0.00  0.00    +0.000 A 
ATOM     11  C   UNL     1      -0.858  10.478  21.490  0.00  0.00    +0.000 A 
ATOM     12  C   UNL     1      -0.756  10.437  22.875  0.00  0.00    +0.000 A 
ATOM     13  C   UNL     1       0.210   9.636  23.449  0.00  0.00    +0.000 A 
ATOM     14  C   UNL     1       1.049   8.878  22.630  0.00  0.00    +0.000 A 
ATOM     15  C   UNL     1       0.972   8.927  21.243  0.00  0.00    +0.000 A 
ATOM     16  N   UNL     1       1.794   8.143  20.549  0.00  0.00    +0.000 NA
ATOM     17  H   UNL     1      -4.238  11.831  17.604  0.00  0.00    +0.000 HD
ENDROOT
BRANCH   1  22
ATOM     18 BR   UNL     1       5.403   4.244  16.143  0.00  0.00    +0.000 Br
ATOM     19  C   UNL     1       4.270   5.444  17.072  0.00  0.00    +0.000 A 
ATOM     20  C   UNL     1       4.420   6.814  16.898  0.00  0.00    +0.000 A 
ATOM     21  C   UNL     1       3.586   7.705  17.590  0.00  0.00    +0.000 A 
ATOM     22  C   UNL     1       2.586   7.240  18.469  0.00  0.00    +0.000 A 
ATOM     23  C   UNL     1       2.464   5.840  18.614  0.00  0.00    +0.000 A 
ATOM     24  C   UNL     1       3.295   4.946  17.926  0.00  0.00    +0.000 A 
ENDBRANCH   1  22
TORSDOF 1
ENDMDL
MODEL 8
REMARK VINA RESULT:      -7.4      3.725      7.771
REMARK  Name = 
REMARK  1 active torsions:
REMARK  status: ('A' for Active; 'I' for Inactive)
REMARK    1  A    between atoms: C_5  and  C_6
REMARK                            x       y       z     vdW  Elec       q    Type
REMARK                         _______ _______ _______ _____ _____    ______ ____
ROOT
ATOM      1  C   UNL     1       1.694   8.147  19.210  0.00  0.00    +0.000 A 
ATOM      2  N   UNL     1       0.850   8.936  18.520  0.00  0.00    +0.000 NA
ATOM      3  C   UNL     1       0.047   9.773  19.214  0.00  0.00    +0.000 A 
ATOM      4  N   UNL     1      -0.793  10.587  18.482  0.00  0.00    +0.000 N 
ATOM      5  C   UNL     1      -1.292  10.164  17.174  0.00  0.00    +0.000 C 
ATOM      6  C   UNL     1      -2.824  10.402  17.164  0.00  0.00    +0.000 C 
ATOM      7  N   UNL     1      -3.218  11.798  17.471  0.00  0.00    +0.000 NA
ATOM      8  C   UNL     1      -2.570  12.252  18.720  0.00  0.00    +0.000 C 
ATOM      9  C   UNL     1      -1.037  12.007  18.752  0.00  0.00    +0.000 C 
ATOM     10  C   UNL     1       0.043   9.764  20.631  0.00  0.00    +0.000 A 
ATOM     11  C   UNL     1      -0.845  10.482  21.483  0.00  0.00    +0.000 A 
ATOM     12  C   UNL     1      -0.739  10.448  22.867  0.00  0.00    +0.000 A 
ATOM     13  C   UNL     1       0.224   9.646  23.443  0.00  0.00    +0.000 A 
ATOM     14  C   UNL     1       1.059   8.881  22.625  0.00  0.00    +0.000 A 
ATOM     15  C   UNL     1       0.979   8.923  21.238  0.00  0.00    +0.000 A 
ATOM     16  N   UNL     1       1.796   8.132  20.547  0.00  0.00    +0.000 NA
ATOM     17  H   UNL     1      -4.230  11.829  17.598  0.00  0.00    +0.000 HD
ENDROOT
BRANCH   1  22
ATOM     18 BR   UNL     1       5.424   4.305  16.071  0.00  0.00    +0.000 Br
ATOM     19  C   UNL     1       4.287   5.472  17.035  0.00  0.00    +0.000 A 
ATOM     20  C   UNL     1       3.268   4.953  17.823  0.00  0.00    +0.000 A 
ATOM     21  C   UNL     1       2.420   5.816  18.533  0.00  0.00    +0.000 A 
ATOM     22  C   UNL     1       2.579   7.216  18.469  0.00  0.00    +0.000 A 
ATOM     23  C   UNL     1       3.631   7.702  17.660  0.00  0.00    +0.000 A 
ATOM     24  C   UNL     1       4.478   6.844  16.948  0.00  0.00    +0.000 A 
ENDBRANCH   1  22
TORSDOF 1
ENDMDL
MODEL 9
REMARK VINA RESULT:      -7.1      3.251      6.477
REMARK  Name = 
REMARK  1 active torsions:
REMARK  status: ('A' for Active; 'I' for Inactive)
REMARK    1  A    between atoms: C_5  and  C_6
REMARK                            x       y       z     vdW  Elec       q    Type
REMARK                         _______ _______ _______ _____ _____    ______ ____
ROOT
ATOM      1  C   UNL     1       4.112   5.030  17.516  0.00  0.00    +0.000 A 
ATOM      2  N   UNL     1       3.611   6.203  17.945  0.00  0.00    +0.000 NA
ATOM      3  C   UNL     1       2.730   6.183  18.970  0.00  0.00    +0.000 A 
ATOM      4  N   UNL     1       2.249   7.401  19.406  0.00  0.00    +0.000 N 
ATOM      5  C   UNL     1       2.132   8.532  18.487  0.00  0.00    +0.000 C 
ATOM      6  C   UNL     1       0.712   9.128  18.666  0.00  0.00    +0.000 C 
ATOM      7  N   UNL     1       0.396   9.525  20.059  0.00  0.00    +0.000 NA
ATOM      8  C   UNL     1       0.675   8.407  20.987  0.00  0.00    +0.000 C 
ATOM      9  C   UNL     1       2.088   7.790  20.811  0.00  0.00    +0.000 C 
ATOM     10  C   UNL     1       2.291   4.955  19.525  0.00  0.00    +0.000 A 
ATOM     11  C   UNL     1       1.268   4.781  20.500  0.00  0.00    +0.000 A 
ATOM     12  C   UNL     1       0.940   3.536  21.021  0.00  0.00    +0.000 A 
ATOM     13  C   UNL     1       1.588   2.418  20.537  0.00  0.00    +0.000 A 
ATOM     14  C   UNL     1       2.545   2.562  19.529  0.00  0.00    +0.000 A 
ATOM     15  C   UNL     1       2.899   3.804  19.016  0.00  0.00    +0.000 A 
ATOM     16  N   UNL     1       3.798   3.835  18.035  0.00  0.00    +0.000 NA
ATOM     17  H   UNL     1      -0.596   9.755  20.114  0.00  0.00    +0.000 HD
ENDROOT
BRANCH   1  22
ATOM     18 BR   UNL     1       8.175   5.078  12.823  0.00  0.00    +0.000 Br
ATOM     19  C   UNL     1       6.936   5.055  14.254  0.00  0.00    +0.000 A 
ATOM     20  C   UNL     1       5.805   4.252  14.178  0.00  0.00    +0.000 A 
ATOM     21  C   UNL     1       4.882   4.238  15.235  0.00  0.00    +0.000 A 
ATOM     22  C   UNL     1       5.076   5.028  16.388  0.00  0.00    +0.000 A 
ATOM     23  C   UNL     1       6.241   5.827  16.426  0.00  0.00    +0.000 A 
ATOM     24  C   UNL     1       7.165   5.845  15.373  0.00  0.00    +0.000 A 
ENDBRANCH   1  22
TORSDOF 1
ENDMDL
