MODEL 1
REMARK VINA RESULT:      -8.0      0.000      0.000
REMARK  Name = 
REMARK  13 active torsions:
REMARK  status: ('A' for Active; 'I' for Inactive)
REMARK    1  A    between atoms: C_1  and  C_2
REMARK    2  A    between atoms: C_5  and  C_6
REMARK    3  A    between atoms: C_7  and  C_8
REMARK    4  A    between atoms: C_8  and  O_9
REMARK    5  A    between atoms: O_9  and  C_10
REMARK    6  A    between atoms: C_15  and  C_16
REMARK    7  A    between atoms: N_18  and  C_19
REMARK    8  A    between atoms: N_18  and  C_20
REMARK    9  A    between atoms: C_20  and  C_21
REMARK   10  A    between atoms: C_24  and  C_25
REMARK   11  A    between atoms: C_25  and  C_26
REMARK   12  A    between atoms: C_25  and  C_27
REMARK   13  A    between atoms: C_25  and  C_28
REMARK                            x       y       z     vdW  Elec       q    Type
REMARK                         _______ _______ _______ _____ _____    ______ ____
ROOT
ATOM      1  C   UNL     1       3.930   4.782  19.009  0.00  0.00    +0.000 A 
ATOM      2  C   UNL     1       3.987   3.374  18.932  0.00  0.00    +0.000 A 
ATOM      3  C   UNL     1       2.978   2.633  18.318  0.00  0.00    +0.000 A 
ATOM      4  C   UNL     1       1.874   3.286  17.797  0.00  0.00    +0.000 A 
ATOM      5  C   UNL     1       1.772   4.673  17.924  0.00  0.00    +0.000 A 
ATOM      6  C   UNL     1       2.777   5.449  18.542  0.00  0.00    +0.000 A 
ENDROOT
BRANCH   6   7
ATOM      7  C   UNL     1       2.543   6.934  18.452  0.00  0.00    +0.000 C 
ATOM      8  O   UNL     1       2.927   7.466  17.403  0.00  0.00    +0.000 OA
ATOM      9  N   UNL     1       1.888   7.696  19.433  0.00  0.00    +0.000 N 
ATOM     10  C   UNL     1       1.427   7.200  20.715  0.00  0.00    +0.000 C 
BRANCH   9  11
ATOM     11  C   UNL     1       1.894   9.155  19.276  0.00  0.00    +0.000 C 
BRANCH  11  12
ATOM     12  C   UNL     1       0.717   9.933  19.838  0.00  0.00    +0.000 A 
ATOM     13  C   UNL     1       0.796  10.603  21.064  0.00  0.00    +0.000 A 
ATOM     14  C   UNL     1      -0.189  11.530  21.451  0.00  0.00    +0.000 A 
ATOM     15  C   UNL     1      -1.284  11.842  20.629  0.00  0.00    +0.000 A 
ATOM     16  C   UNL     1      -1.416  11.072  19.456  0.00  0.00    +0.000 A 
ATOM     17  C   UNL     1      -0.436  10.141  19.070  0.00  0.00    +0.000 A 
BRANCH  15  18
ATOM     18  C   UNL     1      -2.289  12.965  20.979  0.00  0.00    +0.000 C 
ATOM     19  C   UNL     1      -2.634  13.008  22.491  0.00  0.00    +0.000 C 
ATOM     20  C   UNL     1      -1.739  14.377  20.640  0.00  0.00    +0.000 C 
ATOM     21  C   UNL     1      -3.599  12.762  20.195  0.00  0.00    +0.000 C 
ENDBRANCH  15  18
ENDBRANCH  11  12
ENDBRANCH   9  11
ENDBRANCH   6   7
BRANCH   1  22
ATOM     22  O   UNL     1       4.971   5.498  19.545  0.00  0.00    +0.000 OA
BRANCH  22  23
ATOM     23  C   UNL     1       6.304   5.093  19.183  0.00  0.00    +0.000 C 
BRANCH  23  30
ATOM     24  C   UNL     1       6.111   3.869  16.219  0.00  0.00    +0.000 C 
ATOM     25  C   UNL     1       6.706   5.166  16.617  0.00  0.00    +0.000 A 
ATOM     26  N   UNL     1       7.246   5.961  15.690  0.00  0.00    +0.000 NA
ATOM     27  O   UNL     1       7.812   7.007  16.382  0.00  0.00    +0.000 OA
ATOM     28  C   UNL     1       7.610   6.841  17.716  0.00  0.00    +0.000 A 
ATOM     29  C   UNL     1       8.283   7.842  18.566  0.00  0.00    +0.000 C 
ATOM     30  C   UNL     1       6.838   5.715  17.930  0.00  0.00    +0.000 A 
ENDBRANCH  23  30
ENDBRANCH  22  23
ENDBRANCH   1  22
TORSDOF 7
ENDMDL
MODEL 2
REMARK VINA RESULT:      -7.9      0.826      1.836
REMARK  Name = 
REMARK  13 active torsions:
REMARK  status: ('A' for Active; 'I' for Inactive)
REMARK    1  A    between atoms: C_1  and  C_2
REMARK    2  A    between atoms: C_5  and  C_6
REMARK    3  A    between atoms: C_7  and  C_8
REMARK    4  A    between atoms: C_8  and  O_9
REMARK    5  A    between atoms: O_9  and  C_10
REMARK    6  A    between atoms: C_15  and  C_16
REMARK    7  A    between atoms: N_18  and  C_19
REMARK    8  A    between atoms: N_18  and  C_20
REMARK    9  A    between atoms: C_20  and  C_21
REMARK   10  A    between atoms: C_24  and  C_25
REMARK   11  A    between atoms: C_25  and  C_26
REMARK   12  A    between atoms: C_25  and  C_27
REMARK   13  A    between atoms: C_25  and  C_28
REMARK                            x       y       z     vdW  Elec       q    Type
REMARK                         _______ _______ _______ _____ _____    ______ ____
ROOT
ATOM      1  C   UNL     1       3.800   4.847  19.378  0.00  0.00    +0.000 A 
ATOM      2  C   UNL     1       3.720   3.467  19.665  0.00  0.00    +0.000 A 
ATOM      3  C   UNL     1       2.647   2.691  19.231  0.00  0.00    +0.000 A 
ATOM      4  C   UNL     1       1.613   3.288  18.529  0.00  0.00    +0.000 A 
ATOM      5  C   UNL     1       1.646   4.665  18.294  0.00  0.00    +0.000 A 
ATOM      6  C   UNL     1       2.720   5.476  18.724  0.00  0.00    +0.000 A 
ENDROOT
BRANCH   6   7
ATOM      7  C   UNL     1       2.632   6.904  18.251  0.00  0.00    +0.000 C 
ATOM      8  O   UNL     1       3.051   7.106  17.104  0.00  0.00    +0.000 OA
ATOM      9  N   UNL     1       2.069   7.954  18.994  0.00  0.00    +0.000 N 
ATOM     10  C   UNL     1       1.579   7.853  20.355  0.00  0.00    +0.000 C 
BRANCH   9  11
ATOM     11  C   UNL     1       2.216   9.315  18.466  0.00  0.00    +0.000 C 
BRANCH  11  12
ATOM     12  C   UNL     1       1.129  10.324  18.795  0.00  0.00    +0.000 A 
ATOM     13  C   UNL     1      -0.197  10.134  18.392  0.00  0.00    +0.000 A 
ATOM     14  C   UNL     1      -1.237  10.921  18.919  0.00  0.00    +0.000 A 
ATOM     15  C   UNL     1      -1.005  11.919  19.879  0.00  0.00    +0.000 A 
ATOM     16  C   UNL     1       0.347  12.181  20.184  0.00  0.00    +0.000 A 
ATOM     17  C   UNL     1       1.387  11.400  19.654  0.00  0.00    +0.000 A 
BRANCH  15  18
ATOM     18  C   UNL     1      -2.156  12.687  20.572  0.00  0.00    +0.000 C 
ATOM     19  C   UNL     1      -2.338  12.274  22.056  0.00  0.00    +0.000 C 
ATOM     20  C   UNL     1      -1.915  14.220  20.594  0.00  0.00    +0.000 C 
ATOM     21  C   UNL     1      -3.483  12.422  19.836  0.00  0.00    +0.000 C 
ENDBRANCH  15  18
ENDBRANCH  11  12
ENDBRANCH   9  11
ENDBRANCH   6   7
BRANCH   1  22
ATOM     22  O   UNL     1       4.904   5.577  19.744  0.00  0.00    +0.000 OA
BRANCH  22  23
ATOM     23  C   UNL     1       6.186   5.100  19.297  0.00  0.00    +0.000 C 
BRANCH  23  30
ATOM     24  C   UNL     1       8.086   7.521  18.374  0.00  0.00    +0.000 C 
ATOM     25  C   UNL     1       7.419   6.523  17.506  0.00  0.00    +0.000 A 
ATOM     26  N   UNL     1       7.578   6.583  16.181  0.00  0.00    +0.000 NA
ATOM     27  O   UNL     1       6.747   5.617  15.663  0.00  0.00    +0.000 OA
ATOM     28  C   UNL     1       6.096   4.979  16.672  0.00  0.00    +0.000 A 
ATOM     29  C   UNL     1       5.083   4.003  16.226  0.00  0.00    +0.000 C 
ATOM     30  C   UNL     1       6.541   5.462  17.887  0.00  0.00    +0.000 A 
ENDBRANCH  23  30
ENDBRANCH  22  23
ENDBRANCH   1  22
TORSDOF 7
ENDMDL
MODEL 3
REMARK VINA RESULT:      -7.8      0.710      1.646
REMARK  Name = 
REMARK  13 active torsions:
REMARK  status: ('A' for Active; 'I' for Inactive)
REMARK    1  A    between atoms: C_1  and  C_2
REMARK    2  A    between atoms: C_5  and  C_6
REMARK    3  A    between atoms: C_7  and  C_8
REMARK    4  A    between atoms: C_8  and  O_9
REMARK    5  A    between atoms: O_9  and  C_10
REMARK    6  A    between atoms: C_15  and  C_16
REMARK    7  A    between atoms: N_18  and  C_19
REMARK    8  A    between atoms: N_18  and  C_20
REMARK    9  A    between atoms: C_20  and  C_21
REMARK   10  A    between atoms: C_24  and  C_25
REMARK   11  A    between atoms: C_25  and  C_26
REMARK   12  A    between atoms: C_25  and  C_27
REMARK   13  A    between atoms: C_25  and  C_28
REMARK                            x       y       z     vdW  Elec       q    Type
REMARK                         _______ _______ _______ _____ _____    ______ ____
ROOT
ATOM      1  C   UNL     1       3.933   4.562  18.968  0.00  0.00    +0.000 A 
ATOM      2  C   UNL     1       3.980   3.156  18.846  0.00  0.00    +0.000 A 
ATOM      3  C   UNL     1       2.929   2.435  18.283  0.00  0.00    +0.000 A 
ATOM      4  C   UNL     1       1.793   3.104  17.860  0.00  0.00    +0.000 A 
ATOM      5  C   UNL     1       1.704   4.487  18.035  0.00  0.00    +0.000 A 
ATOM      6  C   UNL     1       2.752   5.243  18.604  0.00  0.00    +0.000 A 
ENDROOT
BRANCH   6   7
ATOM      7  C   UNL     1       2.517   6.731  18.575  0.00  0.00    +0.000 C 
ATOM      8  O   UNL     1       2.931   7.310  17.563  0.00  0.00    +0.000 OA
ATOM      9  N   UNL     1       1.830   7.446  19.569  0.00  0.00    +0.000 N 
ATOM     10  C   UNL     1       1.331   6.891  20.813  0.00  0.00    +0.000 C 
BRANCH   9  11
ATOM     11  C   UNL     1       1.837   8.911  19.479  0.00  0.00    +0.000 C 
BRANCH  11  12
ATOM     12  C   UNL     1       0.741   9.670  20.208  0.00  0.00    +0.000 A 
ATOM     13  C   UNL     1       0.821   9.941  21.578  0.00  0.00    +0.000 A 
ATOM     14  C   UNL     1      -0.050  10.862  22.189  0.00  0.00    +0.000 A 
ATOM     15  C   UNL     1      -1.025  11.563  21.461  0.00  0.00    +0.000 A 
ATOM     16  C   UNL     1      -1.175  11.190  20.110  0.00  0.00    +0.000 A 
ATOM     17  C   UNL     1      -0.309  10.267  19.499  0.00  0.00    +0.000 A 
BRANCH  15  18
ATOM     18  C   UNL     1      -1.886  12.682  22.094  0.00  0.00    +0.000 C 
ATOM     19  C   UNL     1      -2.877  12.144  23.158  0.00  0.00    +0.000 C 
ATOM     20  C   UNL     1      -1.025  13.746  22.828  0.00  0.00    +0.000 C 
ATOM     21  C   UNL     1      -2.701  13.400  21.002  0.00  0.00    +0.000 C 
ENDBRANCH  15  18
ENDBRANCH  11  12
ENDBRANCH   9  11
ENDBRANCH   6   7
BRANCH   1  22
ATOM     22  O   UNL     1       5.012   5.261  19.451  0.00  0.00    +0.000 OA
BRANCH  22  23
ATOM     23  C   UNL     1       6.319   4.821  19.040  0.00  0.00    +0.000 C 
BRANCH  23  30
ATOM     24  C   UNL     1       7.995   7.498  18.457  0.00  0.00    +0.000 C 
ATOM     25  C   UNL     1       7.539   6.493  17.470  0.00  0.00    +0.000 A 
ATOM     26  N   UNL     1       7.816   6.661  16.174  0.00  0.00    +0.000 NA
ATOM     27  O   UNL     1       7.161   5.644  15.520  0.00  0.00    +0.000 OA
ATOM     28  C   UNL     1       6.497   4.869  16.418  0.00  0.00    +0.000 A 
ATOM     29  C   UNL     1       5.656   3.817  15.815  0.00  0.00    +0.000 C 
ATOM     30  C   UNL     1       6.762   5.315  17.698  0.00  0.00    +0.000 A 
ENDBRANCH  23  30
ENDBRANCH  22  23
ENDBRANCH   1  22
TORSDOF 7
ENDMDL
MODEL 4
REMARK VINA RESULT:      -7.7      3.225      9.988
REMARK  Name = 
REMARK  13 active torsions:
REMARK  status: ('A' for Active; 'I' for Inactive)
REMARK    1  A    between atoms: C_1  and  C_2
REMARK    2  A    between atoms: C_5  and  C_6
REMARK    3  A    between atoms: C_7  and  C_8
REMARK    4  A    between atoms: C_8  and  O_9
REMARK    5  A    between atoms: O_9  and  C_10
REMARK    6  A    between atoms: C_15  and  C_16
REMARK    7  A    between atoms: N_18  and  C_19
REMARK    8  A    between atoms: N_18  and  C_20
REMARK    9  A    between atoms: C_20  and  C_21
REMARK   10  A    between atoms: C_24  and  C_25
REMARK   11  A    between atoms: C_25  and  C_26
REMARK   12  A    between atoms: C_25  and  C_27
REMARK   13  A    between atoms: C_25  and  C_28
REMARK                            x       y       z     vdW  Elec       q    Type
REMARK                         _______ _______ _______ _____ _____    ______ ____
ROOT
ATOM      1  C   UNL     1      -1.801  11.636  19.234  0.00  0.00    +0.000 A 
ATOM      2  C   UNL     1      -3.079  11.963  18.731  0.00  0.00    +0.000 A 
ATOM      3  C   UNL     1      -3.690  11.203  17.736  0.00  0.00    +0.000 A 
ATOM      4  C   UNL     1      -3.019  10.117  17.198  0.00  0.00    +0.000 A 
ATOM      5  C   UNL     1      -1.727   9.820  17.638  0.00  0.00    +0.000 A 
ATOM      6  C   UNL     1      -1.083  10.574  18.644  0.00  0.00    +0.000 A 
ENDROOT
BRANCH   6   7
ATOM      7  C   UNL     1       0.245  10.008  19.073  0.00  0.00    +0.000 C 
ATOM      8  O   UNL     1       1.200  10.288  18.338  0.00  0.00    +0.000 OA
ATOM      9  N   UNL     1       0.450   9.261  20.244  0.00  0.00    +0.000 N 
ATOM     10  C   UNL     1      -0.588   8.837  21.164  0.00  0.00    +0.000 C 
BRANCH   9  11
ATOM     11  C   UNL     1       1.764   8.635  20.430  0.00  0.00    +0.000 C 
BRANCH  11  12
ATOM     12  C   UNL     1       1.996   7.274  19.795  0.00  0.00    +0.000 A 
ATOM     13  C   UNL     1       2.575   7.143  18.528  0.00  0.00    +0.000 A 
ATOM     14  C   UNL     1       3.029   5.895  18.062  0.00  0.00    +0.000 A 
ATOM     15  C   UNL     1       2.940   4.730  18.841  0.00  0.00    +0.000 A 
ATOM     16  C   UNL     1       2.246   4.854  20.062  0.00  0.00    +0.000 A 
ATOM     17  C   UNL     1       1.788   6.098  20.526  0.00  0.00    +0.000 A 
BRANCH  15  18
ATOM     18  C   UNL     1       3.569   3.388  18.398  0.00  0.00    +0.000 C 
ATOM     19  C   UNL     1       2.503   2.317  18.048  0.00  0.00    +0.000 C 
ATOM     20  C   UNL     1       4.442   3.535  17.123  0.00  0.00    +0.000 C 
ATOM     21  C   UNL     1       4.459   2.827  19.523  0.00  0.00    +0.000 C 
ENDBRANCH  15  18
ENDBRANCH  11  12
ENDBRANCH   9  11
ENDBRANCH   6   7
BRANCH   1  22
ATOM     22  O   UNL     1      -1.251  12.348  20.271  0.00  0.00    +0.000 OA
BRANCH  22  23
ATOM     23  C   UNL     1      -2.057  13.387  20.856  0.00  0.00    +0.000 C 
BRANCH  23  30
ATOM     24  C   UNL     1      -1.340  11.506  23.359  0.00  0.00    +0.000 C 
ATOM     25  C   UNL     1      -2.651  12.122  23.046  0.00  0.00    +0.000 A 
ATOM     26  N   UNL     1      -3.695  11.906  23.850  0.00  0.00    +0.000 NA
ATOM     27  O   UNL     1      -4.769  12.499  23.231  0.00  0.00    +0.000 OA
ATOM     28  C   UNL     1      -4.371  13.071  22.062  0.00  0.00    +0.000 A 
ATOM     29  C   UNL     1      -5.468  13.632  21.250  0.00  0.00    +0.000 C 
ATOM     30  C   UNL     1      -3.004  12.930  21.922  0.00  0.00    +0.000 A 
ENDBRANCH  23  30
ENDBRANCH  22  23
ENDBRANCH   1  22
TORSDOF 7
ENDMDL
MODEL 5
REMARK VINA RESULT:      -7.6      0.725      1.237
REMARK  Name = 
REMARK  13 active torsions:
REMARK  status: ('A' for Active; 'I' for Inactive)
REMARK    1  A    between atoms: C_1  and  C_2
REMARK    2  A    between atoms: C_5  and  C_6
REMARK    3  A    between atoms: C_7  and  C_8
REMARK    4  A    between atoms: C_8  and  O_9
REMARK    5  A    between atoms: O_9  and  C_10
REMARK    6  A    between atoms: C_15  and  C_16
REMARK    7  A    between atoms: N_18  and  C_19
REMARK    8  A    between atoms: N_18  and  C_20
REMARK    9  A    between atoms: C_20  and  C_21
REMARK   10  A    between atoms: C_24  and  C_25
REMARK   11  A    between atoms: C_25  and  C_26
REMARK   12  A    between atoms: C_25  and  C_27
REMARK   13  A    between atoms: C_25  and  C_28
REMARK                            x       y       z     vdW  Elec       q    Type
REMARK                         _______ _______ _______ _____ _____    ______ ____
ROOT
ATOM      1  C   UNL     1       3.733   5.070  19.116  0.00  0.00    +0.000 A 
ATOM      2  C   UNL     1       3.700   3.667  19.272  0.00  0.00    +0.000 A 
ATOM      3  C   UNL     1       2.647   2.900  18.779  0.00  0.00    +0.000 A 
ATOM      4  C   UNL     1       1.586   3.526  18.147  0.00  0.00    +0.000 A 
ATOM      5  C   UNL     1       1.572   4.919  18.042  0.00  0.00    +0.000 A 
ATOM      6  C   UNL     1       2.625   5.721  18.534  0.00  0.00    +0.000 A 
ENDROOT
BRANCH   6   7
ATOM      7  C   UNL     1       2.485   7.183  18.199  0.00  0.00    +0.000 C 
ATOM      8  O   UNL     1       2.843   7.498  17.057  0.00  0.00    +0.000 OA
ATOM      9  N   UNL     1       1.940   8.148  19.060  0.00  0.00    +0.000 N 
ATOM     10  C   UNL     1       1.521   7.913  20.429  0.00  0.00    +0.000 C 
BRANCH   9  11
ATOM     11  C   UNL     1       2.034   9.555  18.653  0.00  0.00    +0.000 C 
BRANCH  11  12
ATOM     12  C   UNL     1       1.053  10.538  19.268  0.00  0.00    +0.000 A 
ATOM     13  C   UNL     1      -0.330  10.368  19.150  0.00  0.00    +0.000 A 
ATOM     14  C   UNL     1      -1.225  11.118  19.935  0.00  0.00    +0.000 A 
ATOM     15  C   UNL     1      -0.782  12.057  20.880  0.00  0.00    +0.000 A 
ATOM     16  C   UNL     1       0.606  12.305  20.902  0.00  0.00    +0.000 A 
ATOM     17  C   UNL     1       1.501  11.560  20.114  0.00  0.00    +0.000 A 
BRANCH  15  18
ATOM     18  C   UNL     1      -1.749  12.777  21.849  0.00  0.00    +0.000 C 
ATOM     19  C   UNL     1      -1.116  14.035  22.498  0.00  0.00    +0.000 C 
ATOM     20  C   UNL     1      -3.034  13.279  21.138  0.00  0.00    +0.000 C 
ATOM     21  C   UNL     1      -2.172  11.819  22.979  0.00  0.00    +0.000 C 
ENDBRANCH  15  18
ENDBRANCH  11  12
ENDBRANCH   9  11
ENDBRANCH   6   7
BRANCH   1  22
ATOM     22  O   UNL     1       4.818   5.798  19.537  0.00  0.00    +0.000 OA
BRANCH  22  23
ATOM     23  C   UNL     1       6.123   5.277  19.223  0.00  0.00    +0.000 C 
BRANCH  23  30
ATOM     24  C   UNL     1       5.853   3.905  16.331  0.00  0.00    +0.000 C 
ATOM     25  C   UNL     1       6.550   5.169  16.662  0.00  0.00    +0.000 A 
ATOM     26  N   UNL     1       7.161   5.863  15.699  0.00  0.00    +0.000 NA
ATOM     27  O   UNL     1       7.805   6.897  16.337  0.00  0.00    +0.000 OA
ATOM     28  C   UNL     1       7.579   6.825  17.676  0.00  0.00    +0.000 A 
ATOM     29  C   UNL     1       8.325   7.815  18.477  0.00  0.00    +0.000 C 
ATOM     30  C   UNL     1       6.716   5.781  17.944  0.00  0.00    +0.000 A 
ENDBRANCH  23  30
ENDBRANCH  22  23
ENDBRANCH   1  22
TORSDOF 7
ENDMDL
MODEL 6
REMARK VINA RESULT:      -7.6      2.604      7.742
REMARK  Name = 
REMARK  13 active torsions:
REMARK  status: ('A' for Active; 'I' for Inactive)
REMARK    1  A    between atoms: C_1  and  C_2
REMARK    2  A    between atoms: C_5  and  C_6
REMARK    3  A    between atoms: C_7  and  C_8
REMARK    4  A    between atoms: C_8  and  O_9
REMARK    5  A    between atoms: O_9  and  C_10
REMARK    6  A    between atoms: C_15  and  C_16
REMARK    7  A    between atoms: N_18  and  C_19
REMARK    8  A    between atoms: N_18  and  C_20
REMARK    9  A    between atoms: C_20  and  C_21
REMARK   10  A    between atoms: C_24  and  C_25
REMARK   11  A    between atoms: C_25  and  C_26
REMARK   12  A    between atoms: C_25  and  C_27
REMARK   13  A    between atoms: C_25  and  C_28
REMARK                            x       y       z     vdW  Elec       q    Type
REMARK                         _______ _______ _______ _____ _____    ______ ____
ROOT
ATOM      1  C   UNL     1       2.789   5.584  18.809  0.00  0.00    +0.000 A 
ATOM      2  C   UNL     1       1.747   4.686  19.129  0.00  0.00    +0.000 A 
ATOM      3  C   UNL     1       1.619   3.456  18.488  0.00  0.00    +0.000 A 
ATOM      4  C   UNL     1       2.512   3.111  17.489  0.00  0.00    +0.000 A 
ATOM      5  C   UNL     1       3.508   4.016  17.115  0.00  0.00    +0.000 A 
ATOM      6  C   UNL     1       3.661   5.271  17.746  0.00  0.00    +0.000 A 
ENDROOT
BRANCH   6   7
ATOM      7  C   UNL     1       4.877   6.036  17.294  0.00  0.00    +0.000 C 
ATOM      8  O   UNL     1       4.720   6.724  16.277  0.00  0.00    +0.000 OA
ATOM      9  N   UNL     1       6.106   6.049  17.973  0.00  0.00    +0.000 N 
ATOM     10  C   UNL     1       6.426   5.261  19.148  0.00  0.00    +0.000 C 
BRANCH   9  11
ATOM     11  C   UNL     1       7.241   6.702  17.312  0.00  0.00    +0.000 C 
BRANCH  11  12
ATOM     12  C   UNL     1       7.718   8.032  17.872  0.00  0.00    +0.000 A 
ATOM     13  C   UNL     1       8.643   8.100  18.919  0.00  0.00    +0.000 A 
ATOM     14  C   UNL     1       9.277   9.311  19.252  0.00  0.00    +0.000 A 
ATOM     15  C   UNL     1       9.030  10.501  18.548  0.00  0.00    +0.000 A 
ATOM     16  C   UNL     1       8.008  10.444  17.578  0.00  0.00    +0.000 A 
ATOM     17  C   UNL     1       7.369   9.237  17.249  0.00  0.00    +0.000 A 
BRANCH  15  18
ATOM     18  C   UNL     1       9.829  11.799  18.809  0.00  0.00    +0.000 C 
ATOM     19  C   UNL     1      11.036  11.959  17.848  0.00  0.00    +0.000 C 
ATOM     20  C   UNL     1       8.968  13.075  18.609  0.00  0.00    +0.000 C 
ATOM     21  C   UNL     1      10.365  11.806  20.253  0.00  0.00    +0.000 C 
ENDBRANCH  15  18
ENDBRANCH  11  12
ENDBRANCH   9  11
ENDBRANCH   6   7
BRANCH   1  22
ATOM     22  O   UNL     1       2.946   6.755  19.508  0.00  0.00    +0.000 OA
BRANCH  22  23
ATOM     23  C   UNL     1       1.847   7.181  20.334  0.00  0.00    +0.000 C 
BRANCH  23  30
ATOM     24  C   UNL     1       0.200   8.996  22.412  0.00  0.00    +0.000 C 
ATOM     25  C   UNL     1       0.702   9.393  21.076  0.00  0.00    +0.000 A 
ATOM     26  N   UNL     1       0.473  10.627  20.620  0.00  0.00    +0.000 NA
ATOM     27  O   UNL     1       0.947  10.640  19.329  0.00  0.00    +0.000 OA
ATOM     28  C   UNL     1       1.460   9.420  19.013  0.00  0.00    +0.000 A 
ATOM     29  C   UNL     1       1.886   9.281  17.607  0.00  0.00    +0.000 C 
ATOM     30  C   UNL     1       1.403   8.595  20.119  0.00  0.00    +0.000 A 
ENDBRANCH  23  30
ENDBRANCH  22  23
ENDBRANCH   1  22
TORSDOF 7
ENDMDL
MODEL 7
REMARK VINA RESULT:      -7.6      1.684      2.595
REMARK  Name = 
REMARK  13 active torsions:
REMARK  status: ('A' for Active; 'I' for Inactive)
REMARK    1  A    between atoms: C_1  and  C_2
REMARK    2  A    between atoms: C_5  and  C_6
REMARK    3  A    between atoms: C_7  and  C_8
REMARK    4  A    between atoms: C_8  and  O_9
REMARK    5  A    between atoms: O_9  and  C_10
REMARK    6  A    between atoms: C_15  and  C_16
REMARK    7  A    between atoms: N_18  and  C_19
REMARK    8  A    between atoms: N_18  and  C_20
REMARK    9  A    between atoms: C_20  and  C_21
REMARK   10  A    between atoms: C_24  and  C_25
REMARK   11  A    between atoms: C_25  and  C_26
REMARK   12  A    between atoms: C_25  and  C_27
REMARK   13  A    between atoms: C_25  and  C_28
REMARK                            x       y       z     vdW  Elec       q    Type
REMARK                         _______ _______ _______ _____ _____    ______ ____
ROOT
ATOM      1  C   UNL     1       3.657   3.595  19.636  0.00  0.00    +0.000 A 
ATOM      2  C   UNL     1       3.599   2.587  20.623  0.00  0.00    +0.000 A 
ATOM      3  C   UNL     1       2.506   2.464  21.479  0.00  0.00    +0.000 A 
ATOM      4  C   UNL     1       1.462   3.369  21.386  0.00  0.00    +0.000 A 
ATOM      5  C   UNL     1       1.535   4.411  20.460  0.00  0.00    +0.000 A 
ATOM      6  C   UNL     1       2.631   4.562  19.582  0.00  0.00    +0.000 A 
ENDROOT
BRANCH   6   7
ATOM      7  C   UNL     1       2.453   5.662  18.568  0.00  0.00    +0.000 C 
ATOM      8  O   UNL     1       2.472   5.298  17.386  0.00  0.00    +0.000 OA
ATOM      9  N   UNL     1       2.218   7.009  18.890  0.00  0.00    +0.000 N 
ATOM     10  C   UNL     1       2.209   7.565  20.230  0.00  0.00    +0.000 C 
BRANCH   9  11
ATOM     11  C   UNL     1       2.241   7.983  17.793  0.00  0.00    +0.000 C 
BRANCH  11  12
ATOM     12  C   UNL     1       1.497   9.292  17.993  0.00  0.00    +0.000 A 
ATOM     13  C   UNL     1       0.108   9.332  18.156  0.00  0.00    +0.000 A 
ATOM     14  C   UNL     1      -0.539  10.499  18.603  0.00  0.00    +0.000 A 
ATOM     15  C   UNL     1       0.169  11.669  18.921  0.00  0.00    +0.000 A 
ATOM     16  C   UNL     1       1.549  11.654  18.636  0.00  0.00    +0.000 A 
ATOM     17  C   UNL     1       2.196  10.491  18.185  0.00  0.00    +0.000 A 
BRANCH  15  18
ATOM     18  C   UNL     1      -0.515  12.905  19.553  0.00  0.00    +0.000 C 
ATOM     19  C   UNL     1      -2.051  12.733  19.686  0.00  0.00    +0.000 C 
ATOM     20  C   UNL     1      -0.004  13.194  20.990  0.00  0.00    +0.000 C 
ATOM     21  C   UNL     1      -0.247  14.153  18.691  0.00  0.00    +0.000 C 
ENDBRANCH  15  18
ENDBRANCH  11  12
ENDBRANCH   9  11
ENDBRANCH   6   7
BRANCH   1  22
ATOM     22  O   UNL     1       4.705   3.650  18.751  0.00  0.00    +0.000 OA
BRANCH  22  23
ATOM     23  C   UNL     1       5.645   4.727  18.910  0.00  0.00    +0.000 C 
BRANCH  23  30
ATOM     24  C   UNL     1       7.946   6.955  18.654  0.00  0.00    +0.000 C 
ATOM     25  C   UNL     1       7.320   6.183  17.557  0.00  0.00    +0.000 A 
ATOM     26  N   UNL     1       7.704   6.392  16.295  0.00  0.00    +0.000 NA
ATOM     27  O   UNL     1       6.863   5.627  15.520  0.00  0.00    +0.000 OA
ATOM     28  C   UNL     1       5.982   4.962  16.313  0.00  0.00    +0.000 A 
ATOM     29  C   UNL     1       4.949   4.204  15.579  0.00  0.00    +0.000 C 
ATOM     30  C   UNL     1       6.271   5.215  17.639  0.00  0.00    +0.000 A 
ENDBRANCH  23  30
ENDBRANCH  22  23
ENDBRANCH   1  22
TORSDOF 7
ENDMDL
MODEL 8
REMARK VINA RESULT:      -7.6      1.748      2.330
REMARK  Name = 
REMARK  13 active torsions:
REMARK  status: ('A' for Active; 'I' for Inactive)
REMARK    1  A    between atoms: C_1  and  C_2
REMARK    2  A    between atoms: C_5  and  C_6
REMARK    3  A    between atoms: C_7  and  C_8
REMARK    4  A    between atoms: C_8  and  O_9
REMARK    5  A    between atoms: O_9  and  C_10
REMARK    6  A    between atoms: C_15  and  C_16
REMARK    7  A    between atoms: N_18  and  C_19
REMARK    8  A    between atoms: N_18  and  C_20
REMARK    9  A    between atoms: C_20  and  C_21
REMARK   10  A    between atoms: C_24  and  C_25
REMARK   11  A    between atoms: C_25  and  C_26
REMARK   12  A    between atoms: C_25  and  C_27
REMARK   13  A    between atoms: C_25  and  C_28
REMARK                            x       y       z     vdW  Elec       q    Type
REMARK                         _______ _______ _______ _____ _____    ______ ____
ROOT
ATOM      1  C   UNL     1       3.397   5.315  19.710  0.00  0.00    +0.000 A 
ATOM      2  C   UNL     1       3.453   3.908  19.807  0.00  0.00    +0.000 A 
ATOM      3  C   UNL     1       2.343   3.156  20.189  0.00  0.00    +0.000 A 
ATOM      4  C   UNL     1       1.162   3.801  20.513  0.00  0.00    +0.000 A 
ATOM      5  C   UNL     1       1.110   5.197  20.485  0.00  0.00    +0.000 A 
ATOM      6  C   UNL     1       2.219   5.984  20.104  0.00  0.00    +0.000 A 
ENDROOT
BRANCH   6   7
ATOM      7  C   UNL     1       1.916   7.456  20.005  0.00  0.00    +0.000 C 
ATOM      8  O   UNL     1       1.576   7.997  21.065  0.00  0.00    +0.000 OA
ATOM      9  N   UNL     1       2.050   8.218  18.833  0.00  0.00    +0.000 N 
ATOM     10  C   UNL     1       2.403   7.696  17.526  0.00  0.00    +0.000 C 
BRANCH   9  11
ATOM     11  C   UNL     1       1.550   9.597  18.858  0.00  0.00    +0.000 C 
BRANCH  11  12
ATOM     12  C   UNL     1       0.050   9.808  18.743  0.00  0.00    +0.000 A 
ATOM     13  C   UNL     1      -0.683  10.445  19.750  0.00  0.00    +0.000 A 
ATOM     14  C   UNL     1      -2.005  10.874  19.527  0.00  0.00    +0.000 A 
ATOM     15  C   UNL     1      -2.647  10.701  18.291  0.00  0.00    +0.000 A 
ATOM     16  C   UNL     1      -1.942   9.950  17.328  0.00  0.00    +0.000 A 
ATOM     17  C   UNL     1      -0.624   9.517  17.550  0.00  0.00    +0.000 A 
BRANCH  15  18
ATOM     18  C   UNL     1      -4.042  11.299  17.991  0.00  0.00    +0.000 C 
ATOM     19  C   UNL     1      -5.198  10.337  18.375  0.00  0.00    +0.000 C 
ATOM     20  C   UNL     1      -4.309  12.605  18.786  0.00  0.00    +0.000 C 
ATOM     21  C   UNL     1      -4.166  11.619  16.490  0.00  0.00    +0.000 C 
ENDBRANCH  15  18
ENDBRANCH  11  12
ENDBRANCH   9  11
ENDBRANCH   6   7
BRANCH   1  22
ATOM     22  O   UNL     1       4.477   6.031  19.255  0.00  0.00    +0.000 OA
BRANCH  22  23
ATOM     23  C   UNL     1       5.701   5.307  19.036  0.00  0.00    +0.000 C 
BRANCH  23  30
ATOM     24  C   UNL     1       5.564   3.780  16.213  0.00  0.00    +0.000 C 
ATOM     25  C   UNL     1       6.336   5.003  16.534  0.00  0.00    +0.000 A 
ATOM     26  N   UNL     1       7.084   5.582  15.593  0.00  0.00    +0.000 NA
ATOM     27  O   UNL     1       7.757   6.600  16.227  0.00  0.00    +0.000 OA
ATOM     28  C   UNL     1       7.412   6.632  17.542  0.00  0.00    +0.000 A 
ATOM     29  C   UNL     1       8.169   7.608  18.350  0.00  0.00    +0.000 C 
ATOM     30  C   UNL     1       6.443   5.679  17.789  0.00  0.00    +0.000 A 
ENDBRANCH  23  30
ENDBRANCH  22  23
ENDBRANCH   1  22
TORSDOF 7
ENDMDL
MODEL 9
REMARK VINA RESULT:      -7.5      2.755      7.615
REMARK  Name = 
REMARK  13 active torsions:
REMARK  status: ('A' for Active; 'I' for Inactive)
REMARK    1  A    between atoms: C_1  and  C_2
REMARK    2  A    between atoms: C_5  and  C_6
REMARK    3  A    between atoms: C_7  and  C_8
REMARK    4  A    between atoms: C_8  and  O_9
REMARK    5  A    between atoms: O_9  and  C_10
REMARK    6  A    between atoms: C_15  and  C_16
REMARK    7  A    between atoms: N_18  and  C_19
REMARK    8  A    between atoms: N_18  and  C_20
REMARK    9  A    between atoms: C_20  and  C_21
REMARK   10  A    between atoms: C_24  and  C_25
REMARK   11  A    between atoms: C_25  and  C_26
REMARK   12  A    between atoms: C_25  and  C_27
REMARK   13  A    between atoms: C_25  and  C_28
REMARK                            x       y       z     vdW  Elec       q    Type
REMARK                         _______ _______ _______ _____ _____    ______ ____
ROOT
ATOM      1  C   UNL     1       2.731   4.917  19.041  0.00  0.00    +0.000 A 
ATOM      2  C   UNL     1       1.417   4.402  19.074  0.00  0.00    +0.000 A 
ATOM      3  C   UNL     1       1.129   3.104  18.658  0.00  0.00    +0.000 A 
ATOM      4  C   UNL     1       2.146   2.304  18.167  0.00  0.00    +0.000 A 
ATOM      5  C   UNL     1       3.440   2.820  18.067  0.00  0.00    +0.000 A 
ATOM      6  C   UNL     1       3.760   4.133  18.479  0.00  0.00    +0.000 A 
ENDROOT
BRANCH   6   7
ATOM      7  C   UNL     1       5.232   4.448  18.419  0.00  0.00    +0.000 C 
ATOM      8  O   UNL     1       5.881   4.130  19.424  0.00  0.00    +0.000 OA
ATOM      9  N   UNL     1       5.881   5.006  17.305  0.00  0.00    +0.000 N 
ATOM     10  C   UNL     1       5.230   5.452  16.089  0.00  0.00    +0.000 C 
BRANCH   9  11
ATOM     11  C   UNL     1       7.282   5.412  17.468  0.00  0.00    +0.000 C 
BRANCH  11  12
ATOM     12  C   UNL     1       7.559   6.845  17.888  0.00  0.00    +0.000 A 
ATOM     13  C   UNL     1       8.410   7.147  18.957  0.00  0.00    +0.000 A 
ATOM     14  C   UNL     1       8.870   8.459  19.172  0.00  0.00    +0.000 A 
ATOM     15  C   UNL     1       8.516   9.522  18.326  0.00  0.00    +0.000 A 
ATOM     16  C   UNL     1       7.563   9.228  17.329  0.00  0.00    +0.000 A 
ATOM     17  C   UNL     1       7.098   7.919  17.116  0.00  0.00    +0.000 A 
BRANCH  15  18
ATOM     18  C   UNL     1       9.133  10.934  18.466  0.00  0.00    +0.000 C 
ATOM     19  C   UNL     1       8.269  12.032  17.793  0.00  0.00    +0.000 C 
ATOM     20  C   UNL     1       9.278  11.372  19.949  0.00  0.00    +0.000 C 
ATOM     21  C   UNL     1      10.532  10.964  17.820  0.00  0.00    +0.000 C 
ENDBRANCH  15  18
ENDBRANCH  11  12
ENDBRANCH   9  11
ENDBRANCH   6   7
BRANCH   1  22
ATOM     22  O   UNL     1       3.007   6.169  19.531  0.00  0.00    +0.000 OA
BRANCH  22  23
ATOM     23  C   UNL     1       2.063   6.737  20.457  0.00  0.00    +0.000 C 
BRANCH  23  30
ATOM     24  C   UNL     1       0.082   8.562  22.209  0.00  0.00    +0.000 C 
ATOM     25  C   UNL     1       0.716   8.911  20.916  0.00  0.00    +0.000 A 
ATOM     26  N   UNL     1       0.474  10.099  20.358  0.00  0.00    +0.000 NA
ATOM     27  O   UNL     1       1.096  10.067  19.132  0.00  0.00    +0.000 OA
ATOM     28  C   UNL     1       1.711   8.867  18.957  0.00  0.00    +0.000 A 
ATOM     29  C   UNL     1       2.308   8.673  17.622  0.00  0.00    +0.000 C 
ATOM     30  C   UNL     1       1.570   8.105  20.101  0.00  0.00    +0.000 A 
ENDBRANCH  23  30
ENDBRANCH  22  23
ENDBRANCH   1  22
TORSDOF 7
ENDMDL
