MODEL 1
REMARK VINA RESULT:      -6.4      0.000      0.000
REMARK  Name = 
REMARK  9 active torsions:
REMARK  status: ('A' for Active; 'I' for Inactive)
REMARK    1  A    between atoms: N_1  and  C_2
REMARK    2  A    between atoms: C_2  and  C_3
REMARK    3  A    between atoms: C_3  and  C_4
REMARK    4  A    between atoms: C_4  and  C_5
REMARK    5  A    between atoms: C_5  and  C_6
REMARK    6  A    between atoms: C_6  and  O_7
REMARK    7  A    between atoms: O_7  and  C_8
REMARK    8  A    between atoms: C_11  and  S_12
REMARK    9  A    between atoms: S_12  and  N_13
REMARK                            x       y       z     vdW  Elec       q    Type
REMARK                         _______ _______ _______ _____ _____    ______ ____
ROOT
ATOM      1  C   UNL     1       3.434   5.736  19.139  0.00  0.00    +0.000 A 
ATOM      2  C   UNL     1       4.518   4.960  19.559  0.00  0.00    +0.000 A 
ATOM      3  C   UNL     1       5.586   4.708  18.694  0.00  0.00    +0.000 A 
ATOM      4  C   UNL     1       5.552   5.217  17.394  0.00  0.00    +0.000 A 
ATOM      5  C   UNL     1       4.465   5.976  16.957  0.00  0.00    +0.000 A 
ATOM      6  C   UNL     1       3.403   6.227  17.830  0.00  0.00    +0.000 A 
ENDROOT
BRANCH   4   7
ATOM      7  S   UNL     1       6.923   4.946  16.311  0.00  0.00    +0.000 S 
ATOM      8  O   UNL     1       6.551   3.976  15.306  0.00  0.00    +0.000 OA
ATOM      9  O   UNL     1       7.521   6.217  15.977  0.00  0.00    +0.000 OA
BRANCH   7  10
ATOM     10  N   UNL     1       8.012   4.170  17.323  0.00  0.00    +0.000 NA
ATOM     11  H   UNL     1       8.635   4.853  17.755  0.00  0.00    +0.000 HD
ATOM     12  H   UNL     1       7.510   3.586  17.992  0.00  0.00    +0.000 HD
ENDBRANCH   7  10
ENDBRANCH   4   7
BRANCH   1  13
ATOM     13  O   UNL     1       2.448   5.932  20.073  0.00  0.00    +0.000 OA
BRANCH  13  14
ATOM     14  C   UNL     1       2.220   4.825  20.946  0.00  0.00    +0.000 C 
BRANCH  14  15
ATOM     15  C   UNL     1       1.062   3.983  20.406  0.00  0.00    +0.000 C 
BRANCH  15  16
ATOM     16  C   UNL     1       1.562   2.591  20.018  0.00  0.00    +0.000 C 
BRANCH  16  17
ATOM     17  C   UNL     1       1.375   2.276  18.533  0.00  0.00    +0.000 C 
BRANCH  17  18
ATOM     18  C   UNL     1       2.725   2.324  17.811  0.00  0.00    +0.000 C 
BRANCH  18  19
ATOM     19  N   UNL     1       3.694   1.433  18.436  0.00  0.00    +0.000 NA
ATOM     20  H   UNL     1       3.275   0.507  18.541  0.00  0.00    +0.000 HD
ATOM     21  H   UNL     1       3.911   1.755  19.377  0.00  0.00    +0.000 HD
ENDBRANCH  18  19
ENDBRANCH  17  18
ENDBRANCH  16  17
ENDBRANCH  15  16
ENDBRANCH  14  15
ENDBRANCH  13  14
ENDBRANCH   1  13
TORSDOF 9
ENDMDL
MODEL 2
REMARK VINA RESULT:      -6.3      0.993      1.007
REMARK  Name = 
REMARK  9 active torsions:
REMARK  status: ('A' for Active; 'I' for Inactive)
REMARK    1  A    between atoms: N_1  and  C_2
REMARK    2  A    between atoms: C_2  and  C_3
REMARK    3  A    between atoms: C_3  and  C_4
REMARK    4  A    between atoms: C_4  and  C_5
REMARK    5  A    between atoms: C_5  and  C_6
REMARK    6  A    between atoms: C_6  and  O_7
REMARK    7  A    between atoms: O_7  and  C_8
REMARK    8  A    between atoms: C_11  and  S_12
REMARK    9  A    between atoms: S_12  and  N_13
REMARK                            x       y       z     vdW  Elec       q    Type
REMARK                         _______ _______ _______ _____ _____    ______ ____
ROOT
ATOM      1  C   UNL     1       3.332   5.793  19.235  0.00  0.00    +0.000 A 
ATOM      2  C   UNL     1       4.525   5.214  19.680  0.00  0.00    +0.000 A 
ATOM      3  C   UNL     1       5.623   5.110  18.823  0.00  0.00    +0.000 A 
ATOM      4  C   UNL     1       5.515   5.564  17.507  0.00  0.00    +0.000 A 
ATOM      5  C   UNL     1       4.322   6.124  17.046  0.00  0.00    +0.000 A 
ATOM      6  C   UNL     1       3.230   6.230  17.911  0.00  0.00    +0.000 A 
ENDROOT
BRANCH   4   7
ATOM      7  S   UNL     1       6.917   5.482  16.433  0.00  0.00    +0.000 S 
ATOM      8  O   UNL     1       7.831   4.472  16.919  0.00  0.00    +0.000 OA
ATOM      9  O   UNL     1       6.468   5.524  15.062  0.00  0.00    +0.000 OA
BRANCH   7  10
ATOM     10  N   UNL     1       7.660   6.957  16.726  0.00  0.00    +0.000 NA
ATOM     11  H   UNL     1       8.663   6.822  16.856  0.00  0.00    +0.000 HD
ATOM     12  H   UNL     1       7.424   7.618  15.985  0.00  0.00    +0.000 HD
ENDBRANCH   7  10
ENDBRANCH   4   7
BRANCH   1  13
ATOM     13  O   UNL     1       2.324   5.858  20.163  0.00  0.00    +0.000 OA
BRANCH  13  14
ATOM     14  C   UNL     1       2.122   4.661  20.916  0.00  0.00    +0.000 C 
BRANCH  14  15
ATOM     15  C   UNL     1       1.061   3.800  20.227  0.00  0.00    +0.000 C 
BRANCH  15  16
ATOM     16  C   UNL     1       1.658   2.450  19.831  0.00  0.00    +0.000 C 
BRANCH  16  17
ATOM     17  C   UNL     1       1.861   2.300  18.322  0.00  0.00    +0.000 C 
BRANCH  17  18
ATOM     18  C   UNL     1       3.356   2.209  17.999  0.00  0.00    +0.000 C 
BRANCH  18  19
ATOM     19  N   UNL     1       3.889   0.891  18.315  0.00  0.00    +0.000 NA
ATOM     20  H   UNL     1       4.858   0.839  17.996  0.00  0.00    +0.000 HD
ATOM     21  H   UNL     1       3.382   0.174  17.799  0.00  0.00    +0.000 HD
ENDBRANCH  18  19
ENDBRANCH  17  18
ENDBRANCH  16  17
ENDBRANCH  15  16
ENDBRANCH  14  15
ENDBRANCH  13  14
ENDBRANCH   1  13
TORSDOF 9
ENDMDL
MODEL 3
REMARK VINA RESULT:      -6.2      1.015      1.554
REMARK  Name = 
REMARK  9 active torsions:
REMARK  status: ('A' for Active; 'I' for Inactive)
REMARK    1  A    between atoms: N_1  and  C_2
REMARK    2  A    between atoms: C_2  and  C_3
REMARK    3  A    between atoms: C_3  and  C_4
REMARK    4  A    between atoms: C_4  and  C_5
REMARK    5  A    between atoms: C_5  and  C_6
REMARK    6  A    between atoms: C_6  and  O_7
REMARK    7  A    between atoms: O_7  and  C_8
REMARK    8  A    between atoms: C_11  and  S_12
REMARK    9  A    between atoms: S_12  and  N_13
REMARK                            x       y       z     vdW  Elec       q    Type
REMARK                         _______ _______ _______ _____ _____    ______ ____
ROOT
ATOM      1  C   UNL     1       3.410   5.576  19.276  0.00  0.00    +0.000 A 
ATOM      2  C   UNL     1       3.246   6.045  17.969  0.00  0.00    +0.000 A 
ATOM      3  C   UNL     1       4.314   6.026  17.070  0.00  0.00    +0.000 A 
ATOM      4  C   UNL     1       5.560   5.557  17.492  0.00  0.00    +0.000 A 
ATOM      5  C   UNL     1       5.741   5.105  18.800  0.00  0.00    +0.000 A 
ATOM      6  C   UNL     1       4.666   5.123  19.693  0.00  0.00    +0.000 A 
ENDROOT
BRANCH   4   7
ATOM      7  S   UNL     1       6.903   5.481  16.345  0.00  0.00    +0.000 S 
ATOM      8  O   UNL     1       7.844   4.472  16.780  0.00  0.00    +0.000 OA
ATOM      9  O   UNL     1       6.381   5.524  15.000  0.00  0.00    +0.000 OA
BRANCH   7  10
ATOM     10  N   UNL     1       7.657   6.957  16.600  0.00  0.00    +0.000 NA
ATOM     11  H   UNL     1       8.617   6.809  16.912  0.00  0.00    +0.000 HD
ATOM     12  H   UNL     1       7.578   7.536  15.764  0.00  0.00    +0.000 HD
ENDBRANCH   7  10
ENDBRANCH   4   7
BRANCH   1  13
ATOM     13  O   UNL     1       2.292   5.627  20.069  0.00  0.00    +0.000 OA
BRANCH  13  14
ATOM     14  C   UNL     1       2.097   4.486  20.906  0.00  0.00    +0.000 C 
BRANCH  14  15
ATOM     15  C   UNL     1       1.046   3.568  20.278  0.00  0.00    +0.000 C 
BRANCH  15  16
ATOM     16  C   UNL     1       1.715   2.317  19.710  0.00  0.00    +0.000 C 
BRANCH  16  17
ATOM     17  C   UNL     1       1.902   2.369  18.193  0.00  0.00    +0.000 C 
BRANCH  17  18
ATOM     18  C   UNL     1       3.369   2.113  17.834  0.00  0.00    +0.000 C 
BRANCH  18  19
ATOM     19  N   UNL     1       4.105   1.562  18.965  0.00  0.00    +0.000 NA
ATOM     20  H   UNL     1       5.012   2.026  19.029  0.00  0.00    +0.000 HD
ATOM     21  H   UNL     1       4.301   0.575  18.808  0.00  0.00    +0.000 HD
ENDBRANCH  18  19
ENDBRANCH  17  18
ENDBRANCH  16  17
ENDBRANCH  15  16
ENDBRANCH  14  15
ENDBRANCH  13  14
ENDBRANCH   1  13
TORSDOF 9
ENDMDL
MODEL 4
REMARK VINA RESULT:      -6.2      0.616      1.324
REMARK  Name = 
REMARK  9 active torsions:
REMARK  status: ('A' for Active; 'I' for Inactive)
REMARK    1  A    between atoms: N_1  and  C_2
REMARK    2  A    between atoms: C_2  and  C_3
REMARK    3  A    between atoms: C_3  and  C_4
REMARK    4  A    between atoms: C_4  and  C_5
REMARK    5  A    between atoms: C_5  and  C_6
REMARK    6  A    between atoms: C_6  and  O_7
REMARK    7  A    between atoms: O_7  and  C_8
REMARK    8  A    between atoms: C_11  and  S_12
REMARK    9  A    between atoms: S_12  and  N_13
REMARK                            x       y       z     vdW  Elec       q    Type
REMARK                         _______ _______ _______ _____ _____    ______ ____
ROOT
ATOM      1  C   UNL     1       3.335   5.796  19.266  0.00  0.00    +0.000 A 
ATOM      2  C   UNL     1       3.258   6.451  18.033  0.00  0.00    +0.000 A 
ATOM      3  C   UNL     1       4.349   6.451  17.161  0.00  0.00    +0.000 A 
ATOM      4  C   UNL     1       5.531   5.811  17.540  0.00  0.00    +0.000 A 
ATOM      5  C   UNL     1       5.627   5.172  18.777  0.00  0.00    +0.000 A 
ATOM      6  C   UNL     1       4.529   5.173  19.642  0.00  0.00    +0.000 A 
ENDROOT
BRANCH   4   7
ATOM      7  S   UNL     1       6.898   5.761  16.420  0.00  0.00    +0.000 S 
ATOM      8  O   UNL     1       6.417   5.435  15.096  0.00  0.00    +0.000 OA
ATOM      9  O   UNL     1       7.760   6.891  16.673  0.00  0.00    +0.000 OA
BRANCH   7  10
ATOM     10  N   UNL     1       7.732   4.409  16.955  0.00  0.00    +0.000 NA
ATOM     11  H   UNL     1       7.452   4.182  17.910  0.00  0.00    +0.000 HD
ATOM     12  H   UNL     1       7.610   3.641  16.294  0.00  0.00    +0.000 HD
ENDBRANCH   7  10
ENDBRANCH   4   7
BRANCH   1  13
ATOM     13  O   UNL     1       2.201   5.848  20.036  0.00  0.00    +0.000 OA
BRANCH  13  14
ATOM     14  C   UNL     1       2.008   4.723  20.896  0.00  0.00    +0.000 C 
BRANCH  14  15
ATOM     15  C   UNL     1       0.989   3.772  20.266  0.00  0.00    +0.000 C 
BRANCH  15  16
ATOM     16  C   UNL     1       1.693   2.520  19.743  0.00  0.00    +0.000 C 
BRANCH  16  17
ATOM     17  C   UNL     1       1.809   2.486  18.219  0.00  0.00    +0.000 C 
BRANCH  17  18
ATOM     18  C   UNL     1       3.271   2.286  17.807  0.00  0.00    +0.000 C 
BRANCH  18  19
ATOM     19  N   UNL     1       4.030   1.610  18.851  0.00  0.00    +0.000 NA
ATOM     20  H   UNL     1       4.275   2.287  19.575  0.00  0.00    +0.000 HD
ATOM     21  H   UNL     1       4.912   1.265  18.476  0.00  0.00    +0.000 HD
ENDBRANCH  18  19
ENDBRANCH  17  18
ENDBRANCH  16  17
ENDBRANCH  15  16
ENDBRANCH  14  15
ENDBRANCH  13  14
ENDBRANCH   1  13
TORSDOF 9
ENDMDL
MODEL 5
REMARK VINA RESULT:      -6.2      0.717      1.416
REMARK  Name = 
REMARK  9 active torsions:
REMARK  status: ('A' for Active; 'I' for Inactive)
REMARK    1  A    between atoms: N_1  and  C_2
REMARK    2  A    between atoms: C_2  and  C_3
REMARK    3  A    between atoms: C_3  and  C_4
REMARK    4  A    between atoms: C_4  and  C_5
REMARK    5  A    between atoms: C_5  and  C_6
REMARK    6  A    between atoms: C_6  and  O_7
REMARK    7  A    between atoms: O_7  and  C_8
REMARK    8  A    between atoms: C_11  and  S_12
REMARK    9  A    between atoms: S_12  and  N_13
REMARK                            x       y       z     vdW  Elec       q    Type
REMARK                         _______ _______ _______ _____ _____    ______ ____
ROOT
ATOM      1  C   UNL     1       3.462   5.930  19.119  0.00  0.00    +0.000 A 
ATOM      2  C   UNL     1       3.464   6.442  17.819  0.00  0.00    +0.000 A 
ATOM      3  C   UNL     1       4.509   6.143  16.941  0.00  0.00    +0.000 A 
ATOM      4  C   UNL     1       5.569   5.348  17.381  0.00  0.00    +0.000 A 
ATOM      5  C   UNL     1       5.588   4.849  18.684  0.00  0.00    +0.000 A 
ATOM      6  C   UNL     1       4.536   5.148  19.554  0.00  0.00    +0.000 A 
ENDROOT
BRANCH   4   7
ATOM      7  S   UNL     1       6.869   4.923  16.260  0.00  0.00    +0.000 S 
ATOM      8  O   UNL     1       6.398   3.904  15.349  0.00  0.00    +0.000 OA
ATOM      9  O   UNL     1       7.516   6.130  15.804  0.00  0.00    +0.000 OA
BRANCH   7  10
ATOM     10  N   UNL     1       7.965   4.163  17.277  0.00  0.00    +0.000 NA
ATOM     11  H   UNL     1       8.916   4.314  16.940  0.00  0.00    +0.000 HD
ATOM     12  H   UNL     1       7.813   4.467  18.240  0.00  0.00    +0.000 HD
ENDBRANCH   7  10
ENDBRANCH   4   7
BRANCH   1  13
ATOM     13  O   UNL     1       2.380   6.274  19.890  0.00  0.00    +0.000 OA
BRANCH  13  14
ATOM     14  C   UNL     1       2.033   5.322  20.897  0.00  0.00    +0.000 C 
BRANCH  14  15
ATOM     15  C   UNL     1       0.956   4.380  20.355  0.00  0.00    +0.000 C 
BRANCH  15  16
ATOM     16  C   UNL     1       1.321   2.929  20.671  0.00  0.00    +0.000 C 
BRANCH  16  17
ATOM     17  C   UNL     1       2.266   2.308  19.642  0.00  0.00    +0.000 C 
BRANCH  17  18
ATOM     18  C   UNL     1       1.589   2.257  18.269  0.00  0.00    +0.000 C 
BRANCH  18  19
ATOM     19  N   UNL     1       2.347   3.003  17.273  0.00  0.00    +0.000 NA
ATOM     20  H   UNL     1       2.369   3.988  17.542  0.00  0.00    +0.000 HD
ATOM     21  H   UNL     1       1.875   2.965  16.372  0.00  0.00    +0.000 HD
ENDBRANCH  18  19
ENDBRANCH  17  18
ENDBRANCH  16  17
ENDBRANCH  15  16
ENDBRANCH  14  15
ENDBRANCH  13  14
ENDBRANCH   1  13
TORSDOF 9
ENDMDL
MODEL 6
REMARK VINA RESULT:      -6.1      0.917      1.577
REMARK  Name = 
REMARK  9 active torsions:
REMARK  status: ('A' for Active; 'I' for Inactive)
REMARK    1  A    between atoms: N_1  and  C_2
REMARK    2  A    between atoms: C_2  and  C_3
REMARK    3  A    between atoms: C_3  and  C_4
REMARK    4  A    between atoms: C_4  and  C_5
REMARK    5  A    between atoms: C_5  and  C_6
REMARK    6  A    between atoms: C_6  and  O_7
REMARK    7  A    between atoms: O_7  and  C_8
REMARK    8  A    between atoms: C_11  and  S_12
REMARK    9  A    between atoms: S_12  and  N_13
REMARK                            x       y       z     vdW  Elec       q    Type
REMARK                         _______ _______ _______ _____ _____    ______ ____
ROOT
ATOM      1  C   UNL     1       3.458   5.827  19.082  0.00  0.00    +0.000 A 
ATOM      2  C   UNL     1       3.451   6.180  17.729  0.00  0.00    +0.000 A 
ATOM      3  C   UNL     1       4.554   5.900  16.918  0.00  0.00    +0.000 A 
ATOM      4  C   UNL     1       5.678   5.286  17.475  0.00  0.00    +0.000 A 
ATOM      5  C   UNL     1       5.704   4.948  18.829  0.00  0.00    +0.000 A 
ATOM      6  C   UNL     1       4.595   5.227  19.632  0.00  0.00    +0.000 A 
ENDROOT
BRANCH   4   7
ATOM      7  S   UNL     1       7.056   4.881  16.444  0.00  0.00    +0.000 S 
ATOM      8  O   UNL     1       7.383   6.022  15.617  0.00  0.00    +0.000 OA
ATOM      9  O   UNL     1       8.047   4.185  17.229  0.00  0.00    +0.000 OA
BRANCH   7  10
ATOM     10  N   UNL     1       6.390   3.739  15.413  0.00  0.00    +0.000 NA
ATOM     11  H   UNL     1       5.646   4.161  14.858  0.00  0.00    +0.000 HD
ATOM     12  H   UNL     1       7.126   3.303  14.856  0.00  0.00    +0.000 HD
ENDBRANCH   7  10
ENDBRANCH   4   7
BRANCH   1  13
ATOM     13  O   UNL     1       2.319   6.136  19.780  0.00  0.00    +0.000 OA
BRANCH  13  14
ATOM     14  C   UNL     1       1.936   5.171  20.762  0.00  0.00    +0.000 C 
BRANCH  14  15
ATOM     15  C   UNL     1       1.018   4.129  20.119  0.00  0.00    +0.000 C 
BRANCH  15  16
ATOM     16  C   UNL     1       1.648   2.740  20.222  0.00  0.00    +0.000 C 
BRANCH  16  17
ATOM     17  C   UNL     1       1.583   1.951  18.914  0.00  0.00    +0.000 C 
BRANCH  17  18
ATOM     18  C   UNL     1       2.561   2.543  17.894  0.00  0.00    +0.000 C 
BRANCH  18  19
ATOM     19  N   UNL     1       3.875   1.920  17.992  0.00  0.00    +0.000 NA
ATOM     20  H   UNL     1       4.472   2.285  17.248  0.00  0.00    +0.000 HD
ATOM     21  H   UNL     1       3.800   0.918  17.831  0.00  0.00    +0.000 HD
ENDBRANCH  18  19
ENDBRANCH  17  18
ENDBRANCH  16  17
ENDBRANCH  15  16
ENDBRANCH  14  15
ENDBRANCH  13  14
ENDBRANCH   1  13
TORSDOF 9
ENDMDL
MODEL 7
REMARK VINA RESULT:      -6.0      1.682      2.142
REMARK  Name = 
REMARK  9 active torsions:
REMARK  status: ('A' for Active; 'I' for Inactive)
REMARK    1  A    between atoms: N_1  and  C_2
REMARK    2  A    between atoms: C_2  and  C_3
REMARK    3  A    between atoms: C_3  and  C_4
REMARK    4  A    between atoms: C_4  and  C_5
REMARK    5  A    between atoms: C_5  and  C_6
REMARK    6  A    between atoms: C_6  and  O_7
REMARK    7  A    between atoms: O_7  and  C_8
REMARK    8  A    between atoms: C_11  and  S_12
REMARK    9  A    between atoms: S_12  and  N_13
REMARK                            x       y       z     vdW  Elec       q    Type
REMARK                         _______ _______ _______ _____ _____    ______ ____
ROOT
ATOM      1  C   UNL     1       2.703   4.384  17.556  0.00  0.00    +0.000 A 
ATOM      2  C   UNL     1       3.193   5.509  18.225  0.00  0.00    +0.000 A 
ATOM      3  C   UNL     1       4.549   5.839  18.155  0.00  0.00    +0.000 A 
ATOM      4  C   UNL     1       5.419   5.022  17.432  0.00  0.00    +0.000 A 
ATOM      5  C   UNL     1       4.944   3.884  16.777  0.00  0.00    +0.000 A 
ATOM      6  C   UNL     1       3.586   3.563  16.848  0.00  0.00    +0.000 A 
ENDROOT
BRANCH   4   7
ATOM      7  S   UNL     1       7.126   5.462  17.296  0.00  0.00    +0.000 S 
ATOM      8  O   UNL     1       7.828   4.428  16.568  0.00  0.00    +0.000 OA
ATOM      9  O   UNL     1       7.230   6.859  16.949  0.00  0.00    +0.000 OA
BRANCH   7  10
ATOM     10  N   UNL     1       7.641   5.338  18.887  0.00  0.00    +0.000 NA
ATOM     11  H   UNL     1       8.071   4.426  19.044  0.00  0.00    +0.000 HD
ATOM     12  H   UNL     1       8.246   6.126  19.119  0.00  0.00    +0.000 HD
ENDBRANCH   7  10
ENDBRANCH   4   7
BRANCH   1  13
ATOM     13  O   UNL     1       1.355   4.162  17.680  0.00  0.00    +0.000 OA
BRANCH  13  14
ATOM     14  C   UNL     1       1.001   3.073  18.534  0.00  0.00    +0.000 C 
BRANCH  14  15
ATOM     15  C   UNL     1       0.731   3.600  19.944  0.00  0.00    +0.000 C 
BRANCH  15  16
ATOM     16  C   UNL     1       1.471   2.747  20.974  0.00  0.00    +0.000 C 
BRANCH  16  17
ATOM     17  C   UNL     1       2.968   3.050  21.044  0.00  0.00    +0.000 C 
BRANCH  17  18
ATOM     18  C   UNL     1       3.754   2.006  20.244  0.00  0.00    +0.000 C 
BRANCH  18  19
ATOM     19  N   UNL     1       5.113   2.456  19.971  0.00  0.00    +0.000 NA
ATOM     20  H   UNL     1       5.199   2.669  18.976  0.00  0.00    +0.000 HD
ATOM     21  H   UNL     1       5.775   1.706  20.160  0.00  0.00    +0.000 HD
ENDBRANCH  18  19
ENDBRANCH  17  18
ENDBRANCH  16  17
ENDBRANCH  15  16
ENDBRANCH  14  15
ENDBRANCH  13  14
ENDBRANCH   1  13
TORSDOF 9
ENDMDL
MODEL 8
REMARK VINA RESULT:      -5.9      1.718      2.258
REMARK  Name = 
REMARK  9 active torsions:
REMARK  status: ('A' for Active; 'I' for Inactive)
REMARK    1  A    between atoms: N_1  and  C_2
REMARK    2  A    between atoms: C_2  and  C_3
REMARK    3  A    between atoms: C_3  and  C_4
REMARK    4  A    between atoms: C_4  and  C_5
REMARK    5  A    between atoms: C_5  and  C_6
REMARK    6  A    between atoms: C_6  and  O_7
REMARK    7  A    between atoms: O_7  and  C_8
REMARK    8  A    between atoms: C_11  and  S_12
REMARK    9  A    between atoms: S_12  and  N_13
REMARK                            x       y       z     vdW  Elec       q    Type
REMARK                         _______ _______ _______ _____ _____    ______ ____
ROOT
ATOM      1  C   UNL     1       2.680   4.742  17.541  0.00  0.00    +0.000 A 
ATOM      2  C   UNL     1       3.472   3.738  16.975  0.00  0.00    +0.000 A 
ATOM      3  C   UNL     1       4.827   3.966  16.719  0.00  0.00    +0.000 A 
ATOM      4  C   UNL     1       5.380   5.215  17.007  0.00  0.00    +0.000 A 
ATOM      5  C   UNL     1       4.594   6.231  17.553  0.00  0.00    +0.000 A 
ATOM      6  C   UNL     1       3.241   5.993  17.811  0.00  0.00    +0.000 A 
ENDROOT
BRANCH   4   7
ATOM      7  S   UNL     1       7.105   5.494  16.734  0.00  0.00    +0.000 S 
ATOM      8  O   UNL     1       7.400   6.893  16.947  0.00  0.00    +0.000 OA
ATOM      9  O   UNL     1       7.862   4.438  17.364  0.00  0.00    +0.000 OA
BRANCH   7  10
ATOM     10  N   UNL     1       7.236   5.240  15.082  0.00  0.00    +0.000 NA
ATOM     11  H   UNL     1       6.461   5.693  14.596  0.00  0.00    +0.000 HD
ATOM     12  H   UNL     1       8.158   5.535  14.757  0.00  0.00    +0.000 HD
ENDBRANCH   7  10
ENDBRANCH   4   7
BRANCH   1  13
ATOM     13  O   UNL     1       1.369   4.405  17.764  0.00  0.00    +0.000 OA
BRANCH  13  14
ATOM     14  C   UNL     1       1.172   3.331  18.685  0.00  0.00    +0.000 C 
BRANCH  14  15
ATOM     15  C   UNL     1       1.303   3.858  20.115  0.00  0.00    +0.000 C 
BRANCH  15  16
ATOM     16  C   UNL     1       1.494   2.695  21.088  0.00  0.00    +0.000 C 
BRANCH  16  17
ATOM     17  C   UNL     1       2.956   2.470  21.479  0.00  0.00    +0.000 C 
BRANCH  17  18
ATOM     18  C   UNL     1       3.844   2.501  20.231  0.00  0.00    +0.000 C 
BRANCH  18  19
ATOM     19  N   UNL     1       5.110   1.818  20.463  0.00  0.00    +0.000 NA
ATOM     20  H   UNL     1       4.921   0.878  20.815  0.00  0.00    +0.000 HD
ATOM     21  H   UNL     1       5.638   2.294  21.192  0.00  0.00    +0.000 HD
ENDBRANCH  18  19
ENDBRANCH  17  18
ENDBRANCH  16  17
ENDBRANCH  15  16
ENDBRANCH  14  15
ENDBRANCH  13  14
ENDBRANCH   1  13
TORSDOF 9
ENDMDL
MODEL 9
REMARK VINA RESULT:      -5.9      1.522      1.759
REMARK  Name = 
REMARK  9 active torsions:
REMARK  status: ('A' for Active; 'I' for Inactive)
REMARK    1  A    between atoms: N_1  and  C_2
REMARK    2  A    between atoms: C_2  and  C_3
REMARK    3  A    between atoms: C_3  and  C_4
REMARK    4  A    between atoms: C_4  and  C_5
REMARK    5  A    between atoms: C_5  and  C_6
REMARK    6  A    between atoms: C_6  and  O_7
REMARK    7  A    between atoms: O_7  and  C_8
REMARK    8  A    between atoms: C_11  and  S_12
REMARK    9  A    between atoms: S_12  and  N_13
REMARK                            x       y       z     vdW  Elec       q    Type
REMARK                         _______ _______ _______ _____ _____    ______ ____
ROOT
ATOM      1  C   UNL     1       2.879   5.256  17.801  0.00  0.00    +0.000 A 
ATOM      2  C   UNL     1       3.532   4.124  17.304  0.00  0.00    +0.000 A 
ATOM      3  C   UNL     1       4.850   4.211  16.848  0.00  0.00    +0.000 A 
ATOM      4  C   UNL     1       5.504   5.444  16.866  0.00  0.00    +0.000 A 
ATOM      5  C   UNL     1       4.854   6.585  17.340  0.00  0.00    +0.000 A 
ATOM      6  C   UNL     1       3.538   6.489  17.800  0.00  0.00    +0.000 A 
ENDROOT
BRANCH   4   7
ATOM      7  S   UNL     1       7.188   5.552  16.338  0.00  0.00    +0.000 S 
ATOM      8  O   UNL     1       7.268   5.224  14.932  0.00  0.00    +0.000 OA
ATOM      9  O   UNL     1       7.783   6.746  16.889  0.00  0.00    +0.000 OA
BRANCH   7  10
ATOM     10  N   UNL     1       7.886   4.264  17.154  0.00  0.00    +0.000 NA
ATOM     11  H   UNL     1       8.899   4.382  17.189  0.00  0.00    +0.000 HD
ATOM     12  H   UNL     1       7.450   4.155  18.069  0.00  0.00    +0.000 HD
ENDBRANCH   7  10
ENDBRANCH   4   7
BRANCH   1  13
ATOM     13  O   UNL     1       1.594   5.054  18.237  0.00  0.00    +0.000 OA
BRANCH  13  14
ATOM     14  C   UNL     1       1.278   3.701  18.571  0.00  0.00    +0.000 C 
BRANCH  14  15
ATOM     15  C   UNL     1       0.829   3.630  20.032  0.00  0.00    +0.000 C 
BRANCH  15  16
ATOM     16  C   UNL     1       1.589   2.523  20.762  0.00  0.00    +0.000 C 
BRANCH  16  17
ATOM     17  C   UNL     1       3.087   2.806  20.893  0.00  0.00    +0.000 C 
BRANCH  17  18
ATOM     18  C   UNL     1       3.874   1.942  19.903  0.00  0.00    +0.000 C 
BRANCH  18  19
ATOM     19  N   UNL     1       5.211   1.647  20.400  0.00  0.00    +0.000 NA
ATOM     20  H   UNL     1       5.340   2.109  21.302  0.00  0.00    +0.000 HD
ATOM     21  H   UNL     1       5.913   2.041  19.776  0.00  0.00    +0.000 HD
ENDBRANCH  18  19
ENDBRANCH  17  18
ENDBRANCH  16  17
ENDBRANCH  15  16
ENDBRANCH  14  15
ENDBRANCH  13  14
ENDBRANCH   1  13
TORSDOF 9
ENDMDL
