MODEL 1
REMARK VINA RESULT:      -7.0      0.000      0.000
REMARK  Name = 
REMARK  8 active torsions:
REMARK  status: ('A' for Active; 'I' for Inactive)
REMARK    1  A    between atoms: C_1  and  C_2
REMARK    2  A    between atoms: C_5  and  C_6
REMARK    3  A    between atoms: C_7  and  O_8
REMARK    4  A    between atoms: O_8  and  C_9
REMARK    5  A    between atoms: C_9  and  C_10
REMARK    6  A    between atoms: N_12  and  N_13
REMARK    7  A    between atoms: C_14  and  C_15
REMARK    8  A    between atoms: N_19  and  C_20
REMARK                            x       y       z     vdW  Elec       q    Type
REMARK                         _______ _______ _______ _____ _____    ______ ____
ROOT
ATOM      1  C   UNL     1       2.656   4.767  19.311  0.00  0.00    +0.000 C 
ATOM      2  O   UNL     1       1.883   4.014  18.711  0.00  0.00    +0.000 OA
ATOM      3  N   UNL     1       4.038   4.691  19.257  0.00  0.00    +0.000 N 
ATOM      4  H   UNL     1       4.596   5.343  19.805  0.00  0.00    +0.000 HD
ENDROOT
BRANCH   3   5
ATOM      5  N   UNL     1       4.656   3.761  18.474  0.00  0.00    +0.000 NA
ATOM      6  C   UNL     1       5.697   4.122  17.783  0.00  0.00    +0.000 C 
BRANCH   6   7
ATOM      7  C   UNL     1       6.418   5.376  17.878  0.00  0.00    +0.000 A 
ATOM      8  C   UNL     1       7.512   5.678  18.676  0.00  0.00    +0.000 A 
ATOM      9  C   UNL     1       7.935   6.991  18.386  0.00  0.00    +0.000 A 
ATOM     10  C   UNL     1       7.102   7.471  17.404  0.00  0.00    +0.000 A 
ATOM     11  N   UNL     1       6.164   6.509  17.128  0.00  0.00    +0.000 N 
ATOM     12  C   UNL     1       5.011   6.731  16.281  0.00  0.00    +0.000 C 
ENDBRANCH   6   7
ENDBRANCH   3   5
BRANCH   1  13
ATOM     13  C   UNL     1       2.135   5.812  20.297  0.00  0.00    +0.000 C 
BRANCH  13  14
ATOM     14  O   UNL     1       2.476   7.115  19.844  0.00  0.00    +0.000 OA
BRANCH  14  21
ATOM     15  C   UNL     1      -0.275   9.729  23.072  0.00  0.00    +0.000 C 
ATOM     16  C   UNL     1       0.297   9.498  21.703  0.00  0.00    +0.000 A 
ATOM     17  C   UNL     1       0.026  10.390  20.663  0.00  0.00    +0.000 A 
ATOM     18  C   UNL     1       0.558  10.170  19.394  0.00  0.00    +0.000 A 
ATOM     19  C   UNL     1       1.372   9.057  19.144  0.00  0.00    +0.000 A 
ATOM     20  C   UNL     1       1.927   8.838  17.764  0.00  0.00    +0.000 C 
ATOM     21  C   UNL     1       1.657   8.158  20.187  0.00  0.00    +0.000 A 
ATOM     22  C   UNL     1       1.114   8.380  21.458  0.00  0.00    +0.000 A 
ENDBRANCH  14  21
ENDBRANCH  13  14
ENDBRANCH   1  13
TORSDOF 5
ENDMDL
MODEL 2
REMARK VINA RESULT:      -6.8      1.967      4.184
REMARK  Name = 
REMARK  8 active torsions:
REMARK  status: ('A' for Active; 'I' for Inactive)
REMARK    1  A    between atoms: C_1  and  C_2
REMARK    2  A    between atoms: C_5  and  C_6
REMARK    3  A    between atoms: C_7  and  O_8
REMARK    4  A    between atoms: O_8  and  C_9
REMARK    5  A    between atoms: C_9  and  C_10
REMARK    6  A    between atoms: N_12  and  N_13
REMARK    7  A    between atoms: C_14  and  C_15
REMARK    8  A    between atoms: N_19  and  C_20
REMARK                            x       y       z     vdW  Elec       q    Type
REMARK                         _______ _______ _______ _____ _____    ______ ____
ROOT
ATOM      1  C   UNL     1       4.607   5.584  17.686  0.00  0.00    +0.000 C 
ATOM      2  O   UNL     1       5.025   5.071  16.644  0.00  0.00    +0.000 OA
ATOM      3  N   UNL     1       4.689   5.006  18.942  0.00  0.00    +0.000 N 
ATOM      4  H   UNL     1       4.298   5.495  19.744  0.00  0.00    +0.000 HD
ENDROOT
BRANCH   3   5
ATOM      5  N   UNL     1       5.295   3.796  19.115  0.00  0.00    +0.000 NA
ATOM      6  C   UNL     1       4.611   2.828  19.653  0.00  0.00    +0.000 C 
BRANCH   6   7
ATOM      7  C   UNL     1       3.190   2.816  19.937  0.00  0.00    +0.000 A 
ATOM      8  C   UNL     1       2.562   2.853  21.174  0.00  0.00    +0.000 A 
ATOM      9  C   UNL     1       1.168   2.903  20.972  0.00  0.00    +0.000 A 
ATOM     10  C   UNL     1       0.961   2.910  19.614  0.00  0.00    +0.000 A 
ATOM     11  N   UNL     1       2.181   2.818  18.993  0.00  0.00    +0.000 N 
ATOM     12  C   UNL     1       2.343   2.609  17.569  0.00  0.00    +0.000 C 
ENDBRANCH   6   7
ENDBRANCH   3   5
BRANCH   1  13
ATOM     13  C   UNL     1       3.830   6.899  17.663  0.00  0.00    +0.000 C 
BRANCH  13  14
ATOM     14  O   UNL     1       2.577   6.730  18.314  0.00  0.00    +0.000 OA
BRANCH  14  21
ATOM     15  C   UNL     1       0.985  11.449  18.448  0.00  0.00    +0.000 C 
ATOM     16  C   UNL     1       1.207  10.108  19.086  0.00  0.00    +0.000 A 
ATOM     17  C   UNL     1       0.817   9.879  20.408  0.00  0.00    +0.000 A 
ATOM     18  C   UNL     1       1.027   8.633  20.996  0.00  0.00    +0.000 A 
ATOM     19  C   UNL     1       1.627   7.594  20.271  0.00  0.00    +0.000 A 
ATOM     20  C   UNL     1       1.851   6.262  20.931  0.00  0.00    +0.000 C 
ATOM     21  C   UNL     1       2.017   7.813  18.938  0.00  0.00    +0.000 A 
ATOM     22  C   UNL     1       1.810   9.068  18.355  0.00  0.00    +0.000 A 
ENDBRANCH  14  21
ENDBRANCH  13  14
ENDBRANCH   1  13
TORSDOF 5
ENDMDL
MODEL 3
REMARK VINA RESULT:      -6.7      1.513      2.340
REMARK  Name = 
REMARK  8 active torsions:
REMARK  status: ('A' for Active; 'I' for Inactive)
REMARK    1  A    between atoms: C_1  and  C_2
REMARK    2  A    between atoms: C_5  and  C_6
REMARK    3  A    between atoms: C_7  and  O_8
REMARK    4  A    between atoms: O_8  and  C_9
REMARK    5  A    between atoms: C_9  and  C_10
REMARK    6  A    between atoms: N_12  and  N_13
REMARK    7  A    between atoms: C_14  and  C_15
REMARK    8  A    between atoms: N_19  and  C_20
REMARK                            x       y       z     vdW  Elec       q    Type
REMARK                         _______ _______ _______ _____ _____    ______ ____
ROOT
ATOM      1  C   UNL     1       1.364   4.463  19.963  0.00  0.00    +0.000 C 
ATOM      2  O   UNL     1       1.134   3.352  20.451  0.00  0.00    +0.000 OA
ATOM      3  N   UNL     1       1.624   4.702  18.624  0.00  0.00    +0.000 N 
ATOM      4  H   UNL     1       1.824   5.652  18.316  0.00  0.00    +0.000 HD
ENDROOT
BRANCH   3   5
ATOM      5  N   UNL     1       1.606   3.684  17.717  0.00  0.00    +0.000 NA
ATOM      6  C   UNL     1       2.700   3.409  17.068  0.00  0.00    +0.000 C 
BRANCH   6   7
ATOM      7  C   UNL     1       4.024   3.943  17.320  0.00  0.00    +0.000 A 
ATOM      8  C   UNL     1       4.758   4.822  16.536  0.00  0.00    +0.000 A 
ATOM      9  C   UNL     1       5.958   5.132  17.207  0.00  0.00    +0.000 A 
ATOM     10  C   UNL     1       5.937   4.450  18.399  0.00  0.00    +0.000 A 
ATOM     11  N   UNL     1       4.787   3.704  18.447  0.00  0.00    +0.000 N 
ATOM     12  C   UNL     1       4.514   2.714  19.468  0.00  0.00    +0.000 C 
ENDBRANCH   6   7
ENDBRANCH   3   5
BRANCH   1  13
ATOM     13  C   UNL     1       1.502   5.701  20.848  0.00  0.00    +0.000 C 
BRANCH  13  14
ATOM     14  O   UNL     1       2.073   6.767  20.101  0.00  0.00    +0.000 OA
BRANCH  14  21
ATOM     15  C   UNL     1      -0.340  10.341  22.595  0.00  0.00    +0.000 C 
ATOM     16  C   UNL     1       0.349   9.817  21.369  0.00  0.00    +0.000 A 
ATOM     17  C   UNL     1       0.482  10.620  20.234  0.00  0.00    +0.000 A 
ATOM     18  C   UNL     1       1.120  10.128  19.097  0.00  0.00    +0.000 A 
ATOM     19  C   UNL     1       1.640   8.827  19.077  0.00  0.00    +0.000 A 
ATOM     20  C   UNL     1       2.317   8.317  17.835  0.00  0.00    +0.000 C 
ATOM     21  C   UNL     1       1.517   8.013  20.217  0.00  0.00    +0.000 A 
ATOM     22  C   UNL     1       0.868   8.510  21.354  0.00  0.00    +0.000 A 
ENDBRANCH  14  21
ENDBRANCH  13  14
ENDBRANCH   1  13
TORSDOF 5
ENDMDL
MODEL 4
REMARK VINA RESULT:      -6.7      2.604      6.258
REMARK  Name = 
REMARK  8 active torsions:
REMARK  status: ('A' for Active; 'I' for Inactive)
REMARK    1  A    between atoms: C_1  and  C_2
REMARK    2  A    between atoms: C_5  and  C_6
REMARK    3  A    between atoms: C_7  and  O_8
REMARK    4  A    between atoms: O_8  and  C_9
REMARK    5  A    between atoms: C_9  and  C_10
REMARK    6  A    between atoms: N_12  and  N_13
REMARK    7  A    between atoms: C_14  and  C_15
REMARK    8  A    between atoms: N_19  and  C_20
REMARK                            x       y       z     vdW  Elec       q    Type
REMARK                         _______ _______ _______ _____ _____    ______ ____
ROOT
ATOM      1  C   UNL     1       2.366   7.157  19.504  0.00  0.00    +0.000 C 
ATOM      2  O   UNL     1       1.758   7.955  20.224  0.00  0.00    +0.000 OA
ATOM      3  N   UNL     1       2.800   5.904  19.901  0.00  0.00    +0.000 N 
ATOM      4  H   UNL     1       3.314   5.321  19.242  0.00  0.00    +0.000 HD
ENDROOT
BRANCH   3   5
ATOM      5  N   UNL     1       2.541   5.441  21.157  0.00  0.00    +0.000 NA
ATOM      6  C   UNL     1       2.026   4.253  21.290  0.00  0.00    +0.000 C 
BRANCH   6   7
ATOM      7  C   UNL     1       1.852   3.256  20.253  0.00  0.00    +0.000 A 
ATOM      8  C   UNL     1       0.693   2.923  19.567  0.00  0.00    +0.000 A 
ATOM      9  C   UNL     1       1.006   1.954  18.592  0.00  0.00    +0.000 A 
ATOM     10  C   UNL     1       2.355   1.716  18.684  0.00  0.00    +0.000 A 
ATOM     11  N   UNL     1       2.856   2.474  19.713  0.00  0.00    +0.000 N 
ATOM     12  C   UNL     1       4.204   2.342  20.225  0.00  0.00    +0.000 C 
ENDBRANCH   6   7
ENDBRANCH   3   5
BRANCH   1  13
ATOM     13  C   UNL     1       2.810   7.546  18.095  0.00  0.00    +0.000 C 
BRANCH  13  14
ATOM     14  O   UNL     1       3.334   6.408  17.423  0.00  0.00    +0.000 OA
BRANCH  14  21
ATOM     15  C   UNL     1       7.987   8.172  17.671  0.00  0.00    +0.000 C 
ATOM     16  C   UNL     1       7.001   7.068  17.416  0.00  0.00    +0.000 A 
ATOM     17  C   UNL     1       7.444   5.794  17.054  0.00  0.00    +0.000 A 
ATOM     18  C   UNL     1       6.525   4.773  16.817  0.00  0.00    +0.000 A 
ATOM     19  C   UNL     1       5.149   5.009  16.942  0.00  0.00    +0.000 A 
ATOM     20  C   UNL     1       4.177   3.893  16.672  0.00  0.00    +0.000 C 
ATOM     21  C   UNL     1       4.695   6.287  17.312  0.00  0.00    +0.000 A 
ATOM     22  C   UNL     1       5.621   7.310  17.542  0.00  0.00    +0.000 A 
ENDBRANCH  14  21
ENDBRANCH  13  14
ENDBRANCH   1  13
TORSDOF 5
ENDMDL
MODEL 5
REMARK VINA RESULT:      -6.7      2.659      6.006
REMARK  Name = 
REMARK  8 active torsions:
REMARK  status: ('A' for Active; 'I' for Inactive)
REMARK    1  A    between atoms: C_1  and  C_2
REMARK    2  A    between atoms: C_5  and  C_6
REMARK    3  A    between atoms: C_7  and  O_8
REMARK    4  A    between atoms: O_8  and  C_9
REMARK    5  A    between atoms: C_9  and  C_10
REMARK    6  A    between atoms: N_12  and  N_13
REMARK    7  A    between atoms: C_14  and  C_15
REMARK    8  A    between atoms: N_19  and  C_20
REMARK                            x       y       z     vdW  Elec       q    Type
REMARK                         _______ _______ _______ _____ _____    ______ ____
ROOT
ATOM      1  C   UNL     1       2.248   7.083  19.592  0.00  0.00    +0.000 C 
ATOM      2  O   UNL     1       1.961   7.913  20.460  0.00  0.00    +0.000 OA
ATOM      3  N   UNL     1       2.246   5.710  19.777  0.00  0.00    +0.000 N 
ATOM      4  H   UNL     1       2.519   5.102  19.008  0.00  0.00    +0.000 HD
ENDROOT
BRANCH   3   5
ATOM      5  N   UNL     1       1.875   5.168  20.972  0.00  0.00    +0.000 NA
ATOM      6  C   UNL     1       2.045   3.891  21.156  0.00  0.00    +0.000 C 
BRANCH   6   7
ATOM      7  C   UNL     1       2.765   2.973  20.297  0.00  0.00    +0.000 A 
ATOM      8  C   UNL     1       4.099   2.597  20.369  0.00  0.00    +0.000 A 
ATOM      9  C   UNL     1       4.348   1.622  19.382  0.00  0.00    +0.000 A 
ATOM     10  C   UNL     1       3.161   1.404  18.727  0.00  0.00    +0.000 A 
ATOM     11  N   UNL     1       2.217   2.248  19.255  0.00  0.00    +0.000 N 
ATOM     12  C   UNL     1       0.897   2.432  18.688  0.00  0.00    +0.000 C 
ENDBRANCH   6   7
ENDBRANCH   3   5
BRANCH   1  13
ATOM     13  C   UNL     1       2.765   7.519  18.222  0.00  0.00    +0.000 C 
BRANCH  13  14
ATOM     14  O   UNL     1       3.254   6.391  17.510  0.00  0.00    +0.000 OA
BRANCH  14  21
ATOM     15  C   UNL     1       7.921   8.131  17.627  0.00  0.00    +0.000 C 
ATOM     16  C   UNL     1       6.919   7.045  17.358  0.00  0.00    +0.000 A 
ATOM     17  C   UNL     1       7.338   5.793  16.903  0.00  0.00    +0.000 A 
ATOM     18  C   UNL     1       6.404   4.789  16.654  0.00  0.00    +0.000 A 
ATOM     19  C   UNL     1       5.037   5.019  16.859  0.00  0.00    +0.000 A 
ATOM     20  C   UNL     1       4.048   3.922  16.575  0.00  0.00    +0.000 C 
ATOM     21  C   UNL     1       4.607   6.274  17.325  0.00  0.00    +0.000 A 
ATOM     22  C   UNL     1       5.548   7.281  17.566  0.00  0.00    +0.000 A 
ENDBRANCH  14  21
ENDBRANCH  13  14
ENDBRANCH   1  13
TORSDOF 5
ENDMDL
MODEL 6
REMARK VINA RESULT:      -6.7      2.162      6.196
REMARK  Name = 
REMARK  8 active torsions:
REMARK  status: ('A' for Active; 'I' for Inactive)
REMARK    1  A    between atoms: C_1  and  C_2
REMARK    2  A    between atoms: C_5  and  C_6
REMARK    3  A    between atoms: C_7  and  O_8
REMARK    4  A    between atoms: O_8  and  C_9
REMARK    5  A    between atoms: C_9  and  C_10
REMARK    6  A    between atoms: N_12  and  N_13
REMARK    7  A    between atoms: C_14  and  C_15
REMARK    8  A    between atoms: N_19  and  C_20
REMARK                            x       y       z     vdW  Elec       q    Type
REMARK                         _______ _______ _______ _____ _____    ______ ____
ROOT
ATOM      1  C   UNL     1       3.175   3.087  19.847  0.00  0.00    +0.000 C 
ATOM      2  O   UNL     1       2.176   2.364  19.788  0.00  0.00    +0.000 OA
ATOM      3  N   UNL     1       3.198   4.364  20.384  0.00  0.00    +0.000 N 
ATOM      4  H   UNL     1       4.066   4.896  20.370  0.00  0.00    +0.000 HD
ENDROOT
BRANCH   3   5
ATOM      5  N   UNL     1       2.076   4.909  20.935  0.00  0.00    +0.000 NA
ATOM      6  C   UNL     1       1.713   6.101  20.558  0.00  0.00    +0.000 C 
BRANCH   6   7
ATOM      7  C   UNL     1       2.261   6.876  19.463  0.00  0.00    +0.000 A 
ATOM      8  C   UNL     1       3.152   6.465  18.482  0.00  0.00    +0.000 A 
ATOM      9  C   UNL     1       3.349   7.526  17.576  0.00  0.00    +0.000 A 
ATOM     10  C   UNL     1       2.565   8.568  18.005  0.00  0.00    +0.000 A 
ATOM     11  N   UNL     1       1.940   8.187  19.166  0.00  0.00    +0.000 N 
ATOM     12  C   UNL     1       1.182   9.092  20.004  0.00  0.00    +0.000 C 
ENDBRANCH   6   7
ENDBRANCH   3   5
BRANCH   1  13
ATOM     13  C   UNL     1       4.495   2.666  19.204  0.00  0.00    +0.000 C 
BRANCH  13  14
ATOM     14  O   UNL     1       5.427   3.737  19.269  0.00  0.00    +0.000 OA
BRANCH  14  21
ATOM     15  C   UNL     1       5.338   4.298  14.320  0.00  0.00    +0.000 C 
ATOM     16  C   UNL     1       5.862   4.648  15.682  0.00  0.00    +0.000 A 
ATOM     17  C   UNL     1       6.839   5.634  15.833  0.00  0.00    +0.000 A 
ATOM     18  C   UNL     1       7.324   5.954  17.100  0.00  0.00    +0.000 A 
ATOM     19  C   UNL     1       6.836   5.296  18.237  0.00  0.00    +0.000 A 
ATOM     20  C   UNL     1       7.382   5.653  19.592  0.00  0.00    +0.000 C 
ATOM     21  C   UNL     1       5.848   4.307  18.096  0.00  0.00    +0.000 A 
ATOM     22  C   UNL     1       5.370   3.984  16.821  0.00  0.00    +0.000 A 
ENDBRANCH  14  21
ENDBRANCH  13  14
ENDBRANCH   1  13
TORSDOF 5
ENDMDL
MODEL 7
REMARK VINA RESULT:      -6.7      2.238      3.302
REMARK  Name = 
REMARK  8 active torsions:
REMARK  status: ('A' for Active; 'I' for Inactive)
REMARK    1  A    between atoms: C_1  and  C_2
REMARK    2  A    between atoms: C_5  and  C_6
REMARK    3  A    between atoms: C_7  and  O_8
REMARK    4  A    between atoms: O_8  and  C_9
REMARK    5  A    between atoms: C_9  and  C_10
REMARK    6  A    between atoms: N_12  and  N_13
REMARK    7  A    between atoms: C_14  and  C_15
REMARK    8  A    between atoms: N_19  and  C_20
REMARK                            x       y       z     vdW  Elec       q    Type
REMARK                         _______ _______ _______ _____ _____    ______ ____
ROOT
ATOM      1  C   UNL     1       1.597   4.479  20.916  0.00  0.00    +0.000 C 
ATOM      2  O   UNL     1       2.151   3.729  21.726  0.00  0.00    +0.000 OA
ATOM      3  N   UNL     1       0.971   4.064  19.753  0.00  0.00    +0.000 N 
ATOM      4  H   UNL     1       0.557   4.758  19.133  0.00  0.00    +0.000 HD
ENDROOT
BRANCH   3   5
ATOM      5  N   UNL     1       0.895   2.740  19.435  0.00  0.00    +0.000 NA
ATOM      6  C   UNL     1       1.772   2.246  18.610  0.00  0.00    +0.000 C 
BRANCH   6   7
ATOM      7  C   UNL     1       2.965   2.899  18.109  0.00  0.00    +0.000 A 
ATOM      8  C   UNL     1       3.129   3.586  16.914  0.00  0.00    +0.000 A 
ATOM      9  C   UNL     1       4.431   4.124  16.877  0.00  0.00    +0.000 A 
ATOM     10  C   UNL     1       5.042   3.772  18.056  0.00  0.00    +0.000 A 
ATOM     11  N   UNL     1       4.169   3.001  18.779  0.00  0.00    +0.000 N 
ATOM     12  C   UNL     1       4.534   2.294  19.989  0.00  0.00    +0.000 C 
ENDBRANCH   6   7
ENDBRANCH   3   5
BRANCH   1  13
ATOM     13  C   UNL     1       1.658   5.997  21.075  0.00  0.00    +0.000 C 
BRANCH  13  14
ATOM     14  O   UNL     1       2.271   6.577  19.931  0.00  0.00    +0.000 OA
BRANCH  14  21
ATOM     15  C   UNL     1      -0.102  10.898  20.654  0.00  0.00    +0.000 C 
ATOM     16  C   UNL     1       0.764   9.983  19.836  0.00  0.00    +0.000 A 
ATOM     17  C   UNL     1       1.266  10.401  18.602  0.00  0.00    +0.000 A 
ATOM     18  C   UNL     1       2.069   9.548  17.846  0.00  0.00    +0.000 A 
ATOM     19  C   UNL     1       2.385   8.265  18.314  0.00  0.00    +0.000 A 
ATOM     20  C   UNL     1       3.245   7.361  17.475  0.00  0.00    +0.000 C 
ATOM     21  C   UNL     1       1.890   7.839  19.559  0.00  0.00    +0.000 A 
ATOM     22  C   UNL     1       1.079   8.697  20.310  0.00  0.00    +0.000 A 
ENDBRANCH  14  21
ENDBRANCH  13  14
ENDBRANCH   1  13
TORSDOF 5
ENDMDL
MODEL 8
REMARK VINA RESULT:      -6.7      0.697      1.494
REMARK  Name = 
REMARK  8 active torsions:
REMARK  status: ('A' for Active; 'I' for Inactive)
REMARK    1  A    between atoms: C_1  and  C_2
REMARK    2  A    between atoms: C_5  and  C_6
REMARK    3  A    between atoms: C_7  and  O_8
REMARK    4  A    between atoms: O_8  and  C_9
REMARK    5  A    between atoms: C_9  and  C_10
REMARK    6  A    between atoms: N_12  and  N_13
REMARK    7  A    between atoms: C_14  and  C_15
REMARK    8  A    between atoms: N_19  and  C_20
REMARK                            x       y       z     vdW  Elec       q    Type
REMARK                         _______ _______ _______ _____ _____    ______ ____
ROOT
ATOM      1  C   UNL     1       2.440   4.602  19.816  0.00  0.00    +0.000 C 
ATOM      2  O   UNL     1       1.751   3.807  19.169  0.00  0.00    +0.000 OA
ATOM      3  N   UNL     1       3.802   4.474  20.036  0.00  0.00    +0.000 N 
ATOM      4  H   UNL     1       4.284   5.170  20.601  0.00  0.00    +0.000 HD
ENDROOT
BRANCH   3   5
ATOM      5  N   UNL     1       4.500   3.434  19.497  0.00  0.00    +0.000 NA
ATOM      6  C   UNL     1       5.123   3.619  18.370  0.00  0.00    +0.000 C 
BRANCH   6   7
ATOM      7  C   UNL     1       5.327   4.878  17.681  0.00  0.00    +0.000 A 
ATOM      8  C   UNL     1       4.593   5.409  16.629  0.00  0.00    +0.000 A 
ATOM      9  C   UNL     1       5.096   6.690  16.327  0.00  0.00    +0.000 A 
ATOM     10  C   UNL     1       6.123   6.933  17.207  0.00  0.00    +0.000 A 
ATOM     11  N   UNL     1       6.285   5.822  17.996  0.00  0.00    +0.000 N 
ATOM     12  C   UNL     1       7.393   5.642  18.910  0.00  0.00    +0.000 C 
ENDBRANCH   6   7
ENDBRANCH   3   5
BRANCH   1  13
ATOM     13  C   UNL     1       1.805   5.778  20.556  0.00  0.00    +0.000 C 
BRANCH  13  14
ATOM     14  O   UNL     1       2.201   7.001  19.950  0.00  0.00    +0.000 OA
BRANCH  14  21
ATOM     15  C   UNL     1      -0.382   9.923  23.050  0.00  0.00    +0.000 C 
ATOM     16  C   UNL     1       0.236   9.630  21.713  0.00  0.00    +0.000 A 
ATOM     17  C   UNL     1       0.140  10.555  20.671  0.00  0.00    +0.000 A 
ATOM     18  C   UNL     1       0.713  10.277  19.431  0.00  0.00    +0.000 A 
ATOM     19  C   UNL     1       1.394   9.071  19.214  0.00  0.00    +0.000 A 
ATOM     20  C   UNL     1       1.996   8.792  17.865  0.00  0.00    +0.000 C 
ATOM     21  C   UNL     1       1.501   8.137  20.259  0.00  0.00    +0.000 A 
ATOM     22  C   UNL     1       0.918   8.418  21.500  0.00  0.00    +0.000 A 
ENDBRANCH  14  21
ENDBRANCH  13  14
ENDBRANCH   1  13
TORSDOF 5
ENDMDL
MODEL 9
REMARK VINA RESULT:      -6.7      4.354      7.639
REMARK  Name = 
REMARK  8 active torsions:
REMARK  status: ('A' for Active; 'I' for Inactive)
REMARK    1  A    between atoms: C_1  and  C_2
REMARK    2  A    between atoms: C_5  and  C_6
REMARK    3  A    between atoms: C_7  and  O_8
REMARK    4  A    between atoms: O_8  and  C_9
REMARK    5  A    between atoms: C_9  and  C_10
REMARK    6  A    between atoms: N_12  and  N_13
REMARK    7  A    between atoms: C_14  and  C_15
REMARK    8  A    between atoms: N_19  and  C_20
REMARK                            x       y       z     vdW  Elec       q    Type
REMARK                         _______ _______ _______ _____ _____    ______ ____
ROOT
ATOM      1  C   UNL     1       7.897   7.868  17.914  0.00  0.00    +0.000 C 
ATOM      2  O   UNL     1       8.395   7.119  18.760  0.00  0.00    +0.000 OA
ATOM      3  N   UNL     1       7.191   7.445  16.800  0.00  0.00    +0.000 N 
ATOM      4  H   UNL     1       6.834   8.136  16.143  0.00  0.00    +0.000 HD
ENDROOT
BRANCH   3   5
ATOM      5  N   UNL     1       6.963   6.119  16.579  0.00  0.00    +0.000 NA
ATOM      6  C   UNL     1       5.847   5.600  17.001  0.00  0.00    +0.000 C 
BRANCH   6   7
ATOM      7  C   UNL     1       4.700   6.309  17.533  0.00  0.00    +0.000 A 
ATOM      8  C   UNL     1       4.105   7.465  17.048  0.00  0.00    +0.000 A 
ATOM      9  C   UNL     1       2.970   7.753  17.831  0.00  0.00    +0.000 A 
ATOM     10  C   UNL     1       2.875   6.761  18.777  0.00  0.00    +0.000 A 
ATOM     11  N   UNL     1       3.942   5.913  18.619  0.00  0.00    +0.000 N 
ATOM     12  C   UNL     1       4.275   4.859  19.554  0.00  0.00    +0.000 C 
ENDBRANCH   6   7
ENDBRANCH   3   5
BRANCH   1  13
ATOM     13  C   UNL     1       8.126   9.377  17.962  0.00  0.00    +0.000 C 
BRANCH  13  14
ATOM     14  O   UNL     1       8.982   9.701  19.049  0.00  0.00    +0.000 OA
BRANCH  14  21
ATOM     15  C   UNL     1      11.644  13.176  16.669  0.00  0.00    +0.000 C 
ATOM     16  C   UNL     1      10.993  12.621  17.904  0.00  0.00    +0.000 A 
ATOM     17  C   UNL     1      11.063  13.316  19.114  0.00  0.00    +0.000 A 
ATOM     18  C   UNL     1      10.459  12.796  20.257  0.00  0.00    +0.000 A 
ATOM     19  C   UNL     1       9.772  11.576  20.208  0.00  0.00    +0.000 A 
ATOM     20  C   UNL     1       9.135  11.032  21.458  0.00  0.00    +0.000 C 
ATOM     21  C   UNL     1       9.690  10.873  18.993  0.00  0.00    +0.000 A 
ATOM     22  C   UNL     1      10.305  11.396  17.850  0.00  0.00    +0.000 A 
ENDBRANCH  14  21
ENDBRANCH  13  14
ENDBRANCH   1  13
TORSDOF 5
ENDMDL
