MODEL 1
REMARK VINA RESULT:      -7.5      0.000      0.000
REMARK  Name = 
REMARK  4 active torsions:
REMARK  status: ('A' for Active; 'I' for Inactive)
REMARK    1  A    between atoms: C_1  and  O_2
REMARK    2  A    between atoms: O_2  and  C_3
REMARK    3  A    between atoms: C_6  and  C_7
REMARK    4  A    between atoms: C_7  and  C_9
REMARK                            x       y       z     vdW  Elec       q    Type
REMARK                         _______ _______ _______ _____ _____    ______ ____
ROOT
ATOM      1  C   UNL     1       5.006   4.347  16.935  0.00  0.00    +0.000 C 
ATOM      2  O   UNL     1       4.988   4.117  15.726  0.00  0.00    +0.000 OA
ENDROOT
BRANCH   1   3
ATOM      3  C   UNL     1       4.020   3.612  17.837  0.00  0.00    +0.000 A 
ATOM      4  N   UNL     1       3.996   2.306  17.529  0.00  0.00    +0.000 NA
ATOM      5  C   UNL     1       3.245   1.505  18.263  0.00  0.00    +0.000 A 
ATOM      6  C   UNL     1       2.329   1.911  19.164  0.00  0.00    +0.000 A 
ATOM      7  C   UNL     1       2.144   3.265  19.301  0.00  0.00    +0.000 A 
ATOM      8  C   UNL     1       0.986   3.648  19.971  0.00  0.00    +0.000 A 
ATOM      9  C   UNL     1       0.925   4.874  20.598  0.00  0.00    +0.000 A 
ATOM     10  C   UNL     1       2.049   5.681  20.549  0.00  0.00    +0.000 A 
ATOM     11  C   UNL     1       3.118   5.377  19.639  0.00  0.00    +0.000 A 
ATOM     12  C   UNL     1       3.145   4.162  18.878  0.00  0.00    +0.000 A 
ENDBRANCH   1   3
BRANCH   1  16
ATOM     13  C   UNL     1       7.983   7.356  18.382  0.00  0.00    +0.000 A 
ATOM     14  C   UNL     1       7.144   7.582  17.288  0.00  0.00    +0.000 A 
ATOM     15  C   UNL     1       6.211   6.605  16.850  0.00  0.00    +0.000 A 
ATOM     16  C   UNL     1       6.084   5.355  17.483  0.00  0.00    +0.000 A 
ATOM     17  C   UNL     1       6.962   5.157  18.576  0.00  0.00    +0.000 A 
ATOM     18  C   UNL     1       7.892   6.128  19.019  0.00  0.00    +0.000 A 
BRANCH  13  20
ATOM     19  C   UNL     1       8.515   9.697  18.299  0.00  0.00    +0.000 C 
ATOM     20  O   UNL     1       8.861   8.364  18.683  0.00  0.00    +0.000 OA
ENDBRANCH  13  20
ENDBRANCH   1  16
TORSDOF 3
ENDMDL
MODEL 2
REMARK VINA RESULT:      -7.4      0.285      1.096
REMARK  Name = 
REMARK  4 active torsions:
REMARK  status: ('A' for Active; 'I' for Inactive)
REMARK    1  A    between atoms: C_1  and  O_2
REMARK    2  A    between atoms: O_2  and  C_3
REMARK    3  A    between atoms: C_6  and  C_7
REMARK    4  A    between atoms: C_7  and  C_9
REMARK                            x       y       z     vdW  Elec       q    Type
REMARK                         _______ _______ _______ _____ _____    ______ ____
ROOT
ATOM      1  C   UNL     1       5.200   4.102  16.997  0.00  0.00    +0.000 C 
ATOM      2  O   UNL     1       5.404   3.567  15.908  0.00  0.00    +0.000 OA
ENDROOT
BRANCH   1   3
ATOM      3  C   UNL     1       4.128   3.519  17.912  0.00  0.00    +0.000 A 
ATOM      4  N   UNL     1       3.970   2.209  17.665  0.00  0.00    +0.000 NA
ATOM      5  C   UNL     1       3.128   1.528  18.419  0.00  0.00    +0.000 A 
ATOM      6  C   UNL     1       2.246   2.071  19.283  0.00  0.00    +0.000 A 
ATOM      7  C   UNL     1       2.204   3.442  19.353  0.00  0.00    +0.000 A 
ATOM      8  C   UNL     1       1.083   3.976  19.981  0.00  0.00    +0.000 A 
ATOM      9  C   UNL     1       1.143   5.230  20.549  0.00  0.00    +0.000 A 
ATOM     10  C   UNL     1       2.347   5.912  20.486  0.00  0.00    +0.000 A 
ATOM     11  C   UNL     1       3.391   5.454  19.613  0.00  0.00    +0.000 A 
ATOM     12  C   UNL     1       3.301   4.208  18.909  0.00  0.00    +0.000 A 
ENDBRANCH   1   3
BRANCH   1  16
ATOM     13  C   UNL     1       7.871   7.469  18.239  0.00  0.00    +0.000 A 
ATOM     14  C   UNL     1       7.939   6.195  18.807  0.00  0.00    +0.000 A 
ATOM     15  C   UNL     1       7.075   5.146  18.394  0.00  0.00    +0.000 A 
ATOM     16  C   UNL     1       6.097   5.332  17.400  0.00  0.00    +0.000 A 
ATOM     17  C   UNL     1       6.047   6.640  16.861  0.00  0.00    +0.000 A 
ATOM     18  C   UNL     1       6.908   7.688  17.266  0.00  0.00    +0.000 A 
BRANCH  13  20
ATOM     19  C   UNL     1       8.638   9.745  18.275  0.00  0.00    +0.000 C 
ATOM     20  O   UNL     1       8.737   8.400  18.748  0.00  0.00    +0.000 OA
ENDBRANCH  13  20
ENDBRANCH   1  16
TORSDOF 3
ENDMDL
MODEL 3
REMARK VINA RESULT:      -7.3      2.429      4.209
REMARK  Name = 
REMARK  4 active torsions:
REMARK  status: ('A' for Active; 'I' for Inactive)
REMARK    1  A    between atoms: C_1  and  O_2
REMARK    2  A    between atoms: O_2  and  C_3
REMARK    3  A    between atoms: C_6  and  C_7
REMARK    4  A    between atoms: C_7  and  C_9
REMARK                            x       y       z     vdW  Elec       q    Type
REMARK                         _______ _______ _______ _____ _____    ______ ____
ROOT
ATOM      1  C   UNL     1       5.670   4.837  18.451  0.00  0.00    +0.000 C 
ATOM      2  O   UNL     1       6.588   4.793  19.270  0.00  0.00    +0.000 OA
ENDROOT
BRANCH   1   3
ATOM      3  C   UNL     1       4.253   5.099  18.951  0.00  0.00    +0.000 A 
ATOM      4  N   UNL     1       4.030   6.419  19.041  0.00  0.00    +0.000 NA
ATOM      5  C   UNL     1       2.823   6.825  19.393  0.00  0.00    +0.000 A 
ATOM      6  C   UNL     1       1.849   6.031  19.879  0.00  0.00    +0.000 A 
ATOM      7  C   UNL     1       2.152   4.704  20.052  0.00  0.00    +0.000 A 
ATOM      8  C   UNL     1       1.269   3.985  20.853  0.00  0.00    +0.000 A 
ATOM      9  C   UNL     1       1.161   2.619  20.706  0.00  0.00    +0.000 A 
ATOM     10  C   UNL     1       1.938   2.009  19.736  0.00  0.00    +0.000 A 
ATOM     11  C   UNL     1       3.017   2.727  19.118  0.00  0.00    +0.000 A 
ATOM     12  C   UNL     1       3.229   4.126  19.349  0.00  0.00    +0.000 A 
ENDBRANCH   1   3
BRANCH   1  16
ATOM     13  C   UNL     1       6.491   4.309  14.085  0.00  0.00    +0.000 A 
ATOM     14  C   UNL     1       5.337   3.825  14.706  0.00  0.00    +0.000 A 
ATOM     15  C   UNL     1       5.106   4.006  16.096  0.00  0.00    +0.000 A 
ATOM     16  C   UNL     1       6.026   4.670  16.926  0.00  0.00    +0.000 A 
ATOM     17  C   UNL     1       7.190   5.131  16.265  0.00  0.00    +0.000 A 
ATOM     18  C   UNL     1       7.424   4.957  14.879  0.00  0.00    +0.000 A 
BRANCH  13  20
ATOM     19  C   UNL     1       5.651   3.166  12.146  0.00  0.00    +0.000 C 
ATOM     20  O   UNL     1       6.609   4.041  12.747  0.00  0.00    +0.000 OA
ENDBRANCH  13  20
ENDBRANCH   1  16
TORSDOF 3
ENDMDL
MODEL 4
REMARK VINA RESULT:      -7.3      3.271      5.864
REMARK  Name = 
REMARK  4 active torsions:
REMARK  status: ('A' for Active; 'I' for Inactive)
REMARK    1  A    between atoms: C_1  and  O_2
REMARK    2  A    between atoms: O_2  and  C_3
REMARK    3  A    between atoms: C_6  and  C_7
REMARK    4  A    between atoms: C_7  and  C_9
REMARK                            x       y       z     vdW  Elec       q    Type
REMARK                         _______ _______ _______ _____ _____    ______ ____
ROOT
ATOM      1  C   UNL     1       3.536   5.340  19.141  0.00  0.00    +0.000 C 
ATOM      2  O   UNL     1       2.946   4.344  19.557  0.00  0.00    +0.000 OA
ENDROOT
BRANCH   1   3
ATOM      3  C   UNL     1       4.957   5.183  18.608  0.00  0.00    +0.000 A 
ATOM      4  N   UNL     1       5.847   5.503  19.560  0.00  0.00    +0.000 NA
ATOM      5  C   UNL     1       7.131   5.354  19.289  0.00  0.00    +0.000 A 
ATOM      6  C   UNL     1       7.643   5.113  18.066  0.00  0.00    +0.000 A 
ATOM      7  C   UNL     1       6.757   5.051  17.019  0.00  0.00    +0.000 A 
ATOM      8  C   UNL     1       7.321   5.138  15.749  0.00  0.00    +0.000 A 
ATOM      9  C   UNL     1       6.660   4.607  14.663  0.00  0.00    +0.000 A 
ATOM     10  C   UNL     1       5.446   3.980  14.888  0.00  0.00    +0.000 A 
ATOM     11  C   UNL     1       4.774   4.138  16.147  0.00  0.00    +0.000 A 
ATOM     12  C   UNL     1       5.392   4.798  17.261  0.00  0.00    +0.000 A 
ENDBRANCH   1   3
BRANCH   1  16
ATOM     13  C   UNL     1       1.363   9.245  18.934  0.00  0.00    +0.000 A 
ATOM     14  C   UNL     1       2.092   8.723  17.863  0.00  0.00    +0.000 A 
ATOM     15  C   UNL     1       2.775   7.481  17.960  0.00  0.00    +0.000 A 
ATOM     16  C   UNL     1       2.765   6.714  19.138  0.00  0.00    +0.000 A 
ATOM     17  C   UNL     1       2.031   7.283  20.207  0.00  0.00    +0.000 A 
ATOM     18  C   UNL     1       1.345   8.519  20.114  0.00  0.00    +0.000 A 
BRANCH  13  20
ATOM     19  C   UNL     1      -0.623  10.505  18.445  0.00  0.00    +0.000 C 
ATOM     20  O   UNL     1       0.778  10.466  18.723  0.00  0.00    +0.000 OA
ENDBRANCH  13  20
ENDBRANCH   1  16
TORSDOF 3
ENDMDL
MODEL 5
REMARK VINA RESULT:      -7.2      3.237      5.921
REMARK  Name = 
REMARK  4 active torsions:
REMARK  status: ('A' for Active; 'I' for Inactive)
REMARK    1  A    between atoms: C_1  and  O_2
REMARK    2  A    between atoms: O_2  and  C_3
REMARK    3  A    between atoms: C_6  and  C_7
REMARK    4  A    between atoms: C_7  and  C_9
REMARK                            x       y       z     vdW  Elec       q    Type
REMARK                         _______ _______ _______ _____ _____    ______ ____
ROOT
ATOM      1  C   UNL     1       3.713   5.376  19.289  0.00  0.00    +0.000 C 
ATOM      2  O   UNL     1       3.186   4.459  19.917  0.00  0.00    +0.000 OA
ENDROOT
BRANCH   1   3
ATOM      3  C   UNL     1       5.097   5.156  18.689  0.00  0.00    +0.000 A 
ATOM      4  N   UNL     1       6.044   5.389  19.611  0.00  0.00    +0.000 NA
ATOM      5  C   UNL     1       7.305   5.175  19.280  0.00  0.00    +0.000 A 
ATOM      6  C   UNL     1       7.750   4.949  18.028  0.00  0.00    +0.000 A 
ATOM      7  C   UNL     1       6.819   4.976  17.019  0.00  0.00    +0.000 A 
ATOM      8  C   UNL     1       7.334   5.075  15.730  0.00  0.00    +0.000 A 
ATOM      9  C   UNL     1       6.597   4.623  14.657  0.00  0.00    +0.000 A 
ATOM     10  C   UNL     1       5.359   4.060  14.914  0.00  0.00    +0.000 A 
ATOM     11  C   UNL     1       4.750   4.212  16.206  0.00  0.00    +0.000 A 
ATOM     12  C   UNL     1       5.452   4.794  17.312  0.00  0.00    +0.000 A 
ENDBRANCH   1   3
BRANCH   1  16
ATOM     13  C   UNL     1       1.369   9.172  18.953  0.00  0.00    +0.000 A 
ATOM     14  C   UNL     1       1.374   8.381  20.104  0.00  0.00    +0.000 A 
ATOM     15  C   UNL     1       2.126   7.178  20.179  0.00  0.00    +0.000 A 
ATOM     16  C   UNL     1       2.898   6.711  19.101  0.00  0.00    +0.000 A 
ATOM     17  C   UNL     1       2.854   7.530  17.946  0.00  0.00    +0.000 A 
ATOM     18  C   UNL     1       2.109   8.731  17.867  0.00  0.00    +0.000 A 
BRANCH  13  20
ATOM     19  C   UNL     1      -0.390  10.391  20.044  0.00  0.00    +0.000 C 
ATOM     20  O   UNL     1       0.577  10.289  18.997  0.00  0.00    +0.000 OA
ENDBRANCH  13  20
ENDBRANCH   1  16
TORSDOF 3
ENDMDL
MODEL 6
REMARK VINA RESULT:      -7.2      3.490      4.870
REMARK  Name = 
REMARK  4 active torsions:
REMARK  status: ('A' for Active; 'I' for Inactive)
REMARK    1  A    between atoms: C_1  and  O_2
REMARK    2  A    between atoms: O_2  and  C_3
REMARK    3  A    between atoms: C_6  and  C_7
REMARK    4  A    between atoms: C_7  and  C_9
REMARK                            x       y       z     vdW  Elec       q    Type
REMARK                         _______ _______ _______ _____ _____    ______ ____
ROOT
ATOM      1  C   UNL     1       3.541   6.637  18.051  0.00  0.00    +0.000 C 
ATOM      2  O   UNL     1       4.573   7.051  17.523  0.00  0.00    +0.000 OA
ENDROOT
BRANCH   1   3
ATOM      3  C   UNL     1       3.334   5.131  18.176  0.00  0.00    +0.000 A 
ATOM      4  N   UNL     1       3.665   4.521  17.028  0.00  0.00    +0.000 NA
ATOM      5  C   UNL     1       3.613   3.202  16.984  0.00  0.00    +0.000 A 
ATOM      6  C   UNL     1       3.049   2.417  17.924  0.00  0.00    +0.000 A 
ATOM      7  C   UNL     1       2.456   3.046  18.990  0.00  0.00    +0.000 A 
ATOM      8  C   UNL     1       1.605   2.255  19.757  0.00  0.00    +0.000 A 
ATOM      9  C   UNL     1       1.358   2.582  21.072  0.00  0.00    +0.000 A 
ATOM     10  C   UNL     1       1.994   3.697  21.592  0.00  0.00    +0.000 A 
ATOM     11  C   UNL     1       2.645   4.630  20.716  0.00  0.00    +0.000 A 
ATOM     12  C   UNL     1       2.808   4.371  19.316  0.00  0.00    +0.000 A 
ENDBRANCH   1   3
BRANCH   1  16
ATOM     13  C   UNL     1       0.588   9.691  19.453  0.00  0.00    +0.000 A 
ATOM     14  C   UNL     1       1.054   9.632  18.137  0.00  0.00    +0.000 A 
ATOM     15  C   UNL     1       1.996   8.652  17.723  0.00  0.00    +0.000 A 
ATOM     16  C   UNL     1       2.518   7.695  18.611  0.00  0.00    +0.000 A 
ATOM     17  C   UNL     1       2.034   7.796  19.938  0.00  0.00    +0.000 A 
ATOM     18  C   UNL     1       1.093   8.769  20.356  0.00  0.00    +0.000 A 
BRANCH  13  20
ATOM     19  C   UNL     1      -1.340  10.965  18.795  0.00  0.00    +0.000 C 
ATOM     20  O   UNL     1      -0.292  10.703  19.732  0.00  0.00    +0.000 OA
ENDBRANCH  13  20
ENDBRANCH   1  16
TORSDOF 3
ENDMDL
MODEL 7
REMARK VINA RESULT:      -7.2      2.439      4.155
REMARK  Name = 
REMARK  4 active torsions:
REMARK  status: ('A' for Active; 'I' for Inactive)
REMARK    1  A    between atoms: C_1  and  O_2
REMARK    2  A    between atoms: O_2  and  C_3
REMARK    3  A    between atoms: C_6  and  C_7
REMARK    4  A    between atoms: C_7  and  C_9
REMARK                            x       y       z     vdW  Elec       q    Type
REMARK                         _______ _______ _______ _____ _____    ______ ____
ROOT
ATOM      1  C   UNL     1       5.522   4.848  18.494  0.00  0.00    +0.000 C 
ATOM      2  O   UNL     1       6.477   4.853  19.271  0.00  0.00    +0.000 OA
ENDROOT
BRANCH   1   3
ATOM      3  C   UNL     1       4.119   5.052  19.054  0.00  0.00    +0.000 A 
ATOM      4  N   UNL     1       3.925   6.345  19.358  0.00  0.00    +0.000 NA
ATOM      5  C   UNL     1       2.732   6.712  19.791  0.00  0.00    +0.000 A 
ATOM      6  C   UNL     1       1.748   5.869  20.162  0.00  0.00    +0.000 A 
ATOM      7  C   UNL     1       2.025   4.525  20.115  0.00  0.00    +0.000 A 
ATOM      8  C   UNL     1       1.139   3.705  20.806  0.00  0.00    +0.000 A 
ATOM      9  C   UNL     1       1.000   2.382  20.445  0.00  0.00    +0.000 A 
ATOM     10  C   UNL     1       1.750   1.921  19.376  0.00  0.00    +0.000 A 
ATOM     11  C   UNL     1       2.835   2.708  18.862  0.00  0.00    +0.000 A 
ATOM     12  C   UNL     1       3.080   4.048  19.310  0.00  0.00    +0.000 A 
ENDBRANCH   1   3
BRANCH   1  16
ATOM     13  C   UNL     1       6.556   4.400  14.165  0.00  0.00    +0.000 A 
ATOM     14  C   UNL     1       7.437   4.941  15.105  0.00  0.00    +0.000 A 
ATOM     15  C   UNL     1       7.078   5.073  16.473  0.00  0.00    +0.000 A 
ATOM     16  C   UNL     1       5.818   4.679  16.956  0.00  0.00    +0.000 A 
ATOM     17  C   UNL     1       4.947   4.153  15.971  0.00  0.00    +0.000 A 
ATOM     18  C   UNL     1       5.301   4.015  14.607  0.00  0.00    +0.000 A 
BRANCH  13  20
ATOM     19  C   UNL     1       6.509   3.331  12.014  0.00  0.00    +0.000 C 
ATOM     20  O   UNL     1       7.011   4.358  12.873  0.00  0.00    +0.000 OA
ENDBRANCH  13  20
ENDBRANCH   1  16
TORSDOF 3
ENDMDL
MODEL 8
REMARK VINA RESULT:      -7.1      3.650      5.534
REMARK  Name = 
REMARK  4 active torsions:
REMARK  status: ('A' for Active; 'I' for Inactive)
REMARK    1  A    between atoms: C_1  and  O_2
REMARK    2  A    between atoms: O_2  and  C_3
REMARK    3  A    between atoms: C_6  and  C_7
REMARK    4  A    between atoms: C_7  and  C_9
REMARK                            x       y       z     vdW  Elec       q    Type
REMARK                         _______ _______ _______ _____ _____    ______ ____
ROOT
ATOM      1  C   UNL     1       2.902   7.188  18.357  0.00  0.00    +0.000 C 
ATOM      2  O   UNL     1       3.246   7.688  17.287  0.00  0.00    +0.000 OA
ENDROOT
BRANCH   1   3
ATOM      3  C   UNL     1       3.426   5.804  18.724  0.00  0.00    +0.000 A 
ATOM      4  N   UNL     1       4.766   5.783  18.654  0.00  0.00    +0.000 NA
ATOM      5  C   UNL     1       5.393   4.677  19.010  0.00  0.00    +0.000 A 
ATOM      6  C   UNL     1       4.799   3.487  19.235  0.00  0.00    +0.000 A 
ATOM      7  C   UNL     1       3.441   3.421  19.045  0.00  0.00    +0.000 A 
ATOM      8  C   UNL     1       2.910   2.138  18.954  0.00  0.00    +0.000 A 
ATOM      9  C   UNL     1       1.585   1.917  19.262  0.00  0.00    +0.000 A 
ATOM     10  C   UNL     1       0.828   3.000  19.675  0.00  0.00    +0.000 A 
ATOM     11  C   UNL     1       1.326   4.336  19.505  0.00  0.00    +0.000 A 
ATOM     12  C   UNL     1       2.665   4.598  19.066  0.00  0.00    +0.000 A 
ENDBRANCH   1   3
BRANCH   1  16
ATOM     13  C   UNL     1       0.199   9.690  20.897  0.00  0.00    +0.000 A 
ATOM     14  C   UNL     1       0.477   9.988  19.561  0.00  0.00    +0.000 A 
ATOM     15  C   UNL     1       1.343   9.176  18.781  0.00  0.00    +0.000 A 
ATOM     16  C   UNL     1       1.975   8.036  19.308  0.00  0.00    +0.000 A 
ATOM     17  C   UNL     1       1.681   7.776  20.669  0.00  0.00    +0.000 A 
ATOM     18  C   UNL     1       0.817   8.580  21.450  0.00  0.00    +0.000 A 
BRANCH  13  20
ATOM     19  C   UNL     1      -0.779  10.432  22.962  0.00  0.00    +0.000 C 
ATOM     20  O   UNL     1      -0.625  10.570  21.548  0.00  0.00    +0.000 OA
ENDBRANCH  13  20
ENDBRANCH   1  16
TORSDOF 3
ENDMDL
MODEL 9
REMARK VINA RESULT:      -7.1      3.438      4.926
REMARK  Name = 
REMARK  4 active torsions:
REMARK  status: ('A' for Active; 'I' for Inactive)
REMARK    1  A    between atoms: C_1  and  O_2
REMARK    2  A    between atoms: O_2  and  C_3
REMARK    3  A    between atoms: C_6  and  C_7
REMARK    4  A    between atoms: C_7  and  C_9
REMARK                            x       y       z     vdW  Elec       q    Type
REMARK                         _______ _______ _______ _____ _____    ______ ____
ROOT
ATOM      1  C   UNL     1       3.477   6.621  18.058  0.00  0.00    +0.000 C 
ATOM      2  O   UNL     1       4.561   6.995  17.611  0.00  0.00    +0.000 OA
ENDROOT
BRANCH   1   3
ATOM      3  C   UNL     1       3.211   5.124  18.179  0.00  0.00    +0.000 A 
ATOM      4  N   UNL     1       3.436   4.517  17.003  0.00  0.00    +0.000 NA
ATOM      5  C   UNL     1       3.321   3.203  16.947  0.00  0.00    +0.000 A 
ATOM      6  C   UNL     1       2.787   2.429  17.913  0.00  0.00    +0.000 A 
ATOM      7  C   UNL     1       2.296   3.067  19.025  0.00  0.00    +0.000 A 
ATOM      8  C   UNL     1       1.464   2.303  19.837  0.00  0.00    +0.000 A 
ATOM      9  C   UNL     1       1.320   2.620  21.170  0.00  0.00    +0.000 A 
ATOM     10  C   UNL     1       2.039   3.698  21.659  0.00  0.00    +0.000 A 
ATOM     11  C   UNL     1       2.672   4.615  20.754  0.00  0.00    +0.000 A 
ATOM     12  C   UNL     1       2.729   4.370  19.342  0.00  0.00    +0.000 A 
ENDBRANCH   1   3
BRANCH   1  16
ATOM     13  C   UNL     1       0.602   9.691  19.580  0.00  0.00    +0.000 A 
ATOM     14  C   UNL     1       1.167   8.708  20.396  0.00  0.00    +0.000 A 
ATOM     15  C   UNL     1       2.075   7.744  19.882  0.00  0.00    +0.000 A 
ATOM     16  C   UNL     1       2.448   7.717  18.527  0.00  0.00    +0.000 A 
ATOM     17  C   UNL     1       1.842   8.717  17.729  0.00  0.00    +0.000 A 
ATOM     18  C   UNL     1       0.939   9.683  18.236  0.00  0.00    +0.000 A 
BRANCH  13  20
ATOM     19  C   UNL     1      -0.127  10.790  21.588  0.00  0.00    +0.000 C 
ATOM     20  O   UNL     1      -0.284  10.540  20.190  0.00  0.00    +0.000 OA
ENDBRANCH  13  20
ENDBRANCH   1  16
TORSDOF 3
ENDMDL
