MODEL 1
REMARK VINA RESULT:      -7.5      0.000      0.000
REMARK  Name = 
REMARK  7 active torsions:
REMARK  status: ('A' for Active; 'I' for Inactive)
REMARK    1  A    between atoms: C_1  and  C_2
REMARK    2  A    between atoms: C_3  and  C_4
REMARK    3  A    between atoms: C_15  and  C_16
REMARK    4  A    between atoms: C_18  and  C_19
REMARK    5  A    between atoms: N_20  and  C_21
REMARK    6  A    between atoms: C_26  and  C_27
REMARK    7  A    between atoms: C_31  and  C_32
REMARK                            x       y       z     vdW  Elec       q    Type
REMARK                         _______ _______ _______ _____ _____    ______ ____
ROOT
ATOM      1  C   UNL     1      -3.275  16.198  24.618  0.00  0.00    +0.000 C 
ATOM      2  C   UNL     1      -2.570  15.109  23.872  0.00  0.00    +0.000 C 
ATOM      3  C   UNL     1      -2.890  13.798  23.796  0.00  0.00    +0.000 C 
ATOM      4  C   UNL     1      -1.768  13.214  23.025  0.00  0.00    +0.000 C 
ATOM      5  O   UNL     1      -1.422  12.052  23.045  0.00  0.00    +0.000 OA
ATOM      6  C   UNL     1      -1.098  14.361  22.338  0.00  0.00    +0.000 C 
ATOM      7  C   UNL     1      -0.472  14.279  21.154  0.00  0.00    +0.000 C 
ATOM      8  N   UNL     1      -1.458  15.448  23.097  0.00  0.00    +0.000 N 
ATOM      9  H   UNL     1      -1.374  16.385  22.721  0.00  0.00    +0.000 HD
ENDROOT
BRANCH   3  10
ATOM     10  C   UNL     1      -4.085  13.088  24.319  0.00  0.00    +0.000 C 
ATOM     11  O   UNL     1      -4.054  12.642  25.469  0.00  0.00    +0.000 OA
ATOM     12  N   UNL     1      -5.259  13.049  23.561  0.00  0.00    +0.000 N 
ATOM     13  C   UNL     1      -5.391  13.354  22.126  0.00  0.00    +0.000 C 
ATOM     14  C   UNL     1      -6.768  13.910  21.755  0.00  0.00    +0.000 C 
ATOM     15  O   UNL     1      -7.831  13.100  22.259  0.00  0.00    +0.000 OA
ATOM     16  C   UNL     1      -7.732  12.988  23.686  0.00  0.00    +0.000 C 
ATOM     17  C   UNL     1      -6.415  12.314  24.094  0.00  0.00    +0.000 C 
ENDBRANCH   3  10
BRANCH   7  18
ATOM     18  C   UNL     1      -0.414  13.106  20.336  0.00  0.00    +0.000 A 
ATOM     19  C   UNL     1      -1.452  12.612  19.531  0.00  0.00    +0.000 A 
ATOM     20  C   UNL     1      -1.027  11.419  18.972  0.00  0.00    +0.000 A 
ATOM     21  C   UNL     1      -1.871  10.523  18.121  0.00  0.00    +0.000 C 
ATOM     22  N   UNL     1       0.272  11.145  19.447  0.00  0.00    +0.000 N 
ATOM     23  C   UNL     1       0.685  12.285  20.155  0.00  0.00    +0.000 A 
ATOM     24  C   UNL     1       2.072  12.578  20.616  0.00  0.00    +0.000 C 
BRANCH  22  25
ATOM     25  C   UNL     1       1.021   9.929  19.206  0.00  0.00    +0.000 A 
ATOM     26  C   UNL     1       1.686   9.800  17.968  0.00  0.00    +0.000 A 
ATOM     27  C   UNL     1       2.383   8.639  17.613  0.00  0.00    +0.000 A 
ATOM     28  C   UNL     1       2.497   7.599  18.516  0.00  0.00    +0.000 A 
ATOM     29  C   UNL     1       1.885   7.714  19.757  0.00  0.00    +0.000 A 
ATOM     30  C   UNL     1       1.103   8.846  20.114  0.00  0.00    +0.000 A 
BRANCH  30  31
ATOM     31  C   UNL     1       0.378   8.690  21.430  0.00  0.00    +0.000 C 
ATOM     32  F   UNL     1       1.069   9.065  22.520  0.00  0.00    +0.000 F 
ATOM     33  F   UNL     1      -0.769   9.436  21.470  0.00  0.00    +0.000 F 
ATOM     34  F   UNL     1      -0.035   7.407  21.640  0.00  0.00    +0.000 F 
ENDBRANCH  30  31
ENDBRANCH  22  25
ENDBRANCH   7  18
TORSDOF 4
ENDMDL
MODEL 2
REMARK VINA RESULT:      -7.4      1.515      1.720
REMARK  Name = 
REMARK  7 active torsions:
REMARK  status: ('A' for Active; 'I' for Inactive)
REMARK    1  A    between atoms: C_1  and  C_2
REMARK    2  A    between atoms: C_3  and  C_4
REMARK    3  A    between atoms: C_15  and  C_16
REMARK    4  A    between atoms: C_18  and  C_19
REMARK    5  A    between atoms: N_20  and  C_21
REMARK    6  A    between atoms: C_26  and  C_27
REMARK    7  A    between atoms: C_31  and  C_32
REMARK                            x       y       z     vdW  Elec       q    Type
REMARK                         _______ _______ _______ _____ _____    ______ ____
ROOT
ATOM      1  C   UNL     1      -3.103  17.513  21.753  0.00  0.00    +0.000 C 
ATOM      2  C   UNL     1      -2.396  16.238  21.415  0.00  0.00    +0.000 C 
ATOM      3  C   UNL     1      -2.627  14.995  21.893  0.00  0.00    +0.000 C 
ATOM      4  C   UNL     1      -1.544  14.187  21.288  0.00  0.00    +0.000 C 
ATOM      5  O   UNL     1      -1.115  13.137  21.719  0.00  0.00    +0.000 OA
ATOM      6  C   UNL     1      -1.025  14.987  20.136  0.00  0.00    +0.000 C 
ATOM      7  C   UNL     1      -0.508  14.462  19.014  0.00  0.00    +0.000 C 
ATOM      8  N   UNL     1      -1.388  16.274  20.447  0.00  0.00    +0.000 N 
ATOM      9  H   UNL     1      -1.407  16.989  19.729  0.00  0.00    +0.000 HD
ENDROOT
BRANCH   3  10
ATOM     10  C   UNL     1      -3.714  14.515  22.784  0.00  0.00    +0.000 C 
ATOM     11  O   UNL     1      -3.800  14.986  23.921  0.00  0.00    +0.000 OA
ATOM     12  N   UNL     1      -4.690  13.647  22.286  0.00  0.00    +0.000 N 
ATOM     13  C   UNL     1      -4.618  12.860  21.044  0.00  0.00    +0.000 C 
ATOM     14  C   UNL     1      -5.989  12.601  20.416  0.00  0.00    +0.000 C 
ATOM     15  O   UNL     1      -6.924  12.077  21.361  0.00  0.00    +0.000 OA
ATOM     16  C   UNL     1      -7.069  12.983  22.464  0.00  0.00    +0.000 C 
ATOM     17  C   UNL     1      -5.737  13.169  23.201  0.00  0.00    +0.000 C 
ENDBRANCH   3  10
BRANCH   7  18
ATOM     18  C   UNL     1      -0.443  13.063  18.717  0.00  0.00    +0.000 A 
ATOM     19  C   UNL     1      -1.480  12.288  18.176  0.00  0.00    +0.000 A 
ATOM     20  C   UNL     1      -1.048  10.974  18.123  0.00  0.00    +0.000 A 
ATOM     21  C   UNL     1      -1.888   9.813  17.694  0.00  0.00    +0.000 C 
ATOM     22  N   UNL     1       0.255  10.915  18.658  0.00  0.00    +0.000 N 
ATOM     23  C   UNL     1       0.662  12.243  18.864  0.00  0.00    +0.000 A 
ATOM     24  C   UNL     1       2.048  12.701  19.165  0.00  0.00    +0.000 C 
BRANCH  22  25
ATOM     25  C   UNL     1       1.013   9.706  18.905  0.00  0.00    +0.000 A 
ATOM     26  C   UNL     1       1.662   9.100  17.807  0.00  0.00    +0.000 A 
ATOM     27  C   UNL     1       2.367   7.896  17.928  0.00  0.00    +0.000 A 
ATOM     28  C   UNL     1       2.503   7.299  19.167  0.00  0.00    +0.000 A 
ATOM     29  C   UNL     1       1.906   7.892  20.272  0.00  0.00    +0.000 A 
ATOM     30  C   UNL     1       1.118   9.069  20.165  0.00  0.00    +0.000 A 
BRANCH  30  31
ATOM     31  C   UNL     1       0.413   9.444  21.447  0.00  0.00    +0.000 C 
ATOM     32  F   UNL     1       0.665   8.649  22.501  0.00  0.00    +0.000 F 
ATOM     33  F   UNL     1       0.755  10.701  21.868  0.00  0.00    +0.000 F 
ATOM     34  F   UNL     1      -0.942   9.486  21.293  0.00  0.00    +0.000 F 
ENDBRANCH  30  31
ENDBRANCH  22  25
ENDBRANCH   7  18
TORSDOF 4
ENDMDL
MODEL 3
REMARK VINA RESULT:      -6.8      4.374      7.084
REMARK  Name = 
REMARK  7 active torsions:
REMARK  status: ('A' for Active; 'I' for Inactive)
REMARK    1  A    between atoms: C_1  and  C_2
REMARK    2  A    between atoms: C_3  and  C_4
REMARK    3  A    between atoms: C_15  and  C_16
REMARK    4  A    between atoms: C_18  and  C_19
REMARK    5  A    between atoms: N_20  and  C_21
REMARK    6  A    between atoms: C_26  and  C_27
REMARK    7  A    between atoms: C_31  and  C_32
REMARK                            x       y       z     vdW  Elec       q    Type
REMARK                         _______ _______ _______ _____ _____    ______ ____
ROOT
ATOM      1  C   UNL     1      -0.479  13.794  21.326  0.00  0.00    +0.000 C 
ATOM      2  C   UNL     1       0.237  12.820  20.444  0.00  0.00    +0.000 C 
ATOM      3  C   UNL     1       1.538  12.816  20.077  0.00  0.00    +0.000 C 
ATOM      4  C   UNL     1       1.619  11.693  19.114  0.00  0.00    +0.000 C 
ATOM      5  O   UNL     1       2.461  11.559  18.251  0.00  0.00    +0.000 OA
ATOM      6  C   UNL     1       0.403  10.857  19.350  0.00  0.00    +0.000 C 
ATOM      7  C   UNL     1       0.344   9.528  19.165  0.00  0.00    +0.000 C 
ATOM      8  N   UNL     1      -0.477  11.726  19.947  0.00  0.00    +0.000 N 
ATOM      9  H   UNL     1      -1.277  11.373  20.459  0.00  0.00    +0.000 HD
ENDROOT
BRANCH   3  10
ATOM     10  C   UNL     1       2.648  13.688  20.535  0.00  0.00    +0.000 C 
ATOM     11  O   UNL     1       3.286  13.358  21.538  0.00  0.00    +0.000 OA
ATOM     12  N   UNL     1       3.036  14.786  19.761  0.00  0.00    +0.000 N 
ATOM     13  C   UNL     1       2.269  15.410  18.670  0.00  0.00    +0.000 C 
ATOM     14  C   UNL     1       3.157  16.051  17.601  0.00  0.00    +0.000 C 
ATOM     15  O   UNL     1       4.140  16.920  18.167  0.00  0.00    +0.000 OA
ATOM     16  C   UNL     1       4.960  16.197  19.096  0.00  0.00    +0.000 C 
ATOM     17  C   UNL     1       4.121  15.646  20.256  0.00  0.00    +0.000 C 
ENDBRANCH   3  10
BRANCH   7  18
ATOM     18  C   UNL     1       1.451   8.703  18.788  0.00  0.00    +0.000 A 
ATOM     19  C   UNL     1       2.232   8.852  17.632  0.00  0.00    +0.000 A 
ATOM     20  C   UNL     1       3.140   7.808  17.593  0.00  0.00    +0.000 A 
ATOM     21  C   UNL     1       4.097   7.546  16.474  0.00  0.00    +0.000 C 
ATOM     22  N   UNL     1       2.913   6.981  18.713  0.00  0.00    +0.000 N 
ATOM     23  C   UNL     1       1.975   7.650  19.517  0.00  0.00    +0.000 A 
ATOM     24  C   UNL     1       1.617   7.304  20.922  0.00  0.00    +0.000 C 
BRANCH  22  25
ATOM     25  C   UNL     1       3.561   5.713  18.972  0.00  0.00    +0.000 A 
ATOM     26  C   UNL     1       4.945   5.726  19.250  0.00  0.00    +0.000 A 
ATOM     27  C   UNL     1       5.676   4.549  19.452  0.00  0.00    +0.000 A 
ATOM     28  C   UNL     1       5.030   3.327  19.452  0.00  0.00    +0.000 A 
ATOM     29  C   UNL     1       3.662   3.287  19.219  0.00  0.00    +0.000 A 
ATOM     30  C   UNL     1       2.909   4.457  18.931  0.00  0.00    +0.000 A 
BRANCH  30  31
ATOM     31  C   UNL     1       1.480   4.174  18.529  0.00  0.00    +0.000 C 
ATOM     32  F   UNL     1       1.009   4.909  17.508  0.00  0.00    +0.000 F 
ATOM     33  F   UNL     1       1.312   2.875  18.132  0.00  0.00    +0.000 F 
ATOM     34  F   UNL     1       0.614   4.334  19.570  0.00  0.00    +0.000 F 
ENDBRANCH  30  31
ENDBRANCH  22  25
ENDBRANCH   7  18
TORSDOF 4
ENDMDL
MODEL 4
REMARK VINA RESULT:      -6.8      3.812      6.505
REMARK  Name = 
REMARK  7 active torsions:
REMARK  status: ('A' for Active; 'I' for Inactive)
REMARK    1  A    between atoms: C_1  and  C_2
REMARK    2  A    between atoms: C_3  and  C_4
REMARK    3  A    between atoms: C_15  and  C_16
REMARK    4  A    between atoms: C_18  and  C_19
REMARK    5  A    between atoms: N_20  and  C_21
REMARK    6  A    between atoms: C_26  and  C_27
REMARK    7  A    between atoms: C_31  and  C_32
REMARK                            x       y       z     vdW  Elec       q    Type
REMARK                         _______ _______ _______ _____ _____    ______ ____
ROOT
ATOM      1  C   UNL     1      -1.357  12.272  23.135  0.00  0.00    +0.000 C 
ATOM      2  C   UNL     1      -0.932  11.225  22.153  0.00  0.00    +0.000 C 
ATOM      3  C   UNL     1      -0.778  11.340  20.815  0.00  0.00    +0.000 C 
ATOM      4  C   UNL     1      -0.467   9.958  20.385  0.00  0.00    +0.000 C 
ATOM      5  O   UNL     1      -0.634   9.506  19.272  0.00  0.00    +0.000 OA
ATOM      6  C   UNL     1      -0.036   9.228  21.617  0.00  0.00    +0.000 C 
ATOM      7  C   UNL     1       0.848   8.218  21.635  0.00  0.00    +0.000 C 
ATOM      8  N   UNL     1      -0.594   9.959  22.637  0.00  0.00    +0.000 N 
ATOM      9  H   UNL     1      -0.251   9.859  23.586  0.00  0.00    +0.000 HD
ENDROOT
BRANCH   3  10
ATOM     10  C   UNL     1      -0.860  12.550  19.958  0.00  0.00    +0.000 C 
ATOM     11  O   UNL     1      -1.972  12.988  19.655  0.00  0.00    +0.000 OA
ATOM     12  N   UNL     1       0.306  13.243  19.618  0.00  0.00    +0.000 N 
ATOM     13  C   UNL     1       1.689  12.750  19.734  0.00  0.00    +0.000 C 
ATOM     14  C   UNL     1       2.706  13.866  19.980  0.00  0.00    +0.000 C 
ATOM     15  O   UNL     1       2.567  14.939  19.047  0.00  0.00    +0.000 OA
ATOM     16  C   UNL     1       1.240  15.481  19.114  0.00  0.00    +0.000 C 
ATOM     17  C   UNL     1       0.194  14.421  18.745  0.00  0.00    +0.000 C 
ENDBRANCH   3  10
BRANCH   7  18
ATOM     18  C   UNL     1       1.566   7.736  20.494  0.00  0.00    +0.000 A 
ATOM     19  C   UNL     1       2.009   8.513  19.412  0.00  0.00    +0.000 A 
ATOM     20  C   UNL     1       2.581   7.662  18.483  0.00  0.00    +0.000 A 
ATOM     21  C   UNL     1       3.095   8.080  17.141  0.00  0.00    +0.000 C 
ATOM     22  N   UNL     1       2.474   6.341  18.965  0.00  0.00    +0.000 N 
ATOM     23  C   UNL     1       1.992   6.437  20.281  0.00  0.00    +0.000 A 
ATOM     24  C   UNL     1       1.962   5.338  21.287  0.00  0.00    +0.000 C 
BRANCH  22  25
ATOM     25  C   UNL     1       2.831   5.143  18.235  0.00  0.00    +0.000 A 
ATOM     26  C   UNL     1       1.785   4.308  17.789  0.00  0.00    +0.000 A 
ATOM     27  C   UNL     1       2.026   3.096  17.130  0.00  0.00    +0.000 A 
ATOM     28  C   UNL     1       3.322   2.719  16.835  0.00  0.00    +0.000 A 
ATOM     29  C   UNL     1       4.371   3.539  17.228  0.00  0.00    +0.000 A 
ATOM     30  C   UNL     1       4.160   4.733  17.969  0.00  0.00    +0.000 A 
BRANCH  30  31
ATOM     31  C   UNL     1       5.437   5.379  18.453  0.00  0.00    +0.000 C 
ATOM     32  F   UNL     1       5.725   6.574  17.910  0.00  0.00    +0.000 F 
ATOM     33  F   UNL     1       5.412   5.606  19.803  0.00  0.00    +0.000 F 
ATOM     34  F   UNL     1       6.523   4.577  18.256  0.00  0.00    +0.000 F 
ENDBRANCH  30  31
ENDBRANCH  22  25
ENDBRANCH   7  18
TORSDOF 4
ENDMDL
MODEL 5
REMARK VINA RESULT:      -6.8      5.048     10.378
REMARK  Name = 
REMARK  7 active torsions:
REMARK  status: ('A' for Active; 'I' for Inactive)
REMARK    1  A    between atoms: C_1  and  C_2
REMARK    2  A    between atoms: C_3  and  C_4
REMARK    3  A    between atoms: C_15  and  C_16
REMARK    4  A    between atoms: C_18  and  C_19
REMARK    5  A    between atoms: N_20  and  C_21
REMARK    6  A    between atoms: C_26  and  C_27
REMARK    7  A    between atoms: C_31  and  C_32
REMARK                            x       y       z     vdW  Elec       q    Type
REMARK                         _______ _______ _______ _____ _____    ______ ____
ROOT
ATOM      1  C   UNL     1       2.730   2.156  20.004  0.00  0.00    +0.000 C 
ATOM      2  C   UNL     1       2.780   3.650  19.927  0.00  0.00    +0.000 C 
ATOM      3  C   UNL     1       3.262   4.425  18.931  0.00  0.00    +0.000 C 
ATOM      4  C   UNL     1       3.151   5.797  19.478  0.00  0.00    +0.000 C 
ATOM      5  O   UNL     1       3.801   6.757  19.123  0.00  0.00    +0.000 OA
ATOM      6  C   UNL     1       2.183   5.711  20.615  0.00  0.00    +0.000 C 
ATOM      7  C   UNL     1       1.366   6.706  20.997  0.00  0.00    +0.000 C 
ATOM      8  N   UNL     1       2.226   4.387  20.977  0.00  0.00    +0.000 N 
ATOM      9  H   UNL     1       1.483   3.985  21.536  0.00  0.00    +0.000 HD
ENDROOT
BRANCH   3  10
ATOM     10  C   UNL     1       3.759   4.032  17.588  0.00  0.00    +0.000 C 
ATOM     11  O   UNL     1       2.939   3.714  16.722  0.00  0.00    +0.000 OA
ATOM     12  N   UNL     1       5.118   4.152  17.285  0.00  0.00    +0.000 N 
ATOM     13  C   UNL     1       6.222   4.323  18.244  0.00  0.00    +0.000 C 
ATOM     14  C   UNL     1       7.405   5.104  17.667  0.00  0.00    +0.000 C 
ATOM     15  O   UNL     1       7.830   4.584  16.405  0.00  0.00    +0.000 OA
ATOM     16  C   UNL     1       6.742   4.608  15.471  0.00  0.00    +0.000 C 
ATOM     17  C   UNL     1       5.582   3.728  15.955  0.00  0.00    +0.000 C 
ENDBRANCH   3  10
BRANCH   7  18
ATOM     18  C   UNL     1       1.243   7.967  20.331  0.00  0.00    +0.000 A 
ATOM     19  C   UNL     1       1.792   8.296  19.083  0.00  0.00    +0.000 A 
ATOM     20  C   UNL     1       1.521   9.630  18.835  0.00  0.00    +0.000 A 
ATOM     21  C   UNL     1       2.013  10.399  17.650  0.00  0.00    +0.000 C 
ATOM     22  N   UNL     1       0.822  10.153  19.943  0.00  0.00    +0.000 N 
ATOM     23  C   UNL     1       0.523   9.062  20.775  0.00  0.00    +0.000 A 
ATOM     24  C   UNL     1      -0.424   9.069  21.926  0.00  0.00    +0.000 C 
BRANCH  22  25
ATOM     25  C   UNL     1       0.467  11.543  20.139  0.00  0.00    +0.000 A 
ATOM     26  C   UNL     1       1.288  12.319  20.986  0.00  0.00    +0.000 A 
ATOM     27  C   UNL     1       0.996  13.653  21.291  0.00  0.00    +0.000 A 
ATOM     28  C   UNL     1      -0.088  14.274  20.699  0.00  0.00    +0.000 A 
ATOM     29  C   UNL     1      -0.892  13.547  19.831  0.00  0.00    +0.000 A 
ATOM     30  C   UNL     1      -0.667  12.169  19.567  0.00  0.00    +0.000 A 
BRANCH  30  31
ATOM     31  C   UNL     1      -1.758  11.524  18.744  0.00  0.00    +0.000 C 
ATOM     32  F   UNL     1      -1.707  11.766  17.424  0.00  0.00    +0.000 F 
ATOM     33  F   UNL     1      -1.736  10.160  18.851  0.00  0.00    +0.000 F 
ATOM     34  F   UNL     1      -3.002  11.887  19.170  0.00  0.00    +0.000 F 
ENDBRANCH  30  31
ENDBRANCH  22  25
ENDBRANCH   7  18
TORSDOF 4
ENDMDL
MODEL 6
REMARK VINA RESULT:      -6.7      6.702      8.942
REMARK  Name = 
REMARK  7 active torsions:
REMARK  status: ('A' for Active; 'I' for Inactive)
REMARK    1  A    between atoms: C_1  and  C_2
REMARK    2  A    between atoms: C_3  and  C_4
REMARK    3  A    between atoms: C_15  and  C_16
REMARK    4  A    between atoms: C_18  and  C_19
REMARK    5  A    between atoms: N_20  and  C_21
REMARK    6  A    between atoms: C_26  and  C_27
REMARK    7  A    between atoms: C_31  and  C_32
REMARK                            x       y       z     vdW  Elec       q    Type
REMARK                         _______ _______ _______ _____ _____    ______ ____
ROOT
ATOM      1  C   UNL     1       1.156  16.219  18.593  0.00  0.00    +0.000 C 
ATOM      2  C   UNL     1       2.470  15.816  19.184  0.00  0.00    +0.000 C 
ATOM      3  C   UNL     1       2.959  14.571  19.381  0.00  0.00    +0.000 C 
ATOM      4  C   UNL     1       4.230  14.810  20.101  0.00  0.00    +0.000 C 
ATOM      5  O   UNL     1       4.802  14.013  20.814  0.00  0.00    +0.000 OA
ATOM      6  C   UNL     1       4.574  16.247  19.868  0.00  0.00    +0.000 C 
ATOM      7  C   UNL     1       5.825  16.731  19.810  0.00  0.00    +0.000 C 
ATOM      8  N   UNL     1       3.367  16.822  19.555  0.00  0.00    +0.000 N 
ATOM      9  H   UNL     1       3.334  17.721  19.090  0.00  0.00    +0.000 HD
ENDROOT
BRANCH   3  10
ATOM     10  C   UNL     1       2.399  13.263  18.958  0.00  0.00    +0.000 C 
ATOM     11  O   UNL     1       2.950  12.650  18.040  0.00  0.00    +0.000 OA
ATOM     12  N   UNL     1       1.349  12.688  19.681  0.00  0.00    +0.000 N 
ATOM     13  C   UNL     1       0.476  13.364  20.654  0.00  0.00    +0.000 C 
ATOM     14  C   UNL     1      -0.047  12.428  21.746  0.00  0.00    +0.000 C 
ATOM     15  O   UNL     1      -0.622  11.237  21.205  0.00  0.00    +0.000 OA
ATOM     16  C   UNL     1       0.346  10.542  20.405  0.00  0.00    +0.000 C 
ATOM     17  C   UNL     1       0.799  11.404  19.220  0.00  0.00    +0.000 C 
ENDBRANCH   3  10
BRANCH   7  18
ATOM     18  C   UNL     1       7.015  15.939  19.887  0.00  0.00    +0.000 A 
ATOM     19  C   UNL     1       7.686  15.576  21.065  0.00  0.00    +0.000 A 
ATOM     20  C   UNL     1       8.832  14.888  20.708  0.00  0.00    +0.000 A 
ATOM     21  C   UNL     1       9.875  14.405  21.666  0.00  0.00    +0.000 C 
ATOM     22  N   UNL     1       8.900  14.840  19.300  0.00  0.00    +0.000 N 
ATOM     23  C   UNL     1       7.682  15.354  18.826  0.00  0.00    +0.000 A 
ATOM     24  C   UNL     1       7.178  15.266  17.426  0.00  0.00    +0.000 C 
BRANCH  22  25
ATOM     25  C   UNL     1      10.010  14.326  18.524  0.00  0.00    +0.000 A 
ATOM     26  C   UNL     1      11.004  15.239  18.112  0.00  0.00    +0.000 A 
ATOM     27  C   UNL     1      12.082  14.855  17.306  0.00  0.00    +0.000 A 
ATOM     28  C   UNL     1      12.237  13.529  16.948  0.00  0.00    +0.000 A 
ATOM     29  C   UNL     1      11.295  12.601  17.371  0.00  0.00    +0.000 A 
ATOM     30  C   UNL     1      10.147  12.976  18.121  0.00  0.00    +0.000 A 
BRANCH  30  31
ATOM     31  C   UNL     1       9.160  11.850  18.320  0.00  0.00    +0.000 C 
ATOM     32  F   UNL     1       9.583  10.633  17.938  0.00  0.00    +0.000 F 
ATOM     33  F   UNL     1       8.816  11.703  19.637  0.00  0.00    +0.000 F 
ATOM     34  F   UNL     1       7.980  12.084  17.677  0.00  0.00    +0.000 F 
ENDBRANCH  30  31
ENDBRANCH  22  25
ENDBRANCH   7  18
TORSDOF 4
ENDMDL
MODEL 7
REMARK VINA RESULT:      -6.6      3.874      5.916
REMARK  Name = 
REMARK  7 active torsions:
REMARK  status: ('A' for Active; 'I' for Inactive)
REMARK    1  A    between atoms: C_1  and  C_2
REMARK    2  A    between atoms: C_3  and  C_4
REMARK    3  A    between atoms: C_15  and  C_16
REMARK    4  A    between atoms: C_18  and  C_19
REMARK    5  A    between atoms: N_20  and  C_21
REMARK    6  A    between atoms: C_26  and  C_27
REMARK    7  A    between atoms: C_31  and  C_32
REMARK                            x       y       z     vdW  Elec       q    Type
REMARK                         _______ _______ _______ _____ _____    ______ ____
ROOT
ATOM      1  C   UNL     1      -0.430  13.615  18.607  0.00  0.00    +0.000 C 
ATOM      2  C   UNL     1      -0.264  12.200  19.063  0.00  0.00    +0.000 C 
ATOM      3  C   UNL     1      -1.039  11.129  18.783  0.00  0.00    +0.000 C 
ATOM      4  C   UNL     1      -0.446  10.050  19.607  0.00  0.00    +0.000 C 
ATOM      5  O   UNL     1      -1.018   9.048  19.981  0.00  0.00    +0.000 OA
ATOM      6  C   UNL     1       0.927  10.516  19.972  0.00  0.00    +0.000 C 
ATOM      7  C   UNL     1       1.978   9.705  20.175  0.00  0.00    +0.000 C 
ATOM      8  N   UNL     1       0.851  11.881  19.845  0.00  0.00    +0.000 N 
ATOM      9  H   UNL     1       1.694  12.436  19.767  0.00  0.00    +0.000 HD
ENDROOT
BRANCH   3  10
ATOM     10  C   UNL     1      -2.191  11.018  17.853  0.00  0.00    +0.000 C 
ATOM     11  O   UNL     1      -2.042  10.401  16.795  0.00  0.00    +0.000 OA
ATOM     12  N   UNL     1      -3.448  11.492  18.241  0.00  0.00    +0.000 N 
ATOM     13  C   UNL     1      -3.738  12.404  19.360  0.00  0.00    +0.000 C 
ATOM     14  C   UNL     1      -5.125  12.187  19.969  0.00  0.00    +0.000 C 
ATOM     15  O   UNL     1      -6.152  12.168  18.976  0.00  0.00    +0.000 OA
ATOM     16  C   UNL     1      -5.888  11.138  18.014  0.00  0.00    +0.000 C 
ATOM     17  C   UNL     1      -4.562  11.392  17.287  0.00  0.00    +0.000 C 
ENDBRANCH   3  10
BRANCH   7  18
ATOM     18  C   UNL     1       1.963   8.284  20.001  0.00  0.00    +0.000 A 
ATOM     19  C   UNL     1       1.614   7.340  20.979  0.00  0.00    +0.000 A 
ATOM     20  C   UNL     1       1.811   6.079  20.443  0.00  0.00    +0.000 A 
ATOM     21  C   UNL     1       1.644   4.794  21.191  0.00  0.00    +0.000 C 
ATOM     22  N   UNL     1       2.312   6.228  19.133  0.00  0.00    +0.000 N 
ATOM     23  C   UNL     1       2.239   7.598  18.832  0.00  0.00    +0.000 A 
ATOM     24  C   UNL     1       2.405   8.211  17.484  0.00  0.00    +0.000 C 
BRANCH  22  25
ATOM     25  C   UNL     1       2.773   5.154  18.277  0.00  0.00    +0.000 A 
ATOM     26  C   UNL     1       1.809   4.255  17.772  0.00  0.00    +0.000 A 
ATOM     27  C   UNL     1       2.159   3.148  16.990  0.00  0.00    +0.000 A 
ATOM     28  C   UNL     1       3.478   2.949  16.628  0.00  0.00    +0.000 A 
ATOM     29  C   UNL     1       4.443   3.839  17.079  0.00  0.00    +0.000 A 
ATOM     30  C   UNL     1       4.128   4.924  17.941  0.00  0.00    +0.000 A 
BRANCH  30  31
ATOM     31  C   UNL     1       5.343   5.658  18.459  0.00  0.00    +0.000 C 
ATOM     32  F   UNL     1       6.526   5.072  18.206  0.00  0.00    +0.000 F 
ATOM     33  F   UNL     1       5.450   6.910  17.916  0.00  0.00    +0.000 F 
ATOM     34  F   UNL     1       5.280   5.867  19.805  0.00  0.00    +0.000 F 
ENDBRANCH  30  31
ENDBRANCH  22  25
ENDBRANCH   7  18
TORSDOF 4
ENDMDL
MODEL 8
REMARK VINA RESULT:      -6.6      3.573      6.023
REMARK  Name = 
REMARK  7 active torsions:
REMARK  status: ('A' for Active; 'I' for Inactive)
REMARK    1  A    between atoms: C_1  and  C_2
REMARK    2  A    between atoms: C_3  and  C_4
REMARK    3  A    between atoms: C_15  and  C_16
REMARK    4  A    between atoms: C_18  and  C_19
REMARK    5  A    between atoms: N_20  and  C_21
REMARK    6  A    between atoms: C_26  and  C_27
REMARK    7  A    between atoms: C_31  and  C_32
REMARK                            x       y       z     vdW  Elec       q    Type
REMARK                         _______ _______ _______ _____ _____    ______ ____
ROOT
ATOM      1  C   UNL     1       0.323  17.946  22.259  0.00  0.00    +0.000 C 
ATOM      2  C   UNL     1       0.036  16.820  21.316  0.00  0.00    +0.000 C 
ATOM      3  C   UNL     1       0.698  16.478  20.188  0.00  0.00    +0.000 C 
ATOM      4  C   UNL     1      -0.117  15.374  19.632  0.00  0.00    +0.000 C 
ATOM      5  O   UNL     1      -0.143  15.027  18.470  0.00  0.00    +0.000 OA
ATOM      6  C   UNL     1      -0.969  14.881  20.758  0.00  0.00    +0.000 C 
ATOM      7  C   UNL     1      -1.389  13.614  20.898  0.00  0.00    +0.000 C 
ATOM      8  N   UNL     1      -1.013  15.949  21.621  0.00  0.00    +0.000 N 
ATOM      9  H   UNL     1      -1.291  15.816  22.586  0.00  0.00    +0.000 HD
ENDROOT
BRANCH   3  10
ATOM     10  C   UNL     1       1.958  17.032  19.630  0.00  0.00    +0.000 C 
ATOM     11  O   UNL     1       1.927  18.133  19.073  0.00  0.00    +0.000 OA
ATOM     12  N   UNL     1       3.169  16.371  19.855  0.00  0.00    +0.000 N 
ATOM     13  C   UNL     1       3.343  14.984  20.319  0.00  0.00    +0.000 C 
ATOM     14  C   UNL     1       4.628  14.775  21.122  0.00  0.00    +0.000 C 
ATOM     15  O   UNL     1       5.776  15.291  20.447  0.00  0.00    +0.000 OA
ATOM     16  C   UNL     1       5.604  16.690  20.180  0.00  0.00    +0.000 C 
ATOM     17  C   UNL     1       4.395  16.930  19.267  0.00  0.00    +0.000 C 
ENDBRANCH   3  10
BRANCH   7  18
ATOM     18  C   UNL     1      -1.026  12.530  20.037  0.00  0.00    +0.000 A 
ATOM     19  C   UNL     1      -1.807  12.013  18.992  0.00  0.00    +0.000 A 
ATOM     20  C   UNL     1      -1.141  10.921  18.462  0.00  0.00    +0.000 A 
ATOM     21  C   UNL     1      -1.678  10.028  17.388  0.00  0.00    +0.000 C 
ATOM     22  N   UNL     1       0.050  10.731  19.193  0.00  0.00    +0.000 N 
ATOM     23  C   UNL     1       0.171  11.838  20.049  0.00  0.00    +0.000 A 
ATOM     24  C   UNL     1       1.387  12.220  20.823  0.00  0.00    +0.000 C 
BRANCH  22  25
ATOM     25  C   UNL     1       0.966   9.619  19.043  0.00  0.00    +0.000 A 
ATOM     26  C   UNL     1       1.664   9.502  17.822  0.00  0.00    +0.000 A 
ATOM     27  C   UNL     1       2.523   8.430  17.554  0.00  0.00    +0.000 A 
ATOM     28  C   UNL     1       2.764   7.479  18.527  0.00  0.00    +0.000 A 
ATOM     29  C   UNL     1       2.120   7.590  19.753  0.00  0.00    +0.000 A 
ATOM     30  C   UNL     1       1.181   8.622  20.023  0.00  0.00    +0.000 A 
BRANCH  30  31
ATOM     31  C   UNL     1       0.461   8.455  21.341  0.00  0.00    +0.000 C 
ATOM     32  F   UNL     1      -0.783   8.958  21.390  0.00  0.00    +0.000 F 
ATOM     33  F   UNL     1       0.318   7.136  21.679  0.00  0.00    +0.000 F 
ATOM     34  F   UNL     1       1.157   9.005  22.378  0.00  0.00    +0.000 F 
ENDBRANCH  30  31
ENDBRANCH  22  25
ENDBRANCH   7  18
TORSDOF 4
ENDMDL
MODEL 9
REMARK VINA RESULT:      -6.6      4.584      7.615
REMARK  Name = 
REMARK  7 active torsions:
REMARK  status: ('A' for Active; 'I' for Inactive)
REMARK    1  A    between atoms: C_1  and  C_2
REMARK    2  A    between atoms: C_3  and  C_4
REMARK    3  A    between atoms: C_15  and  C_16
REMARK    4  A    between atoms: C_18  and  C_19
REMARK    5  A    between atoms: N_20  and  C_21
REMARK    6  A    between atoms: C_26  and  C_27
REMARK    7  A    between atoms: C_31  and  C_32
REMARK                            x       y       z     vdW  Elec       q    Type
REMARK                         _______ _______ _______ _____ _____    ______ ____
ROOT
ATOM      1  C   UNL     1      -1.727   9.971  17.421  0.00  0.00    +0.000 C 
ATOM      2  C   UNL     1      -1.173  11.095  18.238  0.00  0.00    +0.000 C 
ATOM      3  C   UNL     1      -0.450  11.031  19.378  0.00  0.00    +0.000 C 
ATOM      4  C   UNL     1      -0.302  12.451  19.772  0.00  0.00    +0.000 C 
ATOM      5  O   UNL     1      -0.082  12.857  20.893  0.00  0.00    +0.000 OA
ATOM      6  C   UNL     1      -0.602  13.254  18.546  0.00  0.00    +0.000 C 
ATOM      7  C   UNL     1      -0.056  14.447  18.264  0.00  0.00    +0.000 C 
ATOM      8  N   UNL     1      -1.359  12.403  17.779  0.00  0.00    +0.000 N 
ATOM      9  H   UNL     1      -1.478  12.575  16.788  0.00  0.00    +0.000 HD
ENDROOT
BRANCH   3  10
ATOM     10  C   UNL     1       0.106   9.844  20.075  0.00  0.00    +0.000 C 
ATOM     11  O   UNL     1      -0.452   9.442  21.099  0.00  0.00    +0.000 OA
ATOM     12  N   UNL     1       1.160   9.128  19.499  0.00  0.00    +0.000 N 
ATOM     13  C   UNL     1       2.040   9.582  18.409  0.00  0.00    +0.000 C 
ATOM     14  C   UNL     1       2.569   8.434  17.546  0.00  0.00    +0.000 C 
ATOM     15  O   UNL     1       3.140   7.387  18.333  0.00  0.00    +0.000 OA
ATOM     16  C   UNL     1       2.167   6.879  19.257  0.00  0.00    +0.000 C 
ATOM     17  C   UNL     1       1.706   7.974  20.227  0.00  0.00    +0.000 C 
ENDBRANCH   3  10
BRANCH   7  18
ATOM     18  C   UNL     1       0.949  15.096  19.052  0.00  0.00    +0.000 A 
ATOM     19  C   UNL     1       0.725  16.104  20.002  0.00  0.00    +0.000 A 
ATOM     20  C   UNL     1       1.955  16.524  20.477  0.00  0.00    +0.000 A 
ATOM     21  C   UNL     1       2.163  17.650  21.439  0.00  0.00    +0.000 C 
ATOM     22  N   UNL     1       2.960  15.798  19.805  0.00  0.00    +0.000 N 
ATOM     23  C   UNL     1       2.302  14.811  19.052  0.00  0.00    +0.000 A 
ATOM     24  C   UNL     1       2.943  13.642  18.386  0.00  0.00    +0.000 C 
BRANCH  22  25
ATOM     25  C   UNL     1       4.386  16.028  19.915  0.00  0.00    +0.000 A 
ATOM     26  C   UNL     1       5.009  16.793  18.906  0.00  0.00    +0.000 A 
ATOM     27  C   UNL     1       6.390  17.018  18.886  0.00  0.00    +0.000 A 
ATOM     28  C   UNL     1       7.181  16.545  19.917  0.00  0.00    +0.000 A 
ATOM     29  C   UNL     1       6.589  15.822  20.944  0.00  0.00    +0.000 A 
ATOM     30  C   UNL     1       5.203  15.508  20.947  0.00  0.00    +0.000 A 
BRANCH  30  31
ATOM     31  C   UNL     1       4.799  14.562  22.054  0.00  0.00    +0.000 C 
ATOM     32  F   UNL     1       5.812  14.003  22.738  0.00  0.00    +0.000 F 
ATOM     33  F   UNL     1       4.038  15.186  23.004  0.00  0.00    +0.000 F 
ATOM     34  F   UNL     1       4.016  13.543  21.596  0.00  0.00    +0.000 F 
ENDBRANCH  30  31
ENDBRANCH  22  25
ENDBRANCH   7  18
TORSDOF 4
ENDMDL
