MODEL 1
REMARK VINA RESULT:      -6.3      0.000      0.000
REMARK  Name = 
REMARK  6 active torsions:
REMARK  status: ('A' for Active; 'I' for Inactive)
REMARK    1  A    between atoms: C_1  and  C_2
REMARK    2  A    between atoms: C_10  and  C_11
REMARK    3  A    between atoms: C_11  and  C_12
REMARK    4  A    between atoms: C_11  and  N_13
REMARK    5  A    between atoms: N_16  and  C_17
REMARK    6  A    between atoms: C_22  and  C_23
REMARK                            x       y       z     vdW  Elec       q    Type
REMARK                         _______ _______ _______ _____ _____    ______ ____
ROOT
ATOM      1  C   UNL     1       0.001  14.893  18.817  0.00  0.00    +0.000 C 
ATOM      2  C   UNL     1      -0.365  13.481  19.185  0.00  0.00    +0.000 A 
ATOM      3  N   UNL     1      -1.601  13.315  19.695  0.00  0.00    +0.000 NA
ATOM      4  C   UNL     1      -1.909  12.078  20.089  0.00  0.00    +0.000 A 
ATOM      5  N   UNL     1      -1.105  11.010  20.042  0.00  0.00    +0.000 NA
ATOM      6  C   UNL     1       0.133  11.183  19.534  0.00  0.00    +0.000 A 
ATOM      7  N   UNL     1       1.036  10.093  19.572  0.00  0.00    +0.000 N 
ATOM      8  C   UNL     1       0.721   9.147  20.657  0.00  0.00    +0.000 C 
ATOM      9  C   UNL     1       1.887   8.172  20.834  0.00  0.00    +0.000 C 
ATOM     10  C   UNL     1       2.331   7.453  19.542  0.00  0.00    +0.000 C 
ATOM     11  C   UNL     1       2.325   8.429  18.337  0.00  0.00    +0.000 C 
ATOM     12  C   UNL     1       1.156   9.421  18.275  0.00  0.00    +0.000 C 
ATOM     13  C   UNL     1       0.548  12.429  19.046  0.00  0.00    +0.000 A 
ATOM     14  C   UNL     1       1.905  12.680  18.461  0.00  0.00    +0.000 C 
ENDROOT
BRANCH  10  15
ATOM     15  C   UNL     1       1.640   6.064  19.259  0.00  0.00    +0.000 C 
ATOM     16  C   UNL     1       1.120   5.423  20.560  0.00  0.00    +0.000 C 
BRANCH  15  17
ATOM     17  N   UNL     1       2.543   5.120  18.530  0.00  0.00    +0.000 NA
ATOM     18  C   UNL     1       1.820   4.053  17.788  0.00  0.00    +0.000 C 
ATOM     19  C   UNL     1       2.764   3.073  17.018  0.00  0.00    +0.000 C 
ATOM     20  N   UNL     1       3.953   2.571  17.737  0.00  0.00    +0.000 NA
ATOM     21  C   UNL     1       3.666   1.400  18.555  0.00  0.00    +0.000 C 
ATOM     22  C   UNL     1       4.545   3.657  18.529  0.00  0.00    +0.000 C 
ATOM     23  C   UNL     1       3.535   4.438  19.391  0.00  0.00    +0.000 C 
ENDBRANCH  15  17
ENDBRANCH  10  15
TORSDOF 2
ENDMDL
MODEL 2
REMARK VINA RESULT:      -6.2      1.221      1.776
REMARK  Name = 
REMARK  6 active torsions:
REMARK  status: ('A' for Active; 'I' for Inactive)
REMARK    1  A    between atoms: C_1  and  C_2
REMARK    2  A    between atoms: C_10  and  C_11
REMARK    3  A    between atoms: C_11  and  C_12
REMARK    4  A    between atoms: C_11  and  N_13
REMARK    5  A    between atoms: N_16  and  C_17
REMARK    6  A    between atoms: C_22  and  C_23
REMARK                            x       y       z     vdW  Elec       q    Type
REMARK                         _______ _______ _______ _____ _____    ______ ____
ROOT
ATOM      1  C   UNL     1      -0.170  14.372  18.407  0.00  0.00    +0.000 C 
ATOM      2  C   UNL     1      -0.479  12.921  18.653  0.00  0.00    +0.000 A 
ATOM      3  N   UNL     1      -1.781  12.625  18.833  0.00  0.00    +0.000 NA
ATOM      4  C   UNL     1      -2.057  11.352  19.122  0.00  0.00    +0.000 A 
ATOM      5  N   UNL     1      -1.167  10.363  19.266  0.00  0.00    +0.000 NA
ATOM      6  C   UNL     1       0.135  10.666  19.087  0.00  0.00    +0.000 A 
ATOM      7  N   UNL     1       1.101   9.661  19.339  0.00  0.00    +0.000 N 
ATOM      8  C   UNL     1       0.618   8.652  20.297  0.00  0.00    +0.000 C 
ATOM      9  C   UNL     1       1.791   7.779  20.751  0.00  0.00    +0.000 C 
ATOM     10  C   UNL     1       2.611   7.151  19.603  0.00  0.00    +0.000 C 
ATOM     11  C   UNL     1       2.812   8.166  18.448  0.00  0.00    +0.000 C 
ATOM     12  C   UNL     1       1.605   9.050  18.105  0.00  0.00    +0.000 C 
ATOM     13  C   UNL     1       0.538  11.960  18.736  0.00  0.00    +0.000 A 
ATOM     14  C   UNL     1       1.967  12.354  18.514  0.00  0.00    +0.000 C 
ENDROOT
BRANCH  10  15
ATOM     15  C   UNL     1       2.150   5.716  19.138  0.00  0.00    +0.000 C 
ATOM     16  C   UNL     1       1.323   5.013  20.232  0.00  0.00    +0.000 C 
BRANCH  15  17
ATOM     17  N   UNL     1       3.301   4.861  18.714  0.00  0.00    +0.000 NA
ATOM     18  C   UNL     1       4.620   5.354  19.190  0.00  0.00    +0.000 C 
ATOM     19  C   UNL     1       5.822   4.454  18.754  0.00  0.00    +0.000 C 
ATOM     20  N   UNL     1       5.852   3.994  17.350  0.00  0.00    +0.000 NA
ATOM     21  C   UNL     1       6.458   4.967  16.450  0.00  0.00    +0.000 C 
ATOM     22  C   UNL     1       4.494   3.628  16.924  0.00  0.00    +0.000 C 
ATOM     23  C   UNL     1       3.420   4.684  17.249  0.00  0.00    +0.000 C 
ENDBRANCH  15  17
ENDBRANCH  10  15
TORSDOF 2
ENDMDL
MODEL 3
REMARK VINA RESULT:      -5.9      2.380      8.317
REMARK  Name = 
REMARK  6 active torsions:
REMARK  status: ('A' for Active; 'I' for Inactive)
REMARK    1  A    between atoms: C_1  and  C_2
REMARK    2  A    between atoms: C_10  and  C_11
REMARK    3  A    between atoms: C_11  and  C_12
REMARK    4  A    between atoms: C_11  and  N_13
REMARK    5  A    between atoms: N_16  and  C_17
REMARK    6  A    between atoms: C_22  and  C_23
REMARK                            x       y       z     vdW  Elec       q    Type
REMARK                         _______ _______ _______ _____ _____    ______ ____
ROOT
ATOM      1  C   UNL     1       7.400   4.521  14.905  0.00  0.00    +0.000 C 
ATOM      2  C   UNL     1       6.912   4.988  16.249  0.00  0.00    +0.000 A 
ATOM      3  N   UNL     1       7.730   4.727  17.287  0.00  0.00    +0.000 NA
ATOM      4  C   UNL     1       7.273   5.075  18.492  0.00  0.00    +0.000 A 
ATOM      5  N   UNL     1       6.087   5.633  18.757  0.00  0.00    +0.000 NA
ATOM      6  C   UNL     1       5.271   5.889  17.714  0.00  0.00    +0.000 A 
ATOM      7  N   UNL     1       3.970   6.380  17.980  0.00  0.00    +0.000 N 
ATOM      8  C   UNL     1       3.491   5.992  19.318  0.00  0.00    +0.000 C 
ATOM      9  C   UNL     1       1.994   6.288  19.427  0.00  0.00    +0.000 C 
ATOM     10  C   UNL     1       1.591   7.733  19.058  0.00  0.00    +0.000 C 
ATOM     11  C   UNL     1       2.382   8.227  17.820  0.00  0.00    +0.000 C 
ATOM     12  C   UNL     1       3.862   7.826  17.756  0.00  0.00    +0.000 C 
ATOM     13  C   UNL     1       5.665   5.608  16.400  0.00  0.00    +0.000 A 
ATOM     14  C   UNL     1       4.809   5.880  15.200  0.00  0.00    +0.000 C 
ENDROOT
BRANCH  10  15
ATOM     15  C   UNL     1       1.547   8.757  20.257  0.00  0.00    +0.000 C 
ATOM     16  C   UNL     1       0.792   8.173  21.465  0.00  0.00    +0.000 C 
BRANCH  15  17
ATOM     17  N   UNL     1       0.964  10.074  19.854  0.00  0.00    +0.000 NA
ATOM     18  C   UNL     1       0.996  11.098  20.932  0.00  0.00    +0.000 C 
ATOM     19  C   UNL     1       0.394  12.477  20.508  0.00  0.00    +0.000 C 
ATOM     20  N   UNL     1      -0.884  12.461  19.767  0.00  0.00    +0.000 NA
ATOM     21  C   UNL     1      -2.046  12.403  20.645  0.00  0.00    +0.000 C 
ATOM     22  C   UNL     1      -0.877  11.357  18.798  0.00  0.00    +0.000 C 
ATOM     23  C   UNL     1      -0.437  10.000  19.383  0.00  0.00    +0.000 C 
ENDBRANCH  15  17
ENDBRANCH  10  15
TORSDOF 2
ENDMDL
MODEL 4
REMARK VINA RESULT:      -5.9      1.461      1.713
REMARK  Name = 
REMARK  6 active torsions:
REMARK  status: ('A' for Active; 'I' for Inactive)
REMARK    1  A    between atoms: C_1  and  C_2
REMARK    2  A    between atoms: C_10  and  C_11
REMARK    3  A    between atoms: C_11  and  C_12
REMARK    4  A    between atoms: C_11  and  N_13
REMARK    5  A    between atoms: N_16  and  C_17
REMARK    6  A    between atoms: C_22  and  C_23
REMARK                            x       y       z     vdW  Elec       q    Type
REMARK                         _______ _______ _______ _____ _____    ______ ____
ROOT
ATOM      1  C   UNL     1      -0.274  14.609  18.929  0.00  0.00    +0.000 C 
ATOM      2  C   UNL     1      -0.528  13.130  19.044  0.00  0.00    +0.000 A 
ATOM      3  N   UNL     1      -1.796  12.779  19.334  0.00  0.00    +0.000 NA
ATOM      4  C   UNL     1      -2.016  11.474  19.507  0.00  0.00    +0.000 A 
ATOM      5  N   UNL     1      -1.100  10.502  19.438  0.00  0.00    +0.000 NA
ATOM      6  C   UNL     1       0.168  10.860  19.150  0.00  0.00    +0.000 A 
ATOM      7  N   UNL     1       1.174   9.862  19.177  0.00  0.00    +0.000 N 
ATOM      8  C   UNL     1       0.820   8.741  20.064  0.00  0.00    +0.000 C 
ATOM      9  C   UNL     1       2.052   7.859  20.281  0.00  0.00    +0.000 C 
ATOM     10  C   UNL     1       2.745   7.384  18.985  0.00  0.00    +0.000 C 
ATOM     11  C   UNL     1       2.795   8.525  17.937  0.00  0.00    +0.000 C 
ATOM     12  C   UNL     1       1.542   9.406  17.833  0.00  0.00    +0.000 C 
ATOM     13  C   UNL     1       0.506  12.197  18.904  0.00  0.00    +0.000 A 
ATOM     14  C   UNL     1       1.894  12.655  18.568  0.00  0.00    +0.000 C 
ENDROOT
BRANCH  10  15
ATOM     15  C   UNL     1       2.257   5.996  18.417  0.00  0.00    +0.000 C 
ATOM     16  C   UNL     1       1.940   5.007  19.554  0.00  0.00    +0.000 C 
BRANCH  15  17
ATOM     17  N   UNL     1       3.236   5.402  17.457  0.00  0.00    +0.000 NA
ATOM     18  C   UNL     1       3.751   4.070  17.873  0.00  0.00    +0.000 C 
ATOM     19  C   UNL     1       4.768   3.445  16.864  0.00  0.00    +0.000 C 
ATOM     20  N   UNL     1       5.824   4.328  16.329  0.00  0.00    +0.000 NA
ATOM     21  C   UNL     1       6.987   4.413  17.204  0.00  0.00    +0.000 C 
ATOM     22  C   UNL     1       5.259   5.655  16.044  0.00  0.00    +0.000 C 
ATOM     23  C   UNL     1       4.422   6.249  17.194  0.00  0.00    +0.000 C 
ENDBRANCH  15  17
ENDBRANCH  10  15
TORSDOF 2
ENDMDL
MODEL 5
REMARK VINA RESULT:      -5.9      1.470      2.569
REMARK  Name = 
REMARK  6 active torsions:
REMARK  status: ('A' for Active; 'I' for Inactive)
REMARK    1  A    between atoms: C_1  and  C_2
REMARK    2  A    between atoms: C_10  and  C_11
REMARK    3  A    between atoms: C_11  and  C_12
REMARK    4  A    between atoms: C_11  and  N_13
REMARK    5  A    between atoms: N_16  and  C_17
REMARK    6  A    between atoms: C_22  and  C_23
REMARK                            x       y       z     vdW  Elec       q    Type
REMARK                         _______ _______ _______ _____ _____    ______ ____
ROOT
ATOM      1  C   UNL     1      -1.077  14.542  20.191  0.00  0.00    +0.000 C 
ATOM      2  C   UNL     1       0.090  13.735  19.691  0.00  0.00    +0.000 A 
ATOM      3  N   UNL     1       1.095  14.444  19.142  0.00  0.00    +0.000 NA
ATOM      4  C   UNL     1       2.103  13.732  18.632  0.00  0.00    +0.000 A 
ATOM      5  N   UNL     1       2.191  12.398  18.601  0.00  0.00    +0.000 NA
ATOM      6  C   UNL     1       1.180  11.693  19.149  0.00  0.00    +0.000 A 
ATOM      7  N   UNL     1       1.202  10.281  19.033  0.00  0.00    +0.000 N 
ATOM      8  C   UNL     1       1.974   9.831  17.862  0.00  0.00    +0.000 C 
ATOM      9  C   UNL     1       1.712   8.343  17.623  0.00  0.00    +0.000 C 
ATOM     10  C   UNL     1       1.938   7.440  18.855  0.00  0.00    +0.000 C 
ATOM     11  C   UNL     1       1.398   8.117  20.142  0.00  0.00    +0.000 C 
ATOM     12  C   UNL     1       1.644   9.626  20.268  0.00  0.00    +0.000 C 
ATOM     13  C   UNL     1       0.093  12.336  19.754  0.00  0.00    +0.000 A 
ATOM     14  C   UNL     1      -1.054  11.608  20.389  0.00  0.00    +0.000 C 
ENDROOT
BRANCH  10  15
ATOM     15  C   UNL     1       3.385   6.827  18.998  0.00  0.00    +0.000 C 
ATOM     16  C   UNL     1       4.174   6.944  17.681  0.00  0.00    +0.000 C 
BRANCH  15  17
ATOM     17  N   UNL     1       3.355   5.410  19.473  0.00  0.00    +0.000 NA
ATOM     18  C   UNL     1       4.558   4.625  19.091  0.00  0.00    +0.000 C 
ATOM     19  C   UNL     1       4.531   3.145  19.596  0.00  0.00    +0.000 C 
ATOM     20  N   UNL     1       3.272   2.391  19.419  0.00  0.00    +0.000 NA
ATOM     21  C   UNL     1       3.160   1.778  18.102  0.00  0.00    +0.000 C 
ATOM     22  C   UNL     1       2.129   3.267  19.712  0.00  0.00    +0.000 C 
ATOM     23  C   UNL     1       2.181   4.637  19.007  0.00  0.00    +0.000 C 
ENDBRANCH  15  17
ENDBRANCH  10  15
TORSDOF 2
ENDMDL
MODEL 6
REMARK VINA RESULT:      -5.8      2.238      3.428
REMARK  Name = 
REMARK  6 active torsions:
REMARK  status: ('A' for Active; 'I' for Inactive)
REMARK    1  A    between atoms: C_1  and  C_2
REMARK    2  A    between atoms: C_10  and  C_11
REMARK    3  A    between atoms: C_11  and  C_12
REMARK    4  A    between atoms: C_11  and  N_13
REMARK    5  A    between atoms: N_16  and  C_17
REMARK    6  A    between atoms: C_22  and  C_23
REMARK                            x       y       z     vdW  Elec       q    Type
REMARK                         _______ _______ _______ _____ _____    ______ ____
ROOT
ATOM      1  C   UNL     1      -2.110  14.253  24.129  0.00  0.00    +0.000 C 
ATOM      2  C   UNL     1      -1.024  13.799  23.192  0.00  0.00    +0.000 A 
ATOM      3  N   UNL     1      -0.159  14.753  22.797  0.00  0.00    +0.000 NA
ATOM      4  C   UNL     1       0.765  14.374  21.912  0.00  0.00    +0.000 A 
ATOM      5  N   UNL     1       0.893  13.156  21.376  0.00  0.00    +0.000 NA
ATOM      6  C   UNL     1       0.023  12.205  21.772  0.00  0.00    +0.000 A 
ATOM      7  N   UNL     1       0.072  10.939  21.139  0.00  0.00    +0.000 N 
ATOM      8  C   UNL     1       0.638  11.017  19.781  0.00  0.00    +0.000 C 
ATOM      9  C   UNL     1       0.390   9.695  19.052  0.00  0.00    +0.000 C 
ATOM     10  C   UNL     1       0.865   8.438  19.812  0.00  0.00    +0.000 C 
ATOM     11  C   UNL     1       0.541   8.551  21.324  0.00  0.00    +0.000 C 
ATOM     12  C   UNL     1       0.752   9.931  21.960  0.00  0.00    +0.000 C 
ATOM     13  C   UNL     1      -0.960  12.477  22.732  0.00  0.00    +0.000 A 
ATOM     14  C   UNL     1      -1.948  11.461  23.220  0.00  0.00    +0.000 C 
ENDROOT
BRANCH  10  15
ATOM     15  C   UNL     1       2.334   7.960  19.493  0.00  0.00    +0.000 C 
ATOM     16  C   UNL     1       2.665   8.129  17.998  0.00  0.00    +0.000 C 
BRANCH  15  17
ATOM     17  N   UNL     1       2.581   6.553  19.933  0.00  0.00    +0.000 NA
ATOM     18  C   UNL     1       3.456   5.781  19.012  0.00  0.00    +0.000 C 
ATOM     19  C   UNL     1       3.721   4.312  19.478  0.00  0.00    +0.000 C 
ATOM     20  N   UNL     1       2.561   3.533  19.958  0.00  0.00    +0.000 NA
ATOM     21  C   UNL     1       1.826   2.890  18.876  0.00  0.00    +0.000 C 
ATOM     22  C   UNL     1       1.691   4.394  20.771  0.00  0.00    +0.000 C 
ATOM     23  C   UNL     1       1.351   5.749  20.120  0.00  0.00    +0.000 C 
ENDBRANCH  15  17
ENDBRANCH  10  15
TORSDOF 2
ENDMDL
MODEL 7
REMARK VINA RESULT:      -5.8      2.201      4.016
REMARK  Name = 
REMARK  6 active torsions:
REMARK  status: ('A' for Active; 'I' for Inactive)
REMARK    1  A    between atoms: C_1  and  C_2
REMARK    2  A    between atoms: C_10  and  C_11
REMARK    3  A    between atoms: C_11  and  C_12
REMARK    4  A    between atoms: C_11  and  N_13
REMARK    5  A    between atoms: N_16  and  C_17
REMARK    6  A    between atoms: C_22  and  C_23
REMARK                            x       y       z     vdW  Elec       q    Type
REMARK                         _______ _______ _______ _____ _____    ______ ____
ROOT
ATOM      1  C   UNL     1       0.094  11.336  20.867  0.00  0.00    +0.000 C 
ATOM      2  C   UNL     1       0.893  10.484  19.920  0.00  0.00    +0.000 A 
ATOM      3  N   UNL     1       1.404  11.125  18.850  0.00  0.00    +0.000 NA
ATOM      4  C   UNL     1       2.055  10.363  17.969  0.00  0.00    +0.000 A 
ATOM      5  N   UNL     1       2.225   9.039  18.042  0.00  0.00    +0.000 NA
ATOM      6  C   UNL     1       1.709   8.402  19.114  0.00  0.00    +0.000 A 
ATOM      7  N   UNL     1       1.784   6.988  19.159  0.00  0.00    +0.000 N 
ATOM      8  C   UNL     1       1.870   6.392  17.814  0.00  0.00    +0.000 C 
ATOM      9  C   UNL     1       1.648   4.881  17.914  0.00  0.00    +0.000 C 
ATOM     10  C   UNL     1       2.556   4.160  18.933  0.00  0.00    +0.000 C 
ATOM     11  C   UNL     1       2.709   4.999  20.228  0.00  0.00    +0.000 C 
ATOM     12  C   UNL     1       2.857   6.514  20.039  0.00  0.00    +0.000 C 
ATOM     13  C   UNL     1       1.045   9.107  20.126  0.00  0.00    +0.000 A 
ATOM     14  C   UNL     1       0.461   8.458  21.344  0.00  0.00    +0.000 C 
ENDROOT
BRANCH  10  15
ATOM     15  C   UNL     1       3.911   3.591  18.359  0.00  0.00    +0.000 C 
ATOM     16  C   UNL     1       5.002   3.543  19.446  0.00  0.00    +0.000 C 
BRANCH  15  17
ATOM     17  N   UNL     1       4.386   4.357  17.166  0.00  0.00    +0.000 NA
ATOM     18  C   UNL     1       4.896   3.497  16.066  0.00  0.00    +0.000 C 
ATOM     19  C   UNL     1       5.384   4.298  14.815  0.00  0.00    +0.000 C 
ATOM     20  N   UNL     1       6.230   5.484  15.057  0.00  0.00    +0.000 NA
ATOM     21  C   UNL     1       7.642   5.152  15.199  0.00  0.00    +0.000 C 
ATOM     22  C   UNL     1       5.724   6.221  16.224  0.00  0.00    +0.000 C 
ATOM     23  C   UNL     1       5.452   5.342  17.460  0.00  0.00    +0.000 C 
ENDBRANCH  15  17
ENDBRANCH  10  15
TORSDOF 2
ENDMDL
MODEL 8
REMARK VINA RESULT:      -5.6      2.502      8.698
REMARK  Name = 
REMARK  6 active torsions:
REMARK  status: ('A' for Active; 'I' for Inactive)
REMARK    1  A    between atoms: C_1  and  C_2
REMARK    2  A    between atoms: C_10  and  C_11
REMARK    3  A    between atoms: C_11  and  C_12
REMARK    4  A    between atoms: C_11  and  N_13
REMARK    5  A    between atoms: N_16  and  C_17
REMARK    6  A    between atoms: C_22  and  C_23
REMARK                            x       y       z     vdW  Elec       q    Type
REMARK                         _______ _______ _______ _____ _____    ______ ____
ROOT
ATOM      1  C   UNL     1       2.718   6.516  18.973  0.00  0.00    +0.000 C 
ATOM      2  C   UNL     1       1.956   7.596  19.691  0.00  0.00    +0.000 A 
ATOM      3  N   UNL     1       1.517   7.278  20.924  0.00  0.00    +0.000 NA
ATOM      4  C   UNL     1       0.779   8.204  21.539  0.00  0.00    +0.000 A 
ATOM      5  N   UNL     1       0.428   9.394  21.040  0.00  0.00    +0.000 NA
ATOM      6  C   UNL     1       0.868   9.707  19.805  0.00  0.00    +0.000 A 
ATOM      7  N   UNL     1       0.421  10.915  19.214  0.00  0.00    +0.000 N 
ATOM      8  C   UNL     1      -0.877  11.351  19.757  0.00  0.00    +0.000 C 
ATOM      9  C   UNL     1      -1.440  12.474  18.883  0.00  0.00    +0.000 C 
ATOM     10  C   UNL     1      -0.476  13.657  18.650  0.00  0.00    +0.000 C 
ATOM     11  C   UNL     1       0.970  13.152  18.411  0.00  0.00    +0.000 C 
ATOM     12  C   UNL     1       1.430  11.977  19.283  0.00  0.00    +0.000 C 
ATOM     13  C   UNL     1       1.688   8.829  19.083  0.00  0.00    +0.000 A 
ATOM     14  C   UNL     1       2.216   9.125  17.712  0.00  0.00    +0.000 C 
ENDROOT
BRANCH  10  15
ATOM     15  C   UNL     1      -0.591  14.846  19.680  0.00  0.00    +0.000 C 
ATOM     16  C   UNL     1       0.788  15.468  19.972  0.00  0.00    +0.000 C 
BRANCH  15  17
ATOM     17  N   UNL     1      -1.264  14.433  20.949  0.00  0.00    +0.000 NA
ATOM     18  C   UNL     1      -2.156  15.476  21.521  0.00  0.00    +0.000 C 
ATOM     19  C   UNL     1      -2.867  15.040  22.843  0.00  0.00    +0.000 C 
ATOM     20  N   UNL     1      -2.043  14.363  23.866  0.00  0.00    +0.000 NA
ATOM     21  C   UNL     1      -1.343  15.299  24.737  0.00  0.00    +0.000 C 
ATOM     22  C   UNL     1      -1.116  13.429  23.212  0.00  0.00    +0.000 C 
ATOM     23  C   UNL     1      -0.334  14.034  22.030  0.00  0.00    +0.000 C 
ENDBRANCH  15  17
ENDBRANCH  10  15
TORSDOF 2
ENDMDL
MODEL 9
REMARK VINA RESULT:      -5.5      1.552      2.485
REMARK  Name = 
REMARK  6 active torsions:
REMARK  status: ('A' for Active; 'I' for Inactive)
REMARK    1  A    between atoms: C_1  and  C_2
REMARK    2  A    between atoms: C_10  and  C_11
REMARK    3  A    between atoms: C_11  and  C_12
REMARK    4  A    between atoms: C_11  and  N_13
REMARK    5  A    between atoms: N_16  and  C_17
REMARK    6  A    between atoms: C_22  and  C_23
REMARK                            x       y       z     vdW  Elec       q    Type
REMARK                         _______ _______ _______ _____ _____    ______ ____
ROOT
ATOM      1  C   UNL     1      -1.159  13.758  21.797  0.00  0.00    +0.000 C 
ATOM      2  C   UNL     1      -0.043  13.151  20.991  0.00  0.00    +0.000 A 
ATOM      3  N   UNL     1       0.831  14.025  20.456  0.00  0.00    +0.000 NA
ATOM      4  C   UNL     1       1.783  13.501  19.682  0.00  0.00    +0.000 A 
ATOM      5  N   UNL     1       1.931  12.207  19.379  0.00  0.00    +0.000 NA
ATOM      6  C   UNL     1       1.052  11.336  19.914  0.00  0.00    +0.000 A 
ATOM      7  N   UNL     1       1.125   9.976  19.523  0.00  0.00    +0.000 N 
ATOM      8  C   UNL     1       1.732   9.813  18.190  0.00  0.00    +0.000 C 
ATOM      9  C   UNL     1       1.510   8.379  17.704  0.00  0.00    +0.000 C 
ATOM     10  C   UNL     1       1.965   7.284  18.693  0.00  0.00    +0.000 C 
ATOM     11  C   UNL     1       1.594   7.665  20.149  0.00  0.00    +0.000 C 
ATOM     12  C   UNL     1       1.781   9.139  20.532  0.00  0.00    +0.000 C 
ATOM     13  C   UNL     1       0.038  11.769  20.779  0.00  0.00    +0.000 A 
ATOM     14  C   UNL     1      -0.961  10.849  21.413  0.00  0.00    +0.000 C 
ENDROOT
BRANCH  10  15
ATOM     15  C   UNL     1       3.445   6.769  18.510  0.00  0.00    +0.000 C 
ATOM     16  C   UNL     1       4.123   7.434  17.297  0.00  0.00    +0.000 C 
BRANCH  15  17
ATOM     17  N   UNL     1       3.517   5.279  18.405  0.00  0.00    +0.000 NA
ATOM     18  C   UNL     1       2.329   4.666  17.754  0.00  0.00    +0.000 C 
ATOM     19  C   UNL     1       2.410   3.109  17.636  0.00  0.00    +0.000 C 
ATOM     20  N   UNL     1       2.864   2.361  18.826  0.00  0.00    +0.000 NA
ATOM     21  C   UNL     1       1.784   2.076  19.762  0.00  0.00    +0.000 C 
ATOM     22  C   UNL     1       3.967   3.086  19.472  0.00  0.00    +0.000 C 
ATOM     23  C   UNL     1       3.694   4.585  19.701  0.00  0.00    +0.000 C 
ENDBRANCH  15  17
ENDBRANCH  10  15
TORSDOF 2
ENDMDL
