MODEL 1
REMARK VINA RESULT:      -8.0      0.000      0.000
REMARK  Name = 
REMARK  8 active torsions:
REMARK  status: ('A' for Active; 'I' for Inactive)
REMARK    1  A    between atoms: C_1  and  C_2
REMARK    2  A    between atoms: C_2  and  C_4
REMARK    3  A    between atoms: C_7  and  C_8
REMARK    4  A    between atoms: C_8  and  C_9
REMARK    5  A    between atoms: C_9  and  O_10
REMARK    6  A    between atoms: O_10  and  C_11
REMARK    7  A    between atoms: C_14  and  C_15
REMARK    8  A    between atoms: C_15  and  C_16
REMARK                            x       y       z     vdW  Elec       q    Type
REMARK                         _______ _______ _______ _____ _____    ______ ____
ROOT
ATOM      1  C   UNL     1       1.843   7.285  20.294  0.00  0.00    +0.000 A 
ATOM      2  C   UNL     1       1.595   5.943  20.593  0.00  0.00    +0.000 A 
ATOM      3  C   UNL     1       1.809   4.948  19.644  0.00  0.00    +0.000 A 
ATOM      4  C   UNL     1       2.278   5.266  18.368  0.00  0.00    +0.000 A 
ATOM      5  C   UNL     1       2.530   6.611  18.062  0.00  0.00    +0.000 A 
ATOM      6  C   UNL     1       2.310   7.613  19.018  0.00  0.00    +0.000 A 
ENDROOT
BRANCH   1   7
ATOM      7  O   UNL     1       1.659   8.331  21.170  0.00  0.00    +0.000 OA
BRANCH   7   8
ATOM      8  C   UNL     1       0.418   9.036  21.004  0.00  0.00    +0.000 C 
BRANCH   8   9
ATOM      9  C   UNL     1       0.582  10.303  20.177  0.00  0.00    +0.000 C 
BRANCH   9  13
ATOM     10  C   UNL     1      -2.674  10.872  17.493  0.00  0.00    +0.000 A 
ATOM     11  C   UNL     1      -1.646  10.001  17.136  0.00  0.00    +0.000 A 
ATOM     12  C   UNL     1      -0.571   9.819  18.002  0.00  0.00    +0.000 A 
ATOM     13  C   UNL     1      -0.554  10.506  19.212  0.00  0.00    +0.000 A 
ATOM     14  N   UNL     1      -1.537  11.363  19.577  0.00  0.00    +0.000 NA
ATOM     15  C   UNL     1      -2.571  11.530  18.712  0.00  0.00    +0.000 A 
BRANCH  10  17
ATOM     16  C   UNL     1      -5.036  11.850  17.220  0.00  0.00    +0.000 C 
ATOM     17  C   UNL     1      -3.859  11.114  16.634  0.00  0.00    +0.000 C 
ATOM     18  O   UNL     1      -3.861  10.727  15.469  0.00  0.00    +0.000 OA
ENDBRANCH  10  17
ENDBRANCH   9  13
ENDBRANCH   8   9
ENDBRANCH   7   8
ENDBRANCH   1   7
BRANCH   4  19
ATOM     19  C   UNL     1       2.518   4.156  17.368  0.00  0.00    +0.000 C 
BRANCH  19  20
ATOM     20  C   UNL     1       3.685   3.208  17.660  0.00  0.00    +0.000 C 
ATOM     21  S   UNL     1       3.302   1.904  18.877  0.00  0.00    +0.000 S 
ATOM     22  C   UNL     1       4.608   2.376  19.931  0.00  0.00    +0.000 C 
ATOM     23  O   UNL     1       4.815   1.875  21.023  0.00  0.00    +0.000 OA
ATOM     24  N   UNL     1       5.342   3.363  19.369  0.00  0.00    +0.000 N 
ATOM     25  C   UNL     1       4.908   3.917  18.204  0.00  0.00    +0.000 C 
ATOM     26  O   UNL     1       5.464   4.867  17.666  0.00  0.00    +0.000 OA
ATOM     27  H   UNL     1       6.128   3.752  19.866  0.00  0.00    +0.000 HD
ENDBRANCH  19  20
ENDBRANCH   4  19
TORSDOF 7
ENDMDL
MODEL 2
REMARK VINA RESULT:      -7.9      2.905      8.840
REMARK  Name = 
REMARK  8 active torsions:
REMARK  status: ('A' for Active; 'I' for Inactive)
REMARK    1  A    between atoms: C_1  and  C_2
REMARK    2  A    between atoms: C_2  and  C_4
REMARK    3  A    between atoms: C_7  and  C_8
REMARK    4  A    between atoms: C_8  and  C_9
REMARK    5  A    between atoms: C_9  and  O_10
REMARK    6  A    between atoms: O_10  and  C_11
REMARK    7  A    between atoms: C_14  and  C_15
REMARK    8  A    between atoms: C_15  and  C_16
REMARK                            x       y       z     vdW  Elec       q    Type
REMARK                         _______ _______ _______ _____ _____    ______ ____
ROOT
ATOM      1  C   UNL     1       2.176   6.536  20.132  0.00  0.00    +0.000 A 
ATOM      2  C   UNL     1       1.481   7.511  20.853  0.00  0.00    +0.000 A 
ATOM      3  C   UNL     1       1.178   8.741  20.280  0.00  0.00    +0.000 A 
ATOM      4  C   UNL     1       1.556   9.034  18.969  0.00  0.00    +0.000 A 
ATOM      5  C   UNL     1       2.253   8.059  18.240  0.00  0.00    +0.000 A 
ATOM      6  C   UNL     1       2.562   6.820  18.819  0.00  0.00    +0.000 A 
ENDROOT
BRANCH   1   7
ATOM      7  O   UNL     1       2.518   5.295  20.620  0.00  0.00    +0.000 OA
BRANCH   7   8
ATOM      8  C   UNL     1       1.992   4.192  19.864  0.00  0.00    +0.000 C 
BRANCH   8   9
ATOM      9  C   UNL     1       3.063   3.168  19.518  0.00  0.00    +0.000 C 
BRANCH   9  13
ATOM     10  C   UNL     1       5.855   4.603  16.641  0.00  0.00    +0.000 A 
ATOM     11  C   UNL     1       6.194   4.641  17.992  0.00  0.00    +0.000 A 
ATOM     12  C   UNL     1       5.281   4.187  18.941  0.00  0.00    +0.000 A 
ATOM     13  C   UNL     1       4.053   3.693  18.514  0.00  0.00    +0.000 A 
ATOM     14  N   UNL     1       3.698   3.652  17.208  0.00  0.00    +0.000 NA
ATOM     15  C   UNL     1       4.601   4.109  16.303  0.00  0.00    +0.000 A 
BRANCH  10  17
ATOM     16  C   UNL     1       6.640   4.442  14.198  0.00  0.00    +0.000 C 
ATOM     17  C   UNL     1       6.771   5.057  15.567  0.00  0.00    +0.000 C 
ATOM     18  O   UNL     1       7.607   5.927  15.802  0.00  0.00    +0.000 OA
ENDBRANCH  10  17
ENDBRANCH   9  13
ENDBRANCH   8   9
ENDBRANCH   7   8
ENDBRANCH   1   7
BRANCH   4  19
ATOM     19  C   UNL     1       1.191  10.375  18.372  0.00  0.00    +0.000 C 
BRANCH  19  20
ATOM     20  C   UNL     1      -0.180  10.944  18.747  0.00  0.00    +0.000 C 
ATOM     21  S   UNL     1      -1.589  10.021  18.046  0.00  0.00    +0.000 S 
ATOM     22  C   UNL     1      -2.233  11.429  17.245  0.00  0.00    +0.000 C 
ATOM     23  O   UNL     1      -3.200  11.406  16.503  0.00  0.00    +0.000 OA
ATOM     24  N   UNL     1      -1.513  12.529  17.562  0.00  0.00    +0.000 N 
ATOM     25  C   UNL     1      -0.376  12.377  18.295  0.00  0.00    +0.000 C 
ATOM     26  O   UNL     1       0.379  13.305  18.560  0.00  0.00    +0.000 OA
ATOM     27  H   UNL     1      -1.757  13.423  17.164  0.00  0.00    +0.000 HD
ENDBRANCH  19  20
ENDBRANCH   4  19
TORSDOF 7
ENDMDL
MODEL 3
REMARK VINA RESULT:      -7.8      6.829      8.877
REMARK  Name = 
REMARK  8 active torsions:
REMARK  status: ('A' for Active; 'I' for Inactive)
REMARK    1  A    between atoms: C_1  and  C_2
REMARK    2  A    between atoms: C_2  and  C_4
REMARK    3  A    between atoms: C_7  and  C_8
REMARK    4  A    between atoms: C_8  and  C_9
REMARK    5  A    between atoms: C_9  and  O_10
REMARK    6  A    between atoms: O_10  and  C_11
REMARK    7  A    between atoms: C_14  and  C_15
REMARK    8  A    between atoms: C_15  and  C_16
REMARK                            x       y       z     vdW  Elec       q    Type
REMARK                         _______ _______ _______ _____ _____    ______ ____
ROOT
ATOM      1  C   UNL     1       7.344   7.306  17.585  0.00  0.00    +0.000 A 
ATOM      2  C   UNL     1       6.104   6.915  17.073  0.00  0.00    +0.000 A 
ATOM      3  C   UNL     1       5.427   5.820  17.598  0.00  0.00    +0.000 A 
ATOM      4  C   UNL     1       5.968   5.082  18.653  0.00  0.00    +0.000 A 
ATOM      5  C   UNL     1       7.211   5.470  19.173  0.00  0.00    +0.000 A 
ATOM      6  C   UNL     1       7.895   6.572  18.640  0.00  0.00    +0.000 A 
ENDROOT
BRANCH   1   7
ATOM      7  O   UNL     1       8.082   8.374  17.127  0.00  0.00    +0.000 OA
BRANCH   7   8
ATOM      8  C   UNL     1       7.945   9.571  17.908  0.00  0.00    +0.000 C 
BRANCH   8   9
ATOM      9  C   UNL     1       9.223   9.919  18.659  0.00  0.00    +0.000 C 
BRANCH   9  13
ATOM     10  C   UNL     1      10.466  13.912  17.858  0.00  0.00    +0.000 A 
ATOM     11  C   UNL     1      11.377  12.871  17.685  0.00  0.00    +0.000 A 
ATOM     12  C   UNL     1      10.983  11.564  17.958  0.00  0.00    +0.000 A 
ATOM     13  C   UNL     1       9.681  11.326  18.387  0.00  0.00    +0.000 A 
ATOM     14  N   UNL     1       8.780  12.321  18.569  0.00  0.00    +0.000 NA
ATOM     15  C   UNL     1       9.191  13.588  18.305  0.00  0.00    +0.000 A 
BRANCH  10  17
ATOM     16  C   UNL     1      10.891  16.290  18.738  0.00  0.00    +0.000 C 
ATOM     17  C   UNL     1      10.800  15.330  17.580  0.00  0.00    +0.000 C 
ATOM     18  O   UNL     1      11.008  15.695  16.426  0.00  0.00    +0.000 OA
ENDBRANCH  10  17
ENDBRANCH   9  13
ENDBRANCH   8   9
ENDBRANCH   7   8
ENDBRANCH   1   7
BRANCH   4  19
ATOM     19  C   UNL     1       5.194   3.909  19.212  0.00  0.00    +0.000 C 
BRANCH  19  20
ATOM     20  C   UNL     1       3.686   3.890  18.946  0.00  0.00    +0.000 C 
ATOM     21  S   UNL     1       2.675   4.520  20.328  0.00  0.00    +0.000 S 
ATOM     22  C   UNL     1       1.754   3.045  20.448  0.00  0.00    +0.000 C 
ATOM     23  O   UNL     1       0.918   2.834  21.310  0.00  0.00    +0.000 OA
ATOM     24  N   UNL     1       2.099   2.185  19.463  0.00  0.00    +0.000 N 
ATOM     25  C   UNL     1       3.148   2.504  18.656  0.00  0.00    +0.000 C 
ATOM     26  O   UNL     1       3.581   1.751  17.791  0.00  0.00    +0.000 OA
ATOM     27  H   UNL     1       1.661   1.279  19.408  0.00  0.00    +0.000 HD
ENDBRANCH  19  20
ENDBRANCH   4  19
TORSDOF 7
ENDMDL
MODEL 4
REMARK VINA RESULT:      -7.8      2.353      2.851
REMARK  Name = 
REMARK  8 active torsions:
REMARK  status: ('A' for Active; 'I' for Inactive)
REMARK    1  A    between atoms: C_1  and  C_2
REMARK    2  A    between atoms: C_2  and  C_4
REMARK    3  A    between atoms: C_7  and  C_8
REMARK    4  A    between atoms: C_8  and  C_9
REMARK    5  A    between atoms: C_9  and  O_10
REMARK    6  A    between atoms: O_10  and  C_11
REMARK    7  A    between atoms: C_14  and  C_15
REMARK    8  A    between atoms: C_15  and  C_16
REMARK                            x       y       z     vdW  Elec       q    Type
REMARK                         _______ _______ _______ _____ _____    ______ ____
ROOT
ATOM      1  C   UNL     1       2.341   7.446  19.190  0.00  0.00    +0.000 A 
ATOM      2  C   UNL     1       3.024   7.748  18.010  0.00  0.00    +0.000 A 
ATOM      3  C   UNL     1       3.805   6.791  17.371  0.00  0.00    +0.000 A 
ATOM      4  C   UNL     1       3.925   5.501  17.892  0.00  0.00    +0.000 A 
ATOM      5  C   UNL     1       3.241   5.191  19.076  0.00  0.00    +0.000 A 
ATOM      6  C   UNL     1       2.457   6.158  19.721  0.00  0.00    +0.000 A 
ENDROOT
BRANCH   1   7
ATOM      7  O   UNL     1       1.548   8.330  19.887  0.00  0.00    +0.000 OA
BRANCH   7   8
ATOM      8  C   UNL     1       1.488   9.650  19.322  0.00  0.00    +0.000 C 
BRANCH   8   9
ATOM      9  C   UNL     1       0.394  10.498  19.953  0.00  0.00    +0.000 C 
BRANCH   9  13
ATOM     10  C   UNL     1      -2.993  10.995  17.421  0.00  0.00    +0.000 A 
ATOM     11  C   UNL     1      -2.009  10.076  17.063  0.00  0.00    +0.000 A 
ATOM     12  C   UNL     1      -0.891   9.917  17.878  0.00  0.00    +0.000 A 
ATOM     13  C   UNL     1      -0.789  10.674  19.041  0.00  0.00    +0.000 A 
ATOM     14  N   UNL     1      -1.729  11.579  19.406  0.00  0.00    +0.000 NA
ATOM     15  C   UNL     1      -2.806  11.722  18.590  0.00  0.00    +0.000 A 
BRANCH  10  17
ATOM     16  C   UNL     1      -5.435  11.792  17.296  0.00  0.00    +0.000 C 
ATOM     17  C   UNL     1      -4.219  11.219  16.616  0.00  0.00    +0.000 C 
ATOM     18  O   UNL     1      -4.222  10.948  15.417  0.00  0.00    +0.000 OA
ENDBRANCH  10  17
ENDBRANCH   9  13
ENDBRANCH   8   9
ENDBRANCH   7   8
ENDBRANCH   1   7
BRANCH   4  19
ATOM     19  C   UNL     1       4.767   4.480  17.159  0.00  0.00    +0.000 C 
BRANCH  19  20
ATOM     20  C   UNL     1       6.284   4.686  17.197  0.00  0.00    +0.000 C 
ATOM     21  S   UNL     1       6.894   5.467  18.728  0.00  0.00    +0.000 S 
ATOM     22  C   UNL     1       7.649   6.781  17.868  0.00  0.00    +0.000 C 
ATOM     23  O   UNL     1       8.189   7.728  18.412  0.00  0.00    +0.000 OA
ATOM     24  N   UNL     1       7.548   6.598  16.532  0.00  0.00    +0.000 N 
ATOM     25  C   UNL     1       6.795   5.561  16.070  0.00  0.00    +0.000 C 
ATOM     26  O   UNL     1       6.582   5.366  14.879  0.00  0.00    +0.000 OA
ATOM     27  H   UNL     1       7.927   7.284  15.898  0.00  0.00    +0.000 HD
ENDBRANCH  19  20
ENDBRANCH   4  19
TORSDOF 7
ENDMDL
MODEL 5
REMARK VINA RESULT:      -7.8      3.222      9.273
REMARK  Name = 
REMARK  8 active torsions:
REMARK  status: ('A' for Active; 'I' for Inactive)
REMARK    1  A    between atoms: C_1  and  C_2
REMARK    2  A    between atoms: C_2  and  C_4
REMARK    3  A    between atoms: C_7  and  C_8
REMARK    4  A    between atoms: C_8  and  C_9
REMARK    5  A    between atoms: C_9  and  O_10
REMARK    6  A    between atoms: O_10  and  C_11
REMARK    7  A    between atoms: C_14  and  C_15
REMARK    8  A    between atoms: C_15  and  C_16
REMARK                            x       y       z     vdW  Elec       q    Type
REMARK                         _______ _______ _______ _____ _____    ______ ____
ROOT
ATOM      1  C   UNL     1       2.574   7.414  18.735  0.00  0.00    +0.000 A 
ATOM      2  C   UNL     1       1.937   7.684  19.948  0.00  0.00    +0.000 A 
ATOM      3  C   UNL     1       1.191   8.845  20.121  0.00  0.00    +0.000 A 
ATOM      4  C   UNL     1       1.057   9.771  19.085  0.00  0.00    +0.000 A 
ATOM      5  C   UNL     1       1.694   9.505  17.864  0.00  0.00    +0.000 A 
ATOM      6  C   UNL     1       2.449   8.337  17.692  0.00  0.00    +0.000 A 
ENDROOT
BRANCH   1   7
ATOM      7  O   UNL     1       3.330   6.293  18.477  0.00  0.00    +0.000 OA
BRANCH   7   8
ATOM      8  C   UNL     1       3.606   5.483  19.631  0.00  0.00    +0.000 C 
BRANCH   8   9
ATOM      9  C   UNL     1       4.947   4.771  19.528  0.00  0.00    +0.000 C 
BRANCH   9  13
ATOM     10  C   UNL     1       6.411   4.712  15.530  0.00  0.00    +0.000 A 
ATOM     11  C   UNL     1       5.364   3.862  15.881  0.00  0.00    +0.000 A 
ATOM     12  C   UNL     1       4.889   3.865  17.190  0.00  0.00    +0.000 A 
ATOM     13  C   UNL     1       5.464   4.728  18.116  0.00  0.00    +0.000 A 
ATOM     14  N   UNL     1       6.488   5.558  17.801  0.00  0.00    +0.000 NA
ATOM     15  C   UNL     1       6.940   5.531  16.521  0.00  0.00    +0.000 A 
BRANCH  10  17
ATOM     16  C   UNL     1       6.396   3.874  13.100  0.00  0.00    +0.000 C 
ATOM     17  C   UNL     1       6.970   4.780  14.158  0.00  0.00    +0.000 C 
ATOM     18  O   UNL     1       7.873   5.572  13.903  0.00  0.00    +0.000 OA
ENDBRANCH  10  17
ENDBRANCH   9  13
ENDBRANCH   8   9
ENDBRANCH   7   8
ENDBRANCH   1   7
BRANCH   4  19
ATOM     19  C   UNL     1       0.222  11.013  19.302  0.00  0.00    +0.000 C 
BRANCH  19  20
ATOM     20  C   UNL     1      -1.293  10.815  19.397  0.00  0.00    +0.000 C 
ATOM     21  S   UNL     1      -2.048  10.097  17.899  0.00  0.00    +0.000 S 
ATOM     22  C   UNL     1      -3.149  11.434  17.701  0.00  0.00    +0.000 C 
ATOM     23  O   UNL     1      -3.907  11.555  16.754  0.00  0.00    +0.000 OA
ATOM     24  N   UNL     1      -3.038  12.301  18.733  0.00  0.00    +0.000 N 
ATOM     25  C   UNL     1      -2.049  12.104  19.648  0.00  0.00    +0.000 C 
ATOM     26  O   UNL     1      -1.824  12.881  20.568  0.00  0.00    +0.000 OA
ATOM     27  H   UNL     1      -3.604  13.135  18.753  0.00  0.00    +0.000 HD
ENDBRANCH  19  20
ENDBRANCH   4  19
TORSDOF 7
ENDMDL
MODEL 6
REMARK VINA RESULT:      -7.7      3.324      8.469
REMARK  Name = 
REMARK  8 active torsions:
REMARK  status: ('A' for Active; 'I' for Inactive)
REMARK    1  A    between atoms: C_1  and  C_2
REMARK    2  A    between atoms: C_2  and  C_4
REMARK    3  A    between atoms: C_7  and  C_8
REMARK    4  A    between atoms: C_8  and  C_9
REMARK    5  A    between atoms: C_9  and  O_10
REMARK    6  A    between atoms: O_10  and  C_11
REMARK    7  A    between atoms: C_14  and  C_15
REMARK    8  A    between atoms: C_15  and  C_16
REMARK                            x       y       z     vdW  Elec       q    Type
REMARK                         _______ _______ _______ _____ _____    ______ ____
ROOT
ATOM      1  C   UNL     1       1.448   3.936  19.049  0.00  0.00    +0.000 A 
ATOM      2  C   UNL     1       1.396   4.308  20.395  0.00  0.00    +0.000 A 
ATOM      3  C   UNL     1       1.626   5.624  20.781  0.00  0.00    +0.000 A 
ATOM      4  C   UNL     1       1.913   6.609  19.834  0.00  0.00    +0.000 A 
ATOM      5  C   UNL     1       1.965   6.242  18.482  0.00  0.00    +0.000 A 
ATOM      6  C   UNL     1       1.737   4.914  18.093  0.00  0.00    +0.000 A 
ENDROOT
BRANCH   1   7
ATOM      7  O   UNL     1       1.235   2.660  18.579  0.00  0.00    +0.000 OA
BRANCH   7   8
ATOM      8  C   UNL     1       2.323   2.117  17.814  0.00  0.00    +0.000 C 
BRANCH   8   9
ATOM      9  C   UNL     1       3.620   2.073  18.609  0.00  0.00    +0.000 C 
BRANCH   9  13
ATOM     10  C   UNL     1       6.301   5.196  17.516  0.00  0.00    +0.000 A 
ATOM     11  C   UNL     1       6.009   4.995  18.864  0.00  0.00    +0.000 A 
ATOM     12  C   UNL     1       5.122   3.985  19.229  0.00  0.00    +0.000 A 
ATOM     13  C   UNL     1       4.557   3.190  18.237  0.00  0.00    +0.000 A 
ATOM     14  N   UNL     1       4.819   3.371  16.920  0.00  0.00    +0.000 NA
ATOM     15  C   UNL     1       5.680   4.368  16.589  0.00  0.00    +0.000 A 
BRANCH  10  17
ATOM     16  C   UNL     1       7.697   7.297  18.016  0.00  0.00    +0.000 C 
ATOM     17  C   UNL     1       7.241   6.241  17.042  0.00  0.00    +0.000 C 
ATOM     18  O   UNL     1       7.639   6.225  15.880  0.00  0.00    +0.000 OA
ENDBRANCH  10  17
ENDBRANCH   9  13
ENDBRANCH   8   9
ENDBRANCH   7   8
ENDBRANCH   1   7
BRANCH   4  19
ATOM     19  C   UNL     1       2.138   8.034  20.290  0.00  0.00    +0.000 C 
BRANCH  19  20
ATOM     20  C   UNL     1       0.934   8.977  20.216  0.00  0.00    +0.000 C 
ATOM     21  S   UNL     1       0.797   9.893  18.644  0.00  0.00    +0.000 S 
ATOM     22  C   UNL     1       0.815  11.445  19.439  0.00  0.00    +0.000 C 
ATOM     23  O   UNL     1       0.827  12.511  18.848  0.00  0.00    +0.000 OA
ATOM     24  N   UNL     1       0.814  11.292  20.783  0.00  0.00    +0.000 N 
ATOM     25  C   UNL     1       0.940  10.038  21.298  0.00  0.00    +0.000 C 
ATOM     26  O   UNL     1       1.029   9.813  22.499  0.00  0.00    +0.000 OA
ATOM     27  H   UNL     1       0.836  12.102  21.382  0.00  0.00    +0.000 HD
ENDBRANCH  19  20
ENDBRANCH   4  19
TORSDOF 7
ENDMDL
MODEL 7
REMARK VINA RESULT:      -7.7      2.603      8.982
REMARK  Name = 
REMARK  8 active torsions:
REMARK  status: ('A' for Active; 'I' for Inactive)
REMARK    1  A    between atoms: C_1  and  C_2
REMARK    2  A    between atoms: C_2  and  C_4
REMARK    3  A    between atoms: C_7  and  C_8
REMARK    4  A    between atoms: C_8  and  C_9
REMARK    5  A    between atoms: C_9  and  O_10
REMARK    6  A    between atoms: O_10  and  C_11
REMARK    7  A    between atoms: C_14  and  C_15
REMARK    8  A    between atoms: C_15  and  C_16
REMARK                            x       y       z     vdW  Elec       q    Type
REMARK                         _______ _______ _______ _____ _____    ______ ____
ROOT
ATOM      1  C   UNL     1       2.134   7.060  20.198  0.00  0.00    +0.000 A 
ATOM      2  C   UNL     1       1.292   7.724  21.094  0.00  0.00    +0.000 A 
ATOM      3  C   UNL     1       0.656   8.907  20.733  0.00  0.00    +0.000 A 
ATOM      4  C   UNL     1       0.841   9.461  19.465  0.00  0.00    +0.000 A 
ATOM      5  C   UNL     1       1.684   8.800  18.562  0.00  0.00    +0.000 A 
ATOM      6  C   UNL     1       2.329   7.609  18.928  0.00  0.00    +0.000 A 
ENDROOT
BRANCH   1   7
ATOM      7  O   UNL     1       2.803   5.888  20.471  0.00  0.00    +0.000 OA
BRANCH   7   8
ATOM      8  C   UNL     1       1.951   4.748  20.667  0.00  0.00    +0.000 C 
BRANCH   8   9
ATOM      9  C   UNL     1       2.011   3.776  19.498  0.00  0.00    +0.000 C 
BRANCH   9  13
ATOM     10  C   UNL     1       5.601   4.251  17.257  0.00  0.00    +0.000 A 
ATOM     11  C   UNL     1       4.374   4.410  16.614  0.00  0.00    +0.000 A 
ATOM     12  C   UNL     1       3.196   4.243  17.336  0.00  0.00    +0.000 A 
ATOM     13  C   UNL     1       3.271   3.931  18.690  0.00  0.00    +0.000 A 
ATOM     14  N   UNL     1       4.450   3.764  19.335  0.00  0.00    +0.000 NA
ATOM     15  C   UNL     1       5.586   3.924  18.607  0.00  0.00    +0.000 A 
BRANCH  10  17
ATOM     16  C   UNL     1       6.903   4.635  15.073  0.00  0.00    +0.000 C 
ATOM     17  C   UNL     1       6.901   4.421  16.565  0.00  0.00    +0.000 C 
ATOM     18  O   UNL     1       7.946   4.398  17.211  0.00  0.00    +0.000 OA
ENDBRANCH  10  17
ENDBRANCH   9  13
ENDBRANCH   8   9
ENDBRANCH   7   8
ENDBRANCH   1   7
BRANCH   4  19
ATOM     19  C   UNL     1       0.117  10.739  19.101  0.00  0.00    +0.000 C 
BRANCH  19  20
ATOM     20  C   UNL     1      -1.386  10.625  18.832  0.00  0.00    +0.000 C 
ATOM     21  S   UNL     1      -1.803   9.786  17.266  0.00  0.00    +0.000 S 
ATOM     22  C   UNL     1      -2.721  11.145  16.675  0.00  0.00    +0.000 C 
ATOM     23  O   UNL     1      -3.214  11.200  15.562  0.00  0.00    +0.000 OA
ATOM     24  N   UNL     1      -2.802  12.112  17.617  0.00  0.00    +0.000 N 
ATOM     25  C   UNL     1      -2.084  11.968  18.765  0.00  0.00    +0.000 C 
ATOM     26  O   UNL     1      -2.034  12.828  19.636  0.00  0.00    +0.000 OA
ATOM     27  H   UNL     1      -3.293  12.970  17.418  0.00  0.00    +0.000 HD
ENDBRANCH  19  20
ENDBRANCH   4  19
TORSDOF 7
ENDMDL
MODEL 8
REMARK VINA RESULT:      -7.7      2.152      3.060
REMARK  Name = 
REMARK  8 active torsions:
REMARK  status: ('A' for Active; 'I' for Inactive)
REMARK    1  A    between atoms: C_1  and  C_2
REMARK    2  A    between atoms: C_2  and  C_4
REMARK    3  A    between atoms: C_7  and  C_8
REMARK    4  A    between atoms: C_8  and  C_9
REMARK    5  A    between atoms: C_9  and  O_10
REMARK    6  A    between atoms: O_10  and  C_11
REMARK    7  A    between atoms: C_14  and  C_15
REMARK    8  A    between atoms: C_15  and  C_16
REMARK                            x       y       z     vdW  Elec       q    Type
REMARK                         _______ _______ _______ _____ _____    ______ ____
ROOT
ATOM      1  C   UNL     1       1.258   9.487  19.288  0.00  0.00    +0.000 A 
ATOM      2  C   UNL     1       1.439   8.363  20.098  0.00  0.00    +0.000 A 
ATOM      3  C   UNL     1       2.150   7.259  19.639  0.00  0.00    +0.000 A 
ATOM      4  C   UNL     1       2.705   7.247  18.358  0.00  0.00    +0.000 A 
ATOM      5  C   UNL     1       2.528   8.373  17.541  0.00  0.00    +0.000 A 
ATOM      6  C   UNL     1       1.806   9.483  18.003  0.00  0.00    +0.000 A 
ENDROOT
BRANCH   1   7
ATOM      7  O   UNL     1       0.568  10.619  19.660  0.00  0.00    +0.000 OA
BRANCH   7   8
ATOM      8  C   UNL     1      -0.288  11.157  18.640  0.00  0.00    +0.000 C 
BRANCH   8   9
ATOM      9  C   UNL     1      -1.374  10.177  18.222  0.00  0.00    +0.000 C 
BRANCH   9  13
ATOM     10  C   UNL     1      -5.168  12.050  17.745  0.00  0.00    +0.000 A 
ATOM     11  C   UNL     1      -4.598  11.389  16.659  0.00  0.00    +0.000 A 
ATOM     12  C   UNL     1      -3.351  10.786  16.803  0.00  0.00    +0.000 A 
ATOM     13  C   UNL     1      -2.708  10.847  18.035  0.00  0.00    +0.000 A 
ATOM     14  N   UNL     1      -3.239  11.490  19.102  0.00  0.00    +0.000 NA
ATOM     15  C   UNL     1      -4.452  12.078  18.935  0.00  0.00    +0.000 A 
BRANCH  10  17
ATOM     16  C   UNL     1      -6.701  13.823  16.687  0.00  0.00    +0.000 C 
ATOM     17  C   UNL     1      -6.495  12.709  17.681  0.00  0.00    +0.000 C 
ATOM     18  O   UNL     1      -7.402  12.335  18.421  0.00  0.00    +0.000 OA
ENDBRANCH  10  17
ENDBRANCH   9  13
ENDBRANCH   8   9
ENDBRANCH   7   8
ENDBRANCH   1   7
BRANCH   4  19
ATOM     19  C   UNL     1       3.490   6.038  17.900  0.00  0.00    +0.000 C 
BRANCH  19  20
ATOM     20  C   UNL     1       4.855   5.816  18.557  0.00  0.00    +0.000 C 
ATOM     21  S   UNL     1       6.272   6.328  17.529  0.00  0.00    +0.000 S 
ATOM     22  C   UNL     1       7.002   4.746  17.582  0.00  0.00    +0.000 C 
ATOM     23  O   UNL     1       8.008   4.440  16.965  0.00  0.00    +0.000 OA
ATOM     24  N   UNL     1       6.300   3.923  18.394  0.00  0.00    +0.000 N 
ATOM     25  C   UNL     1       5.119   4.365  18.908  0.00  0.00    +0.000 C 
ATOM     26  O   UNL     1       4.379   3.663  19.587  0.00  0.00    +0.000 OA
ATOM     27  H   UNL     1       6.592   2.967  18.518  0.00  0.00    +0.000 HD
ENDBRANCH  19  20
ENDBRANCH   4  19
TORSDOF 7
ENDMDL
MODEL 9
REMARK VINA RESULT:      -7.6      3.944      9.389
REMARK  Name = 
REMARK  8 active torsions:
REMARK  status: ('A' for Active; 'I' for Inactive)
REMARK    1  A    between atoms: C_1  and  C_2
REMARK    2  A    between atoms: C_2  and  C_4
REMARK    3  A    between atoms: C_7  and  C_8
REMARK    4  A    between atoms: C_8  and  C_9
REMARK    5  A    between atoms: C_9  and  O_10
REMARK    6  A    between atoms: O_10  and  C_11
REMARK    7  A    between atoms: C_14  and  C_15
REMARK    8  A    between atoms: C_15  and  C_16
REMARK                            x       y       z     vdW  Elec       q    Type
REMARK                         _______ _______ _______ _____ _____    ______ ____
ROOT
ATOM      1  C   UNL     1       2.258   7.794  18.741  0.00  0.00    +0.000 A 
ATOM      2  C   UNL     1       2.061   8.930  17.952  0.00  0.00    +0.000 A 
ATOM      3  C   UNL     1       1.444  10.062  18.472  0.00  0.00    +0.000 A 
ATOM      4  C   UNL     1       1.008  10.095  19.798  0.00  0.00    +0.000 A 
ATOM      5  C   UNL     1       1.204   8.958  20.596  0.00  0.00    +0.000 A 
ATOM      6  C   UNL     1       1.822   7.815  20.069  0.00  0.00    +0.000 A 
ENDROOT
BRANCH   1   7
ATOM      7  O   UNL     1       2.857   6.632  18.308  0.00  0.00    +0.000 OA
BRANCH   7   8
ATOM      8  C   UNL     1       3.075   5.655  19.338  0.00  0.00    +0.000 C 
BRANCH   8   9
ATOM      9  C   UNL     1       4.531   5.221  19.423  0.00  0.00    +0.000 C 
BRANCH   9  13
ATOM     10  C   UNL     1       6.302   4.826  15.570  0.00  0.00    +0.000 A 
ATOM     11  C   UNL     1       5.309   3.927  15.955  0.00  0.00    +0.000 A 
ATOM     12  C   UNL     1       4.734   4.041  17.218  0.00  0.00    +0.000 A 
ATOM     13  C   UNL     1       5.159   5.060  18.065  0.00  0.00    +0.000 A 
ATOM     14  N   UNL     1       6.127   5.940  17.717  0.00  0.00    +0.000 NA
ATOM     15  C   UNL     1       6.678   5.803  16.483  0.00  0.00    +0.000 A 
BRANCH  10  17
ATOM     16  C   UNL     1       6.392   3.866  13.187  0.00  0.00    +0.000 C 
ATOM     17  C   UNL     1       6.958   4.782  14.241  0.00  0.00    +0.000 C 
ATOM     18  O   UNL     1       7.933   5.493  14.015  0.00  0.00    +0.000 OA
ENDBRANCH  10  17
ENDBRANCH   9  13
ENDBRANCH   8   9
ENDBRANCH   7   8
ENDBRANCH   1   7
BRANCH   4  19
ATOM     19  C   UNL     1       0.360  11.351  20.336  0.00  0.00    +0.000 C 
BRANCH  19  20
ATOM     20  C   UNL     1      -1.024  11.192  20.973  0.00  0.00    +0.000 C 
ATOM     21  S   UNL     1      -2.257  12.406  20.394  0.00  0.00    +0.000 S 
ATOM     22  C   UNL     1      -2.582  12.984  22.006  0.00  0.00    +0.000 C 
ATOM     23  O   UNL     1      -3.322  13.919  22.257  0.00  0.00    +0.000 OA
ATOM     24  N   UNL     1      -1.902  12.255  22.920  0.00  0.00    +0.000 N 
ATOM     25  C   UNL     1      -1.006  11.328  22.482  0.00  0.00    +0.000 C 
ATOM     26  O   UNL     1      -0.290  10.680  23.235  0.00  0.00    +0.000 OA
ATOM     27  H   UNL     1      -1.978  12.478  23.900  0.00  0.00    +0.000 HD
ENDBRANCH  19  20
ENDBRANCH   4  19
TORSDOF 7
ENDMDL
