MODEL 1
REMARK VINA RESULT:      -7.4      0.000      0.000
REMARK  Name = 
REMARK  5 active torsions:
REMARK  status: ('A' for Active; 'I' for Inactive)
REMARK    1  A    between atoms: C_2  and  C_3
REMARK    2  A    between atoms: C_3  and  N_4
REMARK    3  A    between atoms: C_6  and  C_7
REMARK    4  A    between atoms: C_8  and  C_9
REMARK    5  A    between atoms: C_13  and  O_14
REMARK                            x       y       z     vdW  Elec       q    Type
REMARK                         _______ _______ _______ _____ _____    ______ ____
ROOT
ATOM      1  C   UNL     1       8.042   8.868  17.600  0.00  0.00    +0.000 C 
ATOM      2  C   UNL     1       8.709   9.353  18.686  0.00  0.00    +0.000 C 
ENDROOT
BRANCH   1   5
ATOM      3  N   UNL     1       6.356   5.661  16.966  0.00  0.00    +0.000 N 
ATOM      4  N   UNL     1       6.478   7.039  16.621  0.00  0.00    +0.000 NA
ATOM      5  C   UNL     1       7.402   7.485  17.436  0.00  0.00    +0.000 A 
ATOM      6  O   UNL     1       7.891   6.569  18.303  0.00  0.00    +0.000 OA
ATOM      7  C   UNL     1       7.220   5.417  17.998  0.00  0.00    +0.000 A 
ATOM      8  O   UNL     1       7.402   4.362  18.595  0.00  0.00    +0.000 OA
BRANCH   3   9
ATOM      9  C   UNL     1       5.345   4.633  16.409  0.00  0.00    +0.000 C 
BRANCH   9  11
ATOM     10  C   UNL     1       6.232   3.877  13.838  0.00  0.00    +0.000 C 
ATOM     11  C   UNL     1       5.822   4.226  15.025  0.00  0.00    +0.000 C 
ENDBRANCH   9  11
ENDBRANCH   3   9
ENDBRANCH   1   5
BRANCH   2  12
ATOM     12  C   UNL     1       9.376  10.698  18.884  0.00  0.00    +0.000 A 
ATOM     13  C   UNL     1      10.109  10.975  20.069  0.00  0.00    +0.000 A 
ATOM     14  C   UNL     1      10.760  12.209  20.290  0.00  0.00    +0.000 A 
ATOM     15  C   UNL     1      10.700  13.217  19.334  0.00  0.00    +0.000 A 
ATOM     16  C   UNL     1       9.990  12.973  18.168  0.00  0.00    +0.000 A 
ATOM     17  C   UNL     1       9.341  11.738  17.937  0.00  0.00    +0.000 A 
BRANCH  16  18
ATOM     18  O   UNL     1       9.909  13.933  17.195  0.00  0.00    +0.000 OA
ATOM     19  H   UNL     1       9.131  13.758  16.650  0.00  0.00    +0.000 HD
ENDBRANCH  16  18
ENDBRANCH   2  12
TORSDOF 5
ENDMDL
MODEL 2
REMARK VINA RESULT:      -7.4      6.272      8.489
REMARK  Name = 
REMARK  5 active torsions:
REMARK  status: ('A' for Active; 'I' for Inactive)
REMARK    1  A    between atoms: C_2  and  C_3
REMARK    2  A    between atoms: C_3  and  N_4
REMARK    3  A    between atoms: C_6  and  C_7
REMARK    4  A    between atoms: C_8  and  C_9
REMARK    5  A    between atoms: C_13  and  O_14
REMARK                            x       y       z     vdW  Elec       q    Type
REMARK                         _______ _______ _______ _____ _____    ______ ____
ROOT
ATOM      1  C   UNL     1       4.754   4.184  17.162  0.00  0.00    +0.000 C 
ATOM      2  C   UNL     1       3.558   3.595  17.449  0.00  0.00    +0.000 C 
ENDROOT
BRANCH   1   5
ATOM      3  N   UNL     1       6.248   4.131  13.802  0.00  0.00    +0.000 N 
ATOM      4  N   UNL     1       5.213   3.658  14.660  0.00  0.00    +0.000 NA
ATOM      5  C   UNL     1       5.472   4.232  15.810  0.00  0.00    +0.000 A 
ATOM      6  O   UNL     1       6.577   5.012  15.823  0.00  0.00    +0.000 OA
ATOM      7  C   UNL     1       7.063   4.939  14.547  0.00  0.00    +0.000 A 
ATOM      8  O   UNL     1       8.078   5.524  14.186  0.00  0.00    +0.000 OA
BRANCH   3   9
ATOM      9  C   UNL     1       6.527   3.717  12.339  0.00  0.00    +0.000 C 
BRANCH   9  11
ATOM     10  C   UNL     1       4.053   3.026  11.167  0.00  0.00    +0.000 C 
ATOM     11  C   UNL     1       5.195   3.345  11.708  0.00  0.00    +0.000 C 
ENDBRANCH   9  11
ENDBRANCH   3   9
ENDBRANCH   1   5
BRANCH   2  12
ATOM     12  C   UNL     1       2.824   3.501  18.770  0.00  0.00    +0.000 A 
ATOM     13  C   UNL     1       1.546   4.101  18.933  0.00  0.00    +0.000 A 
ATOM     14  C   UNL     1       0.819   4.025  20.142  0.00  0.00    +0.000 A 
ATOM     15  C   UNL     1       1.343   3.348  21.237  0.00  0.00    +0.000 A 
ATOM     16  C   UNL     1       2.589   2.754  21.105  0.00  0.00    +0.000 A 
ATOM     17  C   UNL     1       3.320   2.820  19.897  0.00  0.00    +0.000 A 
BRANCH  16  18
ATOM     18  O   UNL     1       3.142   2.070  22.155  0.00  0.00    +0.000 OA
ATOM     19  H   UNL     1       3.802   2.634  22.580  0.00  0.00    +0.000 HD
ENDBRANCH  16  18
ENDBRANCH   2  12
TORSDOF 5
ENDMDL
MODEL 3
REMARK VINA RESULT:      -7.2      0.897      1.495
REMARK  Name = 
REMARK  5 active torsions:
REMARK  status: ('A' for Active; 'I' for Inactive)
REMARK    1  A    between atoms: C_2  and  C_3
REMARK    2  A    between atoms: C_3  and  N_4
REMARK    3  A    between atoms: C_6  and  C_7
REMARK    4  A    between atoms: C_8  and  C_9
REMARK    5  A    between atoms: C_13  and  O_14
REMARK                            x       y       z     vdW  Elec       q    Type
REMARK                         _______ _______ _______ _____ _____    ______ ____
ROOT
ATOM      1  C   UNL     1       8.223   9.066  17.721  0.00  0.00    +0.000 C 
ATOM      2  C   UNL     1       8.854   9.594  18.809  0.00  0.00    +0.000 C 
ENDROOT
BRANCH   1   5
ATOM      3  N   UNL     1       6.506   5.859  17.185  0.00  0.00    +0.000 N 
ATOM      4  N   UNL     1       6.619   7.232  16.822  0.00  0.00    +0.000 NA
ATOM      5  C   UNL     1       7.574   7.684  17.597  0.00  0.00    +0.000 A 
ATOM      6  O   UNL     1       8.092   6.775  18.455  0.00  0.00    +0.000 OA
ATOM      7  C   UNL     1       7.406   5.623  18.187  0.00  0.00    +0.000 A 
ATOM      8  O   UNL     1       7.607   4.573  18.788  0.00  0.00    +0.000 OA
BRANCH   3   9
ATOM      9  C   UNL     1       5.471   4.828  16.678  0.00  0.00    +0.000 C 
BRANCH   9  11
ATOM     10  C   UNL     1       3.006   5.420  17.919  0.00  0.00    +0.000 C 
ATOM     11  C   UNL     1       4.144   5.147  17.346  0.00  0.00    +0.000 C 
ENDBRANCH   9  11
ENDBRANCH   3   9
ENDBRANCH   1   5
BRANCH   2  12
ATOM     12  C   UNL     1       9.529  10.940  18.971  0.00  0.00    +0.000 A 
ATOM     13  C   UNL     1      10.159  11.292  20.195  0.00  0.00    +0.000 A 
ATOM     14  C   UNL     1      10.814  12.529  20.386  0.00  0.00    +0.000 A 
ATOM     15  C   UNL     1      10.862  13.465  19.360  0.00  0.00    +0.000 A 
ATOM     16  C   UNL     1      10.254  13.147  18.155  0.00  0.00    +0.000 A 
ATOM     17  C   UNL     1       9.602  11.909  17.954  0.00  0.00    +0.000 A 
BRANCH  16  18
ATOM     18  O   UNL     1      10.281  14.035  17.112  0.00  0.00    +0.000 OA
ATOM     19  H   UNL     1      10.982  13.775  16.500  0.00  0.00    +0.000 HD
ENDBRANCH  16  18
ENDBRANCH   2  12
TORSDOF 5
ENDMDL
MODEL 4
REMARK VINA RESULT:      -7.1      2.053      2.659
REMARK  Name = 
REMARK  5 active torsions:
REMARK  status: ('A' for Active; 'I' for Inactive)
REMARK    1  A    between atoms: C_2  and  C_3
REMARK    2  A    between atoms: C_3  and  N_4
REMARK    3  A    between atoms: C_6  and  C_7
REMARK    4  A    between atoms: C_8  and  C_9
REMARK    5  A    between atoms: C_13  and  O_14
REMARK                            x       y       z     vdW  Elec       q    Type
REMARK                         _______ _______ _______ _____ _____    ______ ____
ROOT
ATOM      1  C   UNL     1       8.295   7.849  18.283  0.00  0.00    +0.000 C 
ATOM      2  C   UNL     1       8.303   9.196  18.075  0.00  0.00    +0.000 C 
ENDROOT
BRANCH   1   5
ATOM      3  N   UNL     1       5.911   5.337  17.043  0.00  0.00    +0.000 N 
ATOM      4  N   UNL     1       6.414   6.061  18.163  0.00  0.00    +0.000 NA
ATOM      5  C   UNL     1       7.359   6.812  17.653  0.00  0.00    +0.000 A 
ATOM      6  O   UNL     1       7.562   6.651  16.325  0.00  0.00    +0.000 OA
ATOM      7  C   UNL     1       6.641   5.713  15.949  0.00  0.00    +0.000 A 
ATOM      8  O   UNL     1       6.536   5.306  14.798  0.00  0.00    +0.000 OA
BRANCH   3   9
ATOM      9  C   UNL     1       4.845   4.217  17.042  0.00  0.00    +0.000 C 
BRANCH   9  11
ATOM     10  C   UNL     1       2.442   5.332  18.019  0.00  0.00    +0.000 C 
ATOM     11  C   UNL     1       3.552   4.817  17.568  0.00  0.00    +0.000 C 
ENDBRANCH   9  11
ENDBRANCH   3   9
ENDBRANCH   1   5
BRANCH   2  12
ATOM     12  C   UNL     1       9.189  10.260  18.690  0.00  0.00    +0.000 A 
ATOM     13  C   UNL     1      10.100  10.997  17.888  0.00  0.00    +0.000 A 
ATOM     14  C   UNL     1      10.933  12.008  18.416  0.00  0.00    +0.000 A 
ATOM     15  C   UNL     1      10.891  12.318  19.771  0.00  0.00    +0.000 A 
ATOM     16  C   UNL     1      10.011  11.612  20.577  0.00  0.00    +0.000 A 
ATOM     17  C   UNL     1       9.169  10.603  20.055  0.00  0.00    +0.000 A 
BRANCH  16  18
ATOM     18  O   UNL     1       9.929  11.888  21.916  0.00  0.00    +0.000 OA
ATOM     19  H   UNL     1       9.268  11.305  22.313  0.00  0.00    +0.000 HD
ENDBRANCH  16  18
ENDBRANCH   2  12
TORSDOF 5
ENDMDL
MODEL 5
REMARK VINA RESULT:      -7.0      1.445      1.747
REMARK  Name = 
REMARK  5 active torsions:
REMARK  status: ('A' for Active; 'I' for Inactive)
REMARK    1  A    between atoms: C_2  and  C_3
REMARK    2  A    between atoms: C_3  and  N_4
REMARK    3  A    between atoms: C_6  and  C_7
REMARK    4  A    between atoms: C_8  and  C_9
REMARK    5  A    between atoms: C_13  and  O_14
REMARK                            x       y       z     vdW  Elec       q    Type
REMARK                         _______ _______ _______ _____ _____    ______ ____
ROOT
ATOM      1  C   UNL     1       8.428   7.890  18.385  0.00  0.00    +0.000 C 
ATOM      2  C   UNL     1       8.335   9.241  18.228  0.00  0.00    +0.000 C 
ENDROOT
BRANCH   1   5
ATOM      3  N   UNL     1       6.058   5.464  16.960  0.00  0.00    +0.000 N 
ATOM      4  N   UNL     1       6.804   6.664  16.770  0.00  0.00    +0.000 NA
ATOM      5  C   UNL     1       7.438   6.823  17.906  0.00  0.00    +0.000 A 
ATOM      6  O   UNL     1       7.180   5.881  18.842  0.00  0.00    +0.000 OA
ATOM      7  C   UNL     1       6.302   5.026  18.233  0.00  0.00    +0.000 A 
ATOM      8  O   UNL     1       5.836   4.040  18.793  0.00  0.00    +0.000 OA
BRANCH   3   9
ATOM      9  C   UNL     1       5.035   4.823  15.995  0.00  0.00    +0.000 C 
BRANCH   9  11
ATOM     10  C   UNL     1       6.441   4.021  13.681  0.00  0.00    +0.000 C 
ATOM     11  C   UNL     1       5.792   4.391  14.749  0.00  0.00    +0.000 C 
ENDBRANCH   9  11
ENDBRANCH   3   9
ENDBRANCH   1   5
BRANCH   2  12
ATOM     12  C   UNL     1       9.272  10.332  18.704  0.00  0.00    +0.000 A 
ATOM     13  C   UNL     1      10.139  10.991  17.791  0.00  0.00    +0.000 A 
ATOM     14  C   UNL     1      11.018  12.024  18.187  0.00  0.00    +0.000 A 
ATOM     15  C   UNL     1      11.066  12.435  19.515  0.00  0.00    +0.000 A 
ATOM     16  C   UNL     1      10.232  11.807  20.426  0.00  0.00    +0.000 A 
ATOM     17  C   UNL     1       9.345  10.777  20.036  0.00  0.00    +0.000 A 
BRANCH  16  18
ATOM     18  O   UNL     1      10.239  12.184  21.743  0.00  0.00    +0.000 OA
ATOM     19  H   UNL     1      10.558  11.444  22.276  0.00  0.00    +0.000 HD
ENDBRANCH  16  18
ENDBRANCH   2  12
TORSDOF 5
ENDMDL
MODEL 6
REMARK VINA RESULT:      -7.0      1.442      2.041
REMARK  Name = 
REMARK  5 active torsions:
REMARK  status: ('A' for Active; 'I' for Inactive)
REMARK    1  A    between atoms: C_2  and  C_3
REMARK    2  A    between atoms: C_3  and  N_4
REMARK    3  A    between atoms: C_6  and  C_7
REMARK    4  A    between atoms: C_8  and  C_9
REMARK    5  A    between atoms: C_13  and  O_14
REMARK                            x       y       z     vdW  Elec       q    Type
REMARK                         _______ _______ _______ _____ _____    ______ ____
ROOT
ATOM      1  C   UNL     1       8.205   9.051  17.888  0.00  0.00    +0.000 C 
ATOM      2  C   UNL     1       8.982   9.431  18.942  0.00  0.00    +0.000 C 
ENDROOT
BRANCH   1   5
ATOM      3  N   UNL     1       6.660   5.840  16.979  0.00  0.00    +0.000 N 
ATOM      4  N   UNL     1       6.768   7.235  16.711  0.00  0.00    +0.000 NA
ATOM      5  C   UNL     1       7.618   7.663  17.612  0.00  0.00    +0.000 A 
ATOM      6  O   UNL     1       8.068   6.717  18.468  0.00  0.00    +0.000 OA
ATOM      7  C   UNL     1       7.452   5.566  18.059  0.00  0.00    +0.000 A 
ATOM      8  O   UNL     1       7.620   4.487  18.617  0.00  0.00    +0.000 OA
BRANCH   3   9
ATOM      9  C   UNL     1       5.720   4.816  16.301  0.00  0.00    +0.000 C 
BRANCH   9  11
ATOM     10  C   UNL     1       3.247   4.906  17.661  0.00  0.00    +0.000 C 
ATOM     11  C   UNL     1       4.389   4.865  17.033  0.00  0.00    +0.000 C 
ENDBRANCH   9  11
ENDBRANCH   3   9
ENDBRANCH   1   5
BRANCH   2  12
ATOM     12  C   UNL     1       9.603  10.778  19.244  0.00  0.00    +0.000 A 
ATOM     13  C   UNL     1      10.393  11.446  18.270  0.00  0.00    +0.000 A 
ATOM     14  C   UNL     1      10.979  12.711  18.501  0.00  0.00    +0.000 A 
ATOM     15  C   UNL     1      10.800  13.356  19.720  0.00  0.00    +0.000 A 
ATOM     16  C   UNL     1      10.035  12.726  20.689  0.00  0.00    +0.000 A 
ATOM     17  C   UNL     1       9.440  11.463  20.462  0.00  0.00    +0.000 A 
BRANCH  16  18
ATOM     18  O   UNL     1       9.825  13.326  21.902  0.00  0.00    +0.000 OA
ATOM     19  H   UNL     1       8.879  13.488  22.010  0.00  0.00    +0.000 HD
ENDBRANCH  16  18
ENDBRANCH   2  12
TORSDOF 5
ENDMDL
MODEL 7
REMARK VINA RESULT:      -7.0      1.438      1.946
REMARK  Name = 
REMARK  5 active torsions:
REMARK  status: ('A' for Active; 'I' for Inactive)
REMARK    1  A    between atoms: C_2  and  C_3
REMARK    2  A    between atoms: C_3  and  N_4
REMARK    3  A    between atoms: C_6  and  C_7
REMARK    4  A    between atoms: C_8  and  C_9
REMARK    5  A    between atoms: C_13  and  O_14
REMARK                            x       y       z     vdW  Elec       q    Type
REMARK                         _______ _______ _______ _____ _____    ______ ____
ROOT
ATOM      1  C   UNL     1       7.710   8.677  17.537  0.00  0.00    +0.000 C 
ATOM      2  C   UNL     1       8.514   9.030  18.580  0.00  0.00    +0.000 C 
ENDROOT
BRANCH   1   5
ATOM      3  N   UNL     1       5.950   5.482  17.068  0.00  0.00    +0.000 N 
ATOM      4  N   UNL     1       5.991   6.740  17.737  0.00  0.00    +0.000 NA
ATOM      5  C   UNL     1       7.074   7.309  17.268  0.00  0.00    +0.000 A 
ATOM      6  O   UNL     1       7.775   6.563  16.383  0.00  0.00    +0.000 OA
ATOM      7  C   UNL     1       7.055   5.406  16.266  0.00  0.00    +0.000 A 
ATOM      8  O   UNL     1       7.399   4.478  15.542  0.00  0.00    +0.000 OA
BRANCH   3   9
ATOM      9  C   UNL     1       4.948   4.325  17.289  0.00  0.00    +0.000 C 
BRANCH   9  11
ATOM     10  C   UNL     1       2.502   5.468  18.113  0.00  0.00    +0.000 C 
ATOM     11  C   UNL     1       3.632   4.940  17.733  0.00  0.00    +0.000 C 
ENDBRANCH   9  11
ENDBRANCH   3   9
ENDBRANCH   1   5
BRANCH   2  12
ATOM     12  C   UNL     1       9.183  10.356  18.874  0.00  0.00    +0.000 A 
ATOM     13  C   UNL     1       9.716  10.629  20.162  0.00  0.00    +0.000 A 
ATOM     14  C   UNL     1      10.362  11.846  20.476  0.00  0.00    +0.000 A 
ATOM     15  C   UNL     1      10.497  12.840  19.514  0.00  0.00    +0.000 A 
ATOM     16  C   UNL     1       9.984  12.600  18.248  0.00  0.00    +0.000 A 
ATOM     17  C   UNL     1       9.342  11.382  17.924  0.00  0.00    +0.000 A 
BRANCH  16  18
ATOM     18  O   UNL     1      10.100  13.546  17.265  0.00  0.00    +0.000 OA
ATOM     19  H   UNL     1      10.258  13.102  16.422  0.00  0.00    +0.000 HD
ENDBRANCH  16  18
ENDBRANCH   2  12
TORSDOF 5
ENDMDL
MODEL 8
REMARK VINA RESULT:      -6.9      6.332      7.927
REMARK  Name = 
REMARK  5 active torsions:
REMARK  status: ('A' for Active; 'I' for Inactive)
REMARK    1  A    between atoms: C_2  and  C_3
REMARK    2  A    between atoms: C_3  and  N_4
REMARK    3  A    between atoms: C_6  and  C_7
REMARK    4  A    between atoms: C_8  and  C_9
REMARK    5  A    between atoms: C_13  and  O_14
REMARK                            x       y       z     vdW  Elec       q    Type
REMARK                         _______ _______ _______ _____ _____    ______ ____
ROOT
ATOM      1  C   UNL     1       4.717   4.613  16.943  0.00  0.00    +0.000 C 
ATOM      2  C   UNL     1       3.434   4.244  17.216  0.00  0.00    +0.000 C 
ENDROOT
BRANCH   1   5
ATOM      3  N   UNL     1       6.267   4.154  13.639  0.00  0.00    +0.000 N 
ATOM      4  N   UNL     1       5.196   3.817  14.517  0.00  0.00    +0.000 NA
ATOM      5  C   UNL     1       5.461   4.492  15.609  0.00  0.00    +0.000 A 
ATOM      6  O   UNL     1       6.601   5.219  15.569  0.00  0.00    +0.000 OA
ATOM      7  C   UNL     1       7.105   4.996  14.317  0.00  0.00    +0.000 A 
ATOM      8  O   UNL     1       8.153   5.495  13.922  0.00  0.00    +0.000 OA
BRANCH   3   9
ATOM      9  C   UNL     1       6.552   3.583  12.231  0.00  0.00    +0.000 C 
BRANCH   9  11
ATOM     10  C   UNL     1       4.065   2.965  11.048  0.00  0.00    +0.000 C 
ATOM     11  C   UNL     1       5.213   3.251  11.594  0.00  0.00    +0.000 C 
ENDBRANCH   9  11
ENDBRANCH   3   9
ENDBRANCH   1   5
BRANCH   2  12
ATOM     12  C   UNL     1       2.667   4.321  18.520  0.00  0.00    +0.000 A 
ATOM     13  C   UNL     1       2.010   3.175  19.043  0.00  0.00    +0.000 A 
ATOM     14  C   UNL     1       1.297   3.197  20.263  0.00  0.00    +0.000 A 
ATOM     15  C   UNL     1       1.209   4.369  21.005  0.00  0.00    +0.000 A 
ATOM     16  C   UNL     1       1.840   5.503  20.516  0.00  0.00    +0.000 A 
ATOM     17  C   UNL     1       2.561   5.487  19.300  0.00  0.00    +0.000 A 
BRANCH  16  18
ATOM     18  O   UNL     1       1.787   6.678  21.217  0.00  0.00    +0.000 OA
ATOM     19  H   UNL     1       0.977   6.692  21.741  0.00  0.00    +0.000 HD
ENDBRANCH  16  18
ENDBRANCH   2  12
TORSDOF 5
ENDMDL
MODEL 9
REMARK VINA RESULT:      -6.9      1.116      1.240
REMARK  Name = 
REMARK  5 active torsions:
REMARK  status: ('A' for Active; 'I' for Inactive)
REMARK    1  A    between atoms: C_2  and  C_3
REMARK    2  A    between atoms: C_3  and  N_4
REMARK    3  A    between atoms: C_6  and  C_7
REMARK    4  A    between atoms: C_8  and  C_9
REMARK    5  A    between atoms: C_13  and  O_14
REMARK                            x       y       z     vdW  Elec       q    Type
REMARK                         _______ _______ _______ _____ _____    ______ ____
ROOT
ATOM      1  C   UNL     1       8.173   9.227  17.598  0.00  0.00    +0.000 C 
ATOM      2  C   UNL     1       8.967   9.953  18.436  0.00  0.00    +0.000 C 
ENDROOT
BRANCH   1   5
ATOM      3  N   UNL     1       7.363   5.642  17.471  0.00  0.00    +0.000 N 
ATOM      4  N   UNL     1       7.395   6.888  16.780  0.00  0.00    +0.000 NA
ATOM      5  C   UNL     1       7.862   7.729  17.670  0.00  0.00    +0.000 A 
ATOM      6  O   UNL     1       8.121   7.191  18.884  0.00  0.00    +0.000 OA
ATOM      7  C   UNL     1       7.799   5.869  18.748  0.00  0.00    +0.000 A 
ATOM      8  O   UNL     1       7.901   5.061  19.664  0.00  0.00    +0.000 OA
BRANCH   3   9
ATOM      9  C   UNL     1       6.807   4.291  16.963  0.00  0.00    +0.000 C 
BRANCH   9  11
ATOM     10  C   UNL     1       5.786   4.719  14.366  0.00  0.00    +0.000 C 
ATOM     11  C   UNL     1       6.257   4.522  15.565  0.00  0.00    +0.000 C 
ENDBRANCH   9  11
ENDBRANCH   3   9
ENDBRANCH   1   5
BRANCH   2  12
ATOM     12  C   UNL     1       9.322  11.425  18.390  0.00  0.00    +0.000 A 
ATOM     13  C   UNL     1      10.580  11.882  18.866  0.00  0.00    +0.000 A 
ATOM     14  C   UNL     1      10.960  13.242  18.829  0.00  0.00    +0.000 A 
ATOM     15  C   UNL     1      10.092  14.200  18.317  0.00  0.00    +0.000 A 
ATOM     16  C   UNL     1       8.857  13.782  17.848  0.00  0.00    +0.000 A 
ATOM     17  C   UNL     1       8.472  12.421  17.876  0.00  0.00    +0.000 A 
BRANCH  16  18
ATOM     18  O   UNL     1       7.972  14.689  17.328  0.00  0.00    +0.000 OA
ATOM     19  H   UNL     1       7.208  14.213  16.977  0.00  0.00    +0.000 HD
ENDBRANCH  16  18
ENDBRANCH   2  12
TORSDOF 5
ENDMDL
