MODEL 1
REMARK VINA RESULT:      -8.4      0.000      0.000
REMARK  Name = 
REMARK  7 active torsions:
REMARK  status: ('A' for Active; 'I' for Inactive)
REMARK    1  A    between atoms: C_2  and  C_3
REMARK    2  A    between atoms: C_3  and  S_4
REMARK    3  A    between atoms: S_4  and  C_5
REMARK    4  A    between atoms: C_7  and  C_8
REMARK    5  A    between atoms: C_15  and  C_16
REMARK    6  A    between atoms: N_21  and  C_22
REMARK    7  A    between atoms: C_22  and  C_23
REMARK                            x       y       z     vdW  Elec       q    Type
REMARK                         _______ _______ _______ _____ _____    ______ ____
ROOT
ATOM      1  C   UNL     1       5.012   4.939  18.537  0.00  0.00    +0.000 A 
ATOM      2  N   UNL     1       4.333   6.091  18.473  0.00  0.00    +0.000 NA
ATOM      3  C   UNL     1       3.184   6.172  19.181  0.00  0.00    +0.000 A 
ATOM      4  C   UNL     1       2.744   5.119  19.955  0.00  0.00    +0.000 A 
ATOM      5  C   UNL     1       3.472   3.947  19.931  0.00  0.00    +0.000 A 
ATOM      6  N   UNL     1       4.618   3.845  19.212  0.00  0.00    +0.000 NA
ENDROOT
BRANCH   3   7
ATOM      7  C   UNL     1       2.432   7.438  19.084  0.00  0.00    +0.000 A 
ATOM      8  C   UNL     1       1.703   7.941  20.183  0.00  0.00    +0.000 A 
ATOM      9  C   UNL     1       1.029   9.164  20.113  0.00  0.00    +0.000 A 
ATOM     10  C   UNL     1       1.055   9.901  18.936  0.00  0.00    +0.000 A 
ATOM     11  C   UNL     1       1.744   9.414  17.827  0.00  0.00    +0.000 A 
ATOM     12  C   UNL     1       2.425   8.195  17.899  0.00  0.00    +0.000 A 
ENDBRANCH   3   7
BRANCH   5  13
ATOM     13  C   UNL     1       2.937   2.755  20.713  0.00  0.00    +0.000 C 
ATOM     14  F   UNL     1       2.299   1.843  19.916  0.00  0.00    +0.000 F 
ATOM     15  F   UNL     1       3.909   2.051  21.356  0.00  0.00    +0.000 F 
ATOM     16  F   UNL     1       2.018   3.081  21.662  0.00  0.00    +0.000 F 
ENDBRANCH   5  13
BRANCH   1  17
ATOM     17  S   UNL     1       6.572   4.839  17.691  0.00  0.00    +0.000 S 
BRANCH  17  18
ATOM     18  C   UNL     1       7.511   6.116  18.599  0.00  0.00    +0.000 C 
BRANCH  18  20
ATOM     19  O   UNL     1       7.078   7.615  16.766  0.00  0.00    +0.000 OA
ATOM     20  C   UNL     1       7.612   7.444  17.862  0.00  0.00    +0.000 C 
ATOM     21  N   UNL     1       8.411   8.394  18.451  0.00  0.00    +0.000 N 
ATOM     22  H   UNL     1       8.710   8.238  19.409  0.00  0.00    +0.000 HD
BRANCH  21  23
ATOM     23  C   UNL     1       8.509   9.747  17.955  0.00  0.00    +0.000 C 
BRANCH  23  24
ATOM     24  C   UNL     1       9.328  10.553  18.901  0.00  0.00    +0.000 A 
ATOM     25  C   UNL     1      10.519  11.240  18.780  0.00  0.00    +0.000 A 
ATOM     26  C   UNL     1      10.801  11.787  20.056  0.00  0.00    +0.000 A 
ATOM     27  C   UNL     1       9.790  11.363  20.881  0.00  0.00    +0.000 A 
ATOM     28  O   UNL     1       8.874  10.649  20.187  0.00  0.00    +0.000 OA
ENDBRANCH  23  24
ENDBRANCH  21  23
ENDBRANCH  18  20
ENDBRANCH  17  18
ENDBRANCH   1  17
TORSDOF 7
ENDMDL
MODEL 2
REMARK VINA RESULT:      -8.3      3.728      5.619
REMARK  Name = 
REMARK  7 active torsions:
REMARK  status: ('A' for Active; 'I' for Inactive)
REMARK    1  A    between atoms: C_2  and  C_3
REMARK    2  A    between atoms: C_3  and  S_4
REMARK    3  A    between atoms: S_4  and  C_5
REMARK    4  A    between atoms: C_7  and  C_8
REMARK    5  A    between atoms: C_15  and  C_16
REMARK    6  A    between atoms: N_21  and  C_22
REMARK    7  A    between atoms: C_22  and  C_23
REMARK                            x       y       z     vdW  Elec       q    Type
REMARK                         _______ _______ _______ _____ _____    ______ ____
ROOT
ATOM      1  C   UNL     1       4.179   4.993  19.201  0.00  0.00    +0.000 A 
ATOM      2  N   UNL     1       3.695   6.241  19.219  0.00  0.00    +0.000 NA
ATOM      3  C   UNL     1       2.422   6.404  19.643  0.00  0.00    +0.000 A 
ATOM      4  C   UNL     1       1.663   5.332  20.062  0.00  0.00    +0.000 A 
ATOM      5  C   UNL     1       2.215   4.071  19.968  0.00  0.00    +0.000 A 
ATOM      6  N   UNL     1       3.485   3.889  19.528  0.00  0.00    +0.000 NA
ENDROOT
BRANCH   3   7
ATOM      7  C   UNL     1       1.891   7.781  19.636  0.00  0.00    +0.000 A 
ATOM      8  C   UNL     1       1.939   8.578  18.471  0.00  0.00    +0.000 A 
ATOM      9  C   UNL     1       1.393   9.864  18.444  0.00  0.00    +0.000 A 
ATOM     10  C   UNL     1       0.803  10.389  19.587  0.00  0.00    +0.000 A 
ATOM     11  C   UNL     1       0.766   9.634  20.758  0.00  0.00    +0.000 A 
ATOM     12  C   UNL     1       1.305   8.344  20.783  0.00  0.00    +0.000 A 
ENDBRANCH   3   7
BRANCH   5  13
ATOM     13  C   UNL     1       1.345   2.879  20.345  0.00  0.00    +0.000 C 
ATOM     14  F   UNL     1       1.968   1.679  20.123  0.00  0.00    +0.000 F 
ATOM     15  F   UNL     1       0.994   2.862  21.660  0.00  0.00    +0.000 F 
ATOM     16  F   UNL     1       0.183   2.794  19.644  0.00  0.00    +0.000 F 
ENDBRANCH   5  13
BRANCH   1  17
ATOM     17  S   UNL     1       5.879   4.761  18.736  0.00  0.00    +0.000 S 
BRANCH  17  18
ATOM     18  C   UNL     1       5.897   5.644  17.137  0.00  0.00    +0.000 C 
BRANCH  18  20
ATOM     19  O   UNL     1       7.824   4.370  16.460  0.00  0.00    +0.000 OA
ATOM     20  C   UNL     1       6.854   5.045  16.116  0.00  0.00    +0.000 C 
ATOM     21  N   UNL     1       6.619   5.387  14.805  0.00  0.00    +0.000 N 
ATOM     22  H   UNL     1       5.733   5.832  14.581  0.00  0.00    +0.000 HD
BRANCH  21  23
ATOM     23  C   UNL     1       7.347   4.802  13.704  0.00  0.00    +0.000 C 
BRANCH  23  24
ATOM     24  C   UNL     1       6.411   3.991  12.880  0.00  0.00    +0.000 A 
ATOM     25  C   UNL     1       5.036   3.943  12.772  0.00  0.00    +0.000 A 
ATOM     26  C   UNL     1       4.740   2.930  11.827  0.00  0.00    +0.000 A 
ATOM     27  C   UNL     1       5.948   2.397  11.452  0.00  0.00    +0.000 A 
ATOM     28  O   UNL     1       6.967   3.055  12.052  0.00  0.00    +0.000 OA
ENDBRANCH  23  24
ENDBRANCH  21  23
ENDBRANCH  18  20
ENDBRANCH  17  18
ENDBRANCH   1  17
TORSDOF 7
ENDMDL
MODEL 3
REMARK VINA RESULT:      -8.3      4.173      7.142
REMARK  Name = 
REMARK  7 active torsions:
REMARK  status: ('A' for Active; 'I' for Inactive)
REMARK    1  A    between atoms: C_2  and  C_3
REMARK    2  A    between atoms: C_3  and  S_4
REMARK    3  A    between atoms: S_4  and  C_5
REMARK    4  A    between atoms: C_7  and  C_8
REMARK    5  A    between atoms: C_15  and  C_16
REMARK    6  A    between atoms: N_21  and  C_22
REMARK    7  A    between atoms: C_22  and  C_23
REMARK                            x       y       z     vdW  Elec       q    Type
REMARK                         _______ _______ _______ _____ _____    ______ ____
ROOT
ATOM      1  C   UNL     1       4.597   4.000  17.436  0.00  0.00    +0.000 A 
ATOM      2  N   UNL     1       4.902   3.935  16.135  0.00  0.00    +0.000 NA
ATOM      3  C   UNL     1       6.109   4.412  15.758  0.00  0.00    +0.000 A 
ATOM      4  C   UNL     1       6.998   4.923  16.681  0.00  0.00    +0.000 A 
ATOM      5  C   UNL     1       6.592   5.002  17.997  0.00  0.00    +0.000 A 
ATOM      6  N   UNL     1       5.376   4.542  18.388  0.00  0.00    +0.000 NA
ENDROOT
BRANCH   3   7
ATOM      7  C   UNL     1       6.425   4.358  14.317  0.00  0.00    +0.000 A 
ATOM      8  C   UNL     1       7.432   5.174  13.758  0.00  0.00    +0.000 A 
ATOM      9  C   UNL     1       7.770   5.091  12.404  0.00  0.00    +0.000 A 
ATOM     10  C   UNL     1       7.095   4.203  11.576  0.00  0.00    +0.000 A 
ATOM     11  C   UNL     1       6.078   3.405  12.097  0.00  0.00    +0.000 A 
ATOM     12  C   UNL     1       5.746   3.481  13.453  0.00  0.00    +0.000 A 
ENDBRANCH   3   7
BRANCH   5  13
ATOM     13  C   UNL     1       7.537   5.649  19.000  0.00  0.00    +0.000 C 
ATOM     14  F   UNL     1       7.008   5.709  20.262  0.00  0.00    +0.000 F 
ATOM     15  F   UNL     1       8.716   4.982  19.138  0.00  0.00    +0.000 F 
ATOM     16  F   UNL     1       7.864   6.936  18.706  0.00  0.00    +0.000 F 
ENDBRANCH   5  13
BRANCH   1  17
ATOM     17  S   UNL     1       3.055   3.294  17.971  0.00  0.00    +0.000 S 
BRANCH  17  18
ATOM     18  C   UNL     1       3.161   3.618  19.766  0.00  0.00    +0.000 C 
BRANCH  18  20
ATOM     19  O   UNL     1       1.097   4.492  20.644  0.00  0.00    +0.000 OA
ATOM     20  C   UNL     1       2.237   4.729  20.245  0.00  0.00    +0.000 C 
ATOM     21  N   UNL     1       2.722   6.008  20.110  0.00  0.00    +0.000 N 
ATOM     22  H   UNL     1       3.710   6.123  19.903  0.00  0.00    +0.000 HD
BRANCH  21  23
ATOM     23  C   UNL     1       2.032   7.163  20.635  0.00  0.00    +0.000 C 
BRANCH  23  24
ATOM     24  C   UNL     1       1.837   8.151  19.540  0.00  0.00    +0.000 A 
ATOM     25  C   UNL     1       2.240   8.200  18.221  0.00  0.00    +0.000 A 
ATOM     26  C   UNL     1       1.762   9.427  17.698  0.00  0.00    +0.000 A 
ATOM     27  C   UNL     1       1.139  10.065  18.741  0.00  0.00    +0.000 A 
ATOM     28  O   UNL     1       1.143   9.289  19.849  0.00  0.00    +0.000 OA
ENDBRANCH  23  24
ENDBRANCH  21  23
ENDBRANCH  18  20
ENDBRANCH  17  18
ENDBRANCH   1  17
TORSDOF 7
ENDMDL
MODEL 4
REMARK VINA RESULT:      -8.2      4.096      7.209
REMARK  Name = 
REMARK  7 active torsions:
REMARK  status: ('A' for Active; 'I' for Inactive)
REMARK    1  A    between atoms: C_2  and  C_3
REMARK    2  A    between atoms: C_3  and  S_4
REMARK    3  A    between atoms: S_4  and  C_5
REMARK    4  A    between atoms: C_7  and  C_8
REMARK    5  A    between atoms: C_15  and  C_16
REMARK    6  A    between atoms: N_21  and  C_22
REMARK    7  A    between atoms: C_22  and  C_23
REMARK                            x       y       z     vdW  Elec       q    Type
REMARK                         _______ _______ _______ _____ _____    ______ ____
ROOT
ATOM      1  C   UNL     1       4.641   4.149  17.492  0.00  0.00    +0.000 A 
ATOM      2  N   UNL     1       4.923   4.060  16.187  0.00  0.00    +0.000 NA
ATOM      3  C   UNL     1       6.153   4.460  15.791  0.00  0.00    +0.000 A 
ATOM      4  C   UNL     1       7.085   4.918  16.700  0.00  0.00    +0.000 A 
ATOM      5  C   UNL     1       6.702   5.027  18.021  0.00  0.00    +0.000 A 
ATOM      6  N   UNL     1       5.466   4.646  18.430  0.00  0.00    +0.000 NA
ENDROOT
BRANCH   3   7
ATOM      7  C   UNL     1       6.445   4.379  14.346  0.00  0.00    +0.000 A 
ATOM      8  C   UNL     1       7.465   5.161  13.762  0.00  0.00    +0.000 A 
ATOM      9  C   UNL     1       7.780   5.053  12.405  0.00  0.00    +0.000 A 
ATOM     10  C   UNL     1       7.068   4.174  11.598  0.00  0.00    +0.000 A 
ATOM     11  C   UNL     1       6.038   3.411  12.144  0.00  0.00    +0.000 A 
ATOM     12  C   UNL     1       5.729   3.512  13.503  0.00  0.00    +0.000 A 
ENDBRANCH   3   7
BRANCH   5  13
ATOM     13  C   UNL     1       7.700   5.617  19.008  0.00  0.00    +0.000 C 
ATOM     14  F   UNL     1       8.177   6.838  18.611  0.00  0.00    +0.000 F 
ATOM     15  F   UNL     1       7.175   5.824  20.247  0.00  0.00    +0.000 F 
ATOM     16  F   UNL     1       8.815   4.860  19.192  0.00  0.00    +0.000 F 
ENDBRANCH   5  13
BRANCH   1  17
ATOM     17  S   UNL     1       3.066   3.544  18.050  0.00  0.00    +0.000 S 
BRANCH  17  18
ATOM     18  C   UNL     1       3.199   3.906  19.836  0.00  0.00    +0.000 C 
BRANCH  18  20
ATOM     19  O   UNL     1       1.059   4.522  20.751  0.00  0.00    +0.000 OA
ATOM     20  C   UNL     1       2.158   4.895  20.341  0.00  0.00    +0.000 C 
ATOM     21  N   UNL     1       2.488   6.224  20.219  0.00  0.00    +0.000 N 
ATOM     22  H   UNL     1       3.453   6.457  20.001  0.00  0.00    +0.000 HD
BRANCH  21  23
ATOM     23  C   UNL     1       1.675   7.283  20.768  0.00  0.00    +0.000 C 
BRANCH  23  24
ATOM     24  C   UNL     1       1.585   8.389  19.776  0.00  0.00    +0.000 A 
ATOM     25  C   UNL     1       0.924   9.601  19.761  0.00  0.00    +0.000 A 
ATOM     26  C   UNL     1       1.209  10.201  18.510  0.00  0.00    +0.000 A 
ATOM     27  C   UNL     1       1.987   9.300  17.827  0.00  0.00    +0.000 A 
ATOM     28  O   UNL     1       2.253   8.219  18.595  0.00  0.00    +0.000 OA
ENDBRANCH  23  24
ENDBRANCH  21  23
ENDBRANCH  18  20
ENDBRANCH  17  18
ENDBRANCH   1  17
TORSDOF 7
ENDMDL
MODEL 5
REMARK VINA RESULT:      -8.2      4.073      6.089
REMARK  Name = 
REMARK  7 active torsions:
REMARK  status: ('A' for Active; 'I' for Inactive)
REMARK    1  A    between atoms: C_2  and  C_3
REMARK    2  A    between atoms: C_3  and  S_4
REMARK    3  A    between atoms: S_4  and  C_5
REMARK    4  A    between atoms: C_7  and  C_8
REMARK    5  A    between atoms: C_15  and  C_16
REMARK    6  A    between atoms: N_21  and  C_22
REMARK    7  A    between atoms: C_22  and  C_23
REMARK                            x       y       z     vdW  Elec       q    Type
REMARK                         _______ _______ _______ _____ _____    ______ ____
ROOT
ATOM      1  C   UNL     1       4.533   5.032  18.966  0.00  0.00    +0.000 A 
ATOM      2  N   UNL     1       3.943   6.231  18.898  0.00  0.00    +0.000 NA
ATOM      3  C   UNL     1       2.737   6.361  19.497  0.00  0.00    +0.000 A 
ATOM      4  C   UNL     1       2.154   5.307  20.170  0.00  0.00    +0.000 A 
ATOM      5  C   UNL     1       2.802   4.089  20.153  0.00  0.00    +0.000 A 
ATOM      6  N   UNL     1       4.004   3.939  19.541  0.00  0.00    +0.000 NA
ENDROOT
BRANCH   3   7
ATOM      7  C   UNL     1       2.084   7.680  19.396  0.00  0.00    +0.000 A 
ATOM      8  C   UNL     1       2.062   8.394  18.179  0.00  0.00    +0.000 A 
ATOM      9  C   UNL     1       1.402   9.621  18.065  0.00  0.00    +0.000 A 
ATOM     10  C   UNL     1       0.765  10.169  19.171  0.00  0.00    +0.000 A 
ATOM     11  C   UNL     1       0.795   9.498  20.392  0.00  0.00    +0.000 A 
ATOM     12  C   UNL     1       1.447   8.267  20.504  0.00  0.00    +0.000 A 
ENDBRANCH   3   7
BRANCH   5  13
ATOM     13  C   UNL     1       2.114   2.903  20.817  0.00  0.00    +0.000 C 
ATOM     14  F   UNL     1       2.842   2.384  21.855  0.00  0.00    +0.000 F 
ATOM     15  F   UNL     1       0.901   3.213  21.351  0.00  0.00    +0.000 F 
ATOM     16  F   UNL     1       1.902   1.847  19.987  0.00  0.00    +0.000 F 
ENDBRANCH   5  13
BRANCH   1  17
ATOM     17  S   UNL     1       6.159   4.860  18.267  0.00  0.00    +0.000 S 
BRANCH  17  18
ATOM     18  C   UNL     1       5.760   3.917  16.754  0.00  0.00    +0.000 C 
BRANCH  18  20
ATOM     19  O   UNL     1       7.703   4.834  15.669  0.00  0.00    +0.000 OA
ATOM     20  C   UNL     1       6.594   4.315  15.545  0.00  0.00    +0.000 C 
ATOM     21  N   UNL     1       5.990   4.147  14.322  0.00  0.00    +0.000 N 
ATOM     22  H   UNL     1       5.138   3.595  14.283  0.00  0.00    +0.000 HD
BRANCH  21  23
ATOM     23  C   UNL     1       6.688   4.349  13.073  0.00  0.00    +0.000 C 
BRANCH  23  24
ATOM     24  C   UNL     1       6.435   3.184  12.182  0.00  0.00    +0.000 A 
ATOM     25  C   UNL     1       5.293   2.516  11.792  0.00  0.00    +0.000 A 
ATOM     26  C   UNL     1       5.711   1.459  10.946  0.00  0.00    +0.000 A 
ATOM     27  C   UNL     1       7.082   1.523  10.911  0.00  0.00    +0.000 A 
ATOM     28  O   UNL     1       7.529   2.584  11.622  0.00  0.00    +0.000 OA
ENDBRANCH  23  24
ENDBRANCH  21  23
ENDBRANCH  18  20
ENDBRANCH  17  18
ENDBRANCH   1  17
TORSDOF 7
ENDMDL
MODEL 6
REMARK VINA RESULT:      -8.1      1.358      1.875
REMARK  Name = 
REMARK  7 active torsions:
REMARK  status: ('A' for Active; 'I' for Inactive)
REMARK    1  A    between atoms: C_2  and  C_3
REMARK    2  A    between atoms: C_3  and  S_4
REMARK    3  A    between atoms: S_4  and  C_5
REMARK    4  A    between atoms: C_7  and  C_8
REMARK    5  A    between atoms: C_15  and  C_16
REMARK    6  A    between atoms: N_21  and  C_22
REMARK    7  A    between atoms: C_22  and  C_23
REMARK                            x       y       z     vdW  Elec       q    Type
REMARK                         _______ _______ _______ _____ _____    ______ ____
ROOT
ATOM      1  C   UNL     1       5.000   5.040  17.622  0.00  0.00    +0.000 A 
ATOM      2  N   UNL     1       4.345   6.173  17.901  0.00  0.00    +0.000 NA
ATOM      3  C   UNL     1       3.145   6.058  18.514  0.00  0.00    +0.000 A 
ATOM      4  C   UNL     1       2.630   4.825  18.857  0.00  0.00    +0.000 A 
ATOM      5  C   UNL     1       3.342   3.701  18.492  0.00  0.00    +0.000 A 
ATOM      6  N   UNL     1       4.540   3.800  17.862  0.00  0.00    +0.000 NA
ENDROOT
BRANCH   3   7
ATOM      7  C   UNL     1       2.420   7.313  18.795  0.00  0.00    +0.000 A 
ATOM      8  C   UNL     1       2.161   8.252  17.774  0.00  0.00    +0.000 A 
ATOM      9  C   UNL     1       1.431   9.418  18.023  0.00  0.00    +0.000 A 
ATOM     10  C   UNL     1       0.961   9.678  19.304  0.00  0.00    +0.000 A 
ATOM     11  C   UNL     1       1.227   8.781  20.337  0.00  0.00    +0.000 A 
ATOM     12  C   UNL     1       1.949   7.611  20.086  0.00  0.00    +0.000 A 
ENDBRANCH   3   7
BRANCH   5  13
ATOM     13  C   UNL     1       2.730   2.339  18.790  0.00  0.00    +0.000 C 
ATOM     14  F   UNL     1       1.547   2.135  18.132  0.00  0.00    +0.000 F 
ATOM     15  F   UNL     1       3.527   1.298  18.423  0.00  0.00    +0.000 F 
ATOM     16  F   UNL     1       2.430   2.139  20.102  0.00  0.00    +0.000 F 
ENDBRANCH   5  13
BRANCH   1  17
ATOM     17  S   UNL     1       6.621   5.166  16.902  0.00  0.00    +0.000 S 
BRANCH  17  18
ATOM     18  C   UNL     1       6.839   6.980  16.923  0.00  0.00    +0.000 C 
BRANCH  18  20
ATOM     19  O   UNL     1       8.249   6.711  18.855  0.00  0.00    +0.000 OA
ATOM     20  C   UNL     1       7.799   7.471  17.997  0.00  0.00    +0.000 C 
ATOM     21  N   UNL     1       8.049   8.822  18.003  0.00  0.00    +0.000 N 
ATOM     22  H   UNL     1       7.757   9.364  17.195  0.00  0.00    +0.000 HD
BRANCH  21  23
ATOM     23  C   UNL     1       9.034   9.430  18.867  0.00  0.00    +0.000 C 
BRANCH  23  24
ATOM     24  C   UNL     1       9.298  10.818  18.401  0.00  0.00    +0.000 A 
ATOM     25  C   UNL     1       8.530  11.767  17.757  0.00  0.00    +0.000 A 
ATOM     26  C   UNL     1       9.365  12.893  17.556  0.00  0.00    +0.000 A 
ATOM     27  C   UNL     1      10.597  12.544  18.048  0.00  0.00    +0.000 A 
ATOM     28  O   UNL     1      10.560  11.307  18.596  0.00  0.00    +0.000 OA
ENDBRANCH  23  24
ENDBRANCH  21  23
ENDBRANCH  18  20
ENDBRANCH  17  18
ENDBRANCH   1  17
TORSDOF 7
ENDMDL
MODEL 7
REMARK VINA RESULT:      -8.1      0.770      1.038
REMARK  Name = 
REMARK  7 active torsions:
REMARK  status: ('A' for Active; 'I' for Inactive)
REMARK    1  A    between atoms: C_2  and  C_3
REMARK    2  A    between atoms: C_3  and  S_4
REMARK    3  A    between atoms: S_4  and  C_5
REMARK    4  A    between atoms: C_7  and  C_8
REMARK    5  A    between atoms: C_15  and  C_16
REMARK    6  A    between atoms: N_21  and  C_22
REMARK    7  A    between atoms: C_22  and  C_23
REMARK                            x       y       z     vdW  Elec       q    Type
REMARK                         _______ _______ _______ _____ _____    ______ ____
ROOT
ATOM      1  C   UNL     1       5.591   5.007  18.475  0.00  0.00    +0.000 A 
ATOM      2  N   UNL     1       4.797   6.083  18.433  0.00  0.00    +0.000 NA
ATOM      3  C   UNL     1       3.609   6.000  19.073  0.00  0.00    +0.000 A 
ATOM      4  C   UNL     1       3.242   4.861  19.759  0.00  0.00    +0.000 A 
ATOM      5  C   UNL     1       4.093   3.776  19.714  0.00  0.00    +0.000 A 
ATOM      6  N   UNL     1       5.281   3.838  19.062  0.00  0.00    +0.000 NA
ENDROOT
BRANCH   3   7
ATOM      7  C   UNL     1       2.731   7.185  19.000  0.00  0.00    +0.000 A 
ATOM      8  C   UNL     1       1.962   7.594  20.111  0.00  0.00    +0.000 A 
ATOM      9  C   UNL     1       1.167   8.743  20.064  0.00  0.00    +0.000 A 
ATOM     10  C   UNL     1       1.111   9.497  18.900  0.00  0.00    +0.000 A 
ATOM     11  C   UNL     1       1.839   9.100  17.779  0.00  0.00    +0.000 A 
ATOM     12  C   UNL     1       2.640   7.956  17.829  0.00  0.00    +0.000 A 
ENDBRANCH   3   7
BRANCH   5  13
ATOM     13  C   UNL     1       3.647   2.489  20.396  0.00  0.00    +0.000 C 
ATOM     14  F   UNL     1       4.700   1.708  20.791  0.00  0.00    +0.000 F 
ATOM     15  F   UNL     1       2.915   2.701  21.524  0.00  0.00    +0.000 F 
ATOM     16  F   UNL     1       2.896   1.674  19.607  0.00  0.00    +0.000 F 
ENDBRANCH   5  13
BRANCH   1  17
ATOM     17  S   UNL     1       7.197   5.122  17.721  0.00  0.00    +0.000 S 
BRANCH  17  18
ATOM     18  C   UNL     1       7.908   6.497  18.691  0.00  0.00    +0.000 C 
BRANCH  18  20
ATOM     19  O   UNL     1       7.398   7.955  16.844  0.00  0.00    +0.000 OA
ATOM     20  C   UNL     1       7.924   7.827  17.950  0.00  0.00    +0.000 C 
ATOM     21  N   UNL     1       8.640   8.836  18.548  0.00  0.00    +0.000 N 
ATOM     22  H   UNL     1       8.932   8.705  19.512  0.00  0.00    +0.000 HD
BRANCH  21  23
ATOM     23  C   UNL     1       8.647  10.190  18.048  0.00  0.00    +0.000 C 
BRANCH  23  24
ATOM     24  C   UNL     1       9.371  11.061  19.014  0.00  0.00    +0.000 A 
ATOM     25  C   UNL     1      10.459  10.864  19.840  0.00  0.00    +0.000 A 
ATOM     26  C   UNL     1      10.652  12.076  20.548  0.00  0.00    +0.000 A 
ATOM     27  C   UNL     1       9.646  12.916  20.142  0.00  0.00    +0.000 A 
ATOM     28  O   UNL     1       8.889  12.329  19.187  0.00  0.00    +0.000 OA
ENDBRANCH  23  24
ENDBRANCH  21  23
ENDBRANCH  18  20
ENDBRANCH  17  18
ENDBRANCH   1  17
TORSDOF 7
ENDMDL
MODEL 8
REMARK VINA RESULT:      -8.1      3.064      4.656
REMARK  Name = 
REMARK  7 active torsions:
REMARK  status: ('A' for Active; 'I' for Inactive)
REMARK    1  A    between atoms: C_2  and  C_3
REMARK    2  A    between atoms: C_3  and  S_4
REMARK    3  A    between atoms: S_4  and  C_5
REMARK    4  A    between atoms: C_7  and  C_8
REMARK    5  A    between atoms: C_15  and  C_16
REMARK    6  A    between atoms: N_21  and  C_22
REMARK    7  A    between atoms: C_22  and  C_23
REMARK                            x       y       z     vdW  Elec       q    Type
REMARK                         _______ _______ _______ _____ _____    ______ ____
ROOT
ATOM      1  C   UNL     1       5.792   4.799  18.168  0.00  0.00    +0.000 A 
ATOM      2  N   UNL     1       6.280   4.810  16.922  0.00  0.00    +0.000 NA
ATOM      3  C   UNL     1       5.496   4.300  15.946  0.00  0.00    +0.000 A 
ATOM      4  C   UNL     1       4.236   3.810  16.222  0.00  0.00    +0.000 A 
ATOM      5  C   UNL     1       3.823   3.787  17.538  0.00  0.00    +0.000 A 
ATOM      6  N   UNL     1       4.605   4.280  18.531  0.00  0.00    +0.000 NA
ENDROOT
BRANCH   3   7
ATOM      7  C   UNL     1       6.054   4.296  14.580  0.00  0.00    +0.000 A 
ATOM      8  C   UNL     1       7.186   5.072  14.250  0.00  0.00    +0.000 A 
ATOM      9  C   UNL     1       7.748   5.034  12.971  0.00  0.00    +0.000 A 
ATOM     10  C   UNL     1       7.179   4.233  11.989  0.00  0.00    +0.000 A 
ATOM     11  C   UNL     1       6.044   3.478  12.280  0.00  0.00    +0.000 A 
ATOM     12  C   UNL     1       5.487   3.509  13.562  0.00  0.00    +0.000 A 
ENDBRANCH   3   7
BRANCH   5  13
ATOM     13  C   UNL     1       2.470   3.163  17.852  0.00  0.00    +0.000 C 
ATOM     14  F   UNL     1       1.425   3.868  17.315  0.00  0.00    +0.000 F 
ATOM     15  F   UNL     1       2.333   1.898  17.369  0.00  0.00    +0.000 F 
ATOM     16  F   UNL     1       2.186   3.092  19.181  0.00  0.00    +0.000 F 
ENDBRANCH   5  13
BRANCH   1  17
ATOM     17  S   UNL     1       6.763   5.548  19.455  0.00  0.00    +0.000 S 
BRANCH  17  18
ATOM     18  C   UNL     1       8.144   6.218  18.464  0.00  0.00    +0.000 C 
BRANCH  18  20
ATOM     19  O   UNL     1       7.175   7.895  17.034  0.00  0.00    +0.000 OA
ATOM     20  C   UNL     1       7.919   7.645  17.983  0.00  0.00    +0.000 C 
ATOM     21  N   UNL     1       8.668   8.612  18.609  0.00  0.00    +0.000 N 
ATOM     22  H   UNL     1       9.155   8.358  19.464  0.00  0.00    +0.000 HD
BRANCH  21  23
ATOM     23  C   UNL     1       8.481  10.023  18.367  0.00  0.00    +0.000 C 
BRANCH  23  24
ATOM     24  C   UNL     1       9.467  10.790  19.176  0.00  0.00    +0.000 A 
ATOM     25  C   UNL     1      10.751  11.236  18.937  0.00  0.00    +0.000 A 
ATOM     26  C   UNL     1      11.178  11.887  20.120  0.00  0.00    +0.000 A 
ATOM     27  C   UNL     1      10.148  11.759  21.016  0.00  0.00    +0.000 A 
ATOM     28  O   UNL     1       9.093  11.132  20.446  0.00  0.00    +0.000 OA
ENDBRANCH  23  24
ENDBRANCH  21  23
ENDBRANCH  18  20
ENDBRANCH  17  18
ENDBRANCH   1  17
TORSDOF 7
ENDMDL
MODEL 9
REMARK VINA RESULT:      -8.0      3.578      5.678
REMARK  Name = 
REMARK  7 active torsions:
REMARK  status: ('A' for Active; 'I' for Inactive)
REMARK    1  A    between atoms: C_2  and  C_3
REMARK    2  A    between atoms: C_3  and  S_4
REMARK    3  A    between atoms: S_4  and  C_5
REMARK    4  A    between atoms: C_7  and  C_8
REMARK    5  A    between atoms: C_15  and  C_16
REMARK    6  A    between atoms: N_21  and  C_22
REMARK    7  A    between atoms: C_22  and  C_23
REMARK                            x       y       z     vdW  Elec       q    Type
REMARK                         _______ _______ _______ _____ _____    ______ ____
ROOT
ATOM      1  C   UNL     1       4.293   5.044  19.276  0.00  0.00    +0.000 A 
ATOM      2  N   UNL     1       3.695   6.240  19.310  0.00  0.00    +0.000 NA
ATOM      3  C   UNL     1       2.499   6.315  19.938  0.00  0.00    +0.000 A 
ATOM      4  C   UNL     1       1.933   5.209  20.537  0.00  0.00    +0.000 A 
ATOM      5  C   UNL     1       2.588   4.000  20.416  0.00  0.00    +0.000 A 
ATOM      6  N   UNL     1       3.780   3.906  19.775  0.00  0.00    +0.000 NA
ENDROOT
BRANCH   3   7
ATOM      7  C   UNL     1       1.836   7.634  19.949  0.00  0.00    +0.000 A 
ATOM      8  C   UNL     1       1.838   8.463  18.807  0.00  0.00    +0.000 A 
ATOM      9  C   UNL     1       1.170   9.691  18.796  0.00  0.00    +0.000 A 
ATOM     10  C   UNL     1       0.501  10.124  19.933  0.00  0.00    +0.000 A 
ATOM     11  C   UNL     1       0.507   9.337  21.084  0.00  0.00    +0.000 A 
ATOM     12  C   UNL     1       1.167   8.105  21.092  0.00  0.00    +0.000 A 
ENDBRANCH   3   7
BRANCH   5  13
ATOM     13  C   UNL     1       1.919   2.763  20.999  0.00  0.00    +0.000 C 
ATOM     14  F   UNL     1       2.680   2.155  21.961  0.00  0.00    +0.000 F 
ATOM     15  F   UNL     1       0.726   3.026  21.599  0.00  0.00    +0.000 F 
ATOM     16  F   UNL     1       1.674   1.782  20.088  0.00  0.00    +0.000 F 
ENDBRANCH   5  13
BRANCH   1  17
ATOM     17  S   UNL     1       5.908   4.937  18.539  0.00  0.00    +0.000 S 
BRANCH  17  18
ATOM     18  C   UNL     1       5.649   5.964  17.050  0.00  0.00    +0.000 C 
BRANCH  18  20
ATOM     19  O   UNL     1       7.755   6.228  15.914  0.00  0.00    +0.000 OA
ATOM     20  C   UNL     1       6.647   5.690  15.934  0.00  0.00    +0.000 C 
ATOM     21  N   UNL     1       6.196   4.889  14.913  0.00  0.00    +0.000 N 
ATOM     22  H   UNL     1       5.332   4.375  15.057  0.00  0.00    +0.000 HD
BRANCH  21  23
ATOM     23  C   UNL     1       7.055   4.424  13.849  0.00  0.00    +0.000 C 
BRANCH  23  24
ATOM     24  C   UNL     1       6.239   3.667  12.861  0.00  0.00    +0.000 A 
ATOM     25  C   UNL     1       6.547   2.754  11.874  0.00  0.00    +0.000 A 
ATOM     26  C   UNL     1       5.325   2.411  11.245  0.00  0.00    +0.000 A 
ATOM     27  C   UNL     1       4.359   3.168  11.858  0.00  0.00    +0.000 A 
ATOM     28  O   UNL     1       4.892   3.902  12.862  0.00  0.00    +0.000 OA
ENDBRANCH  23  24
ENDBRANCH  21  23
ENDBRANCH  18  20
ENDBRANCH  17  18
ENDBRANCH   1  17
TORSDOF 7
ENDMDL
