MODEL 1
REMARK VINA RESULT:      -7.6      0.000      0.000
REMARK  Name = 
REMARK  3 active torsions:
REMARK  status: ('A' for Active; 'I' for Inactive)
REMARK    1  A    between atoms: C_2  and  C_3
REMARK    2  A    between atoms: C_3  and  N_4
REMARK    3  A    between atoms: C_18  and  C_19
REMARK                            x       y       z     vdW  Elec       q    Type
REMARK                         _______ _______ _______ _____ _____    ______ ____
ROOT
ATOM      1  O   UNL     1       1.958   8.982  22.423  0.00  0.00    +0.000 OA
ATOM      2  C   UNL     1       1.180   9.366  21.542  0.00  0.00    +0.000 C 
ATOM      3  N   UNL     1       0.707  10.647  21.608  0.00  0.00    +0.000 N 
ATOM      4  C   UNL     1      -0.243  11.174  20.783  0.00  0.00    +0.000 A 
ATOM      5  N   UNL     1      -0.681  10.688  19.655  0.00  0.00    +0.000 NA
ATOM      6  C   UNL     1      -1.746  11.438  19.193  0.00  0.00    +0.000 A 
ATOM      7  C   UNL     1      -2.040  12.543  19.967  0.00  0.00    +0.000 A 
ATOM      8  S   UNL     1      -0.973  12.616  21.318  0.00  0.00    +0.000 S 
ATOM      9  H   UNL     1       0.950  11.163  22.440  0.00  0.00    +0.000 HD
ENDROOT
BRANCH   6  10
ATOM     10  C   UNL     1      -2.457  11.029  17.987  0.00  0.00    +0.000 A 
ATOM     11  C   UNL     1      -1.898  10.137  17.064  0.00  0.00    +0.000 A 
ATOM     12  C   UNL     1      -2.585   9.803  15.895  0.00  0.00    +0.000 A 
ATOM     13  C   UNL     1      -3.837  10.358  15.634  0.00  0.00    +0.000 A 
ATOM     14  C   UNL     1      -4.404  11.248  16.542  0.00  0.00    +0.000 A 
ATOM     15  C   UNL     1      -3.717  11.584  17.709  0.00  0.00    +0.000 A 
ENDBRANCH   6  10
BRANCH   2  16
ATOM     16  C   UNL     1       0.675   8.385  20.481  0.00  0.00    +0.000 C 
BRANCH  16  17
ATOM     17  N   UNL     1       1.745   7.720  19.759  0.00  0.00    +0.000 N 
ATOM     18  C   UNL     1       2.250   8.229  18.601  0.00  0.00    +0.000 C 
ATOM     19  O   UNL     1       1.986   9.301  18.083  0.00  0.00    +0.000 OA
ATOM     20  N   UNL     1       3.093   7.301  18.036  0.00  0.00    +0.000 N 
ATOM     21  C   UNL     1       3.091   6.058  18.755  0.00  0.00    +0.000 C 
ATOM     22  C   UNL     1       2.629   4.859  17.921  0.00  0.00    +0.000 C 
ATOM     23  C   UNL     1       3.816   3.897  17.925  0.00  0.00    +0.000 C 
ATOM     24  C   UNL     1       4.521   4.185  19.239  0.00  0.00    +0.000 C 
ATOM     25  C   UNL     1       4.456   5.703  19.345  0.00  0.00    +0.000 C 
ATOM     26  C   UNL     1       2.095   6.401  19.869  0.00  0.00    +0.000 C 
ATOM     27  O   UNL     1       1.741   5.600  20.724  0.00  0.00    +0.000 OA
ATOM     28  H   UNL     1       3.532   7.477  17.142  0.00  0.00    +0.000 HD
ENDBRANCH  16  17
ENDBRANCH   2  16
TORSDOF 3
ENDMDL
MODEL 2
REMARK VINA RESULT:      -7.4      2.930      7.453
REMARK  Name = 
REMARK  3 active torsions:
REMARK  status: ('A' for Active; 'I' for Inactive)
REMARK    1  A    between atoms: C_2  and  C_3
REMARK    2  A    between atoms: C_3  and  N_4
REMARK    3  A    between atoms: C_18  and  C_19
REMARK                            x       y       z     vdW  Elec       q    Type
REMARK                         _______ _______ _______ _____ _____    ______ ____
ROOT
ATOM      1  O   UNL     1       0.479   8.417  22.100  0.00  0.00    +0.000 OA
ATOM      2  C   UNL     1       1.111   7.835  21.210  0.00  0.00    +0.000 C 
ATOM      3  N   UNL     1       1.206   6.472  21.269  0.00  0.00    +0.000 N 
ATOM      4  C   UNL     1       1.963   5.705  20.433  0.00  0.00    +0.000 A 
ATOM      5  N   UNL     1       2.509   6.053  19.302  0.00  0.00    +0.000 NA
ATOM      6  C   UNL     1       3.317   5.037  18.827  0.00  0.00    +0.000 A 
ATOM      7  C   UNL     1       3.297   3.890  19.596  0.00  0.00    +0.000 A 
ATOM      8  S   UNL     1       2.265   4.112  20.958  0.00  0.00    +0.000 S 
ATOM      9  H   UNL     1       0.836   6.041  22.102  0.00  0.00    +0.000 HD
ENDROOT
BRANCH   6  10
ATOM     10  C   UNL     1       4.103   5.236  17.615  0.00  0.00    +0.000 A 
ATOM     11  C   UNL     1       4.420   6.514  17.139  0.00  0.00    +0.000 A 
ATOM     12  C   UNL     1       5.133   6.670  15.948  0.00  0.00    +0.000 A 
ATOM     13  C   UNL     1       5.537   5.553  15.219  0.00  0.00    +0.000 A 
ATOM     14  C   UNL     1       5.226   4.276  15.680  0.00  0.00    +0.000 A 
ATOM     15  C   UNL     1       4.511   4.118  16.868  0.00  0.00    +0.000 A 
ENDBRANCH   6  10
BRANCH   2  16
ATOM     16  C   UNL     1       1.860   8.640  20.145  0.00  0.00    +0.000 C 
BRANCH  16  17
ATOM     17  N   UNL     1       1.072   9.722  19.583  0.00  0.00    +0.000 N 
ATOM     18  C   UNL     1       0.710   9.734  18.270  0.00  0.00    +0.000 C 
ATOM     19  O   UNL     1       0.878   8.854  17.444  0.00  0.00    +0.000 OA
ATOM     20  N   UNL     1       0.157  10.958  17.972  0.00  0.00    +0.000 N 
ATOM     21  C   UNL     1       0.238  11.873  19.076  0.00  0.00    +0.000 C 
ATOM     22  C   UNL     1       1.044  13.141  18.774  0.00  0.00    +0.000 C 
ATOM     23  C   UNL     1       0.059  14.290  18.977  0.00  0.00    +0.000 C 
ATOM     24  C   UNL     1      -0.915  13.764  20.016  0.00  0.00    +0.000 C 
ATOM     25  C   UNL     1      -1.131  12.318  19.591  0.00  0.00    +0.000 C 
ATOM     26  C   UNL     1       0.937  10.980  20.107  0.00  0.00    +0.000 C 
ATOM     27  O   UNL     1       1.259  11.366  21.222  0.00  0.00    +0.000 OA
ATOM     28  H   UNL     1      -0.133  11.180  17.030  0.00  0.00    +0.000 HD
ENDBRANCH  16  17
ENDBRANCH   2  16
TORSDOF 3
ENDMDL
MODEL 3
REMARK VINA RESULT:      -7.4      2.980      7.707
REMARK  Name = 
REMARK  3 active torsions:
REMARK  status: ('A' for Active; 'I' for Inactive)
REMARK    1  A    between atoms: C_2  and  C_3
REMARK    2  A    between atoms: C_3  and  N_4
REMARK    3  A    between atoms: C_18  and  C_19
REMARK                            x       y       z     vdW  Elec       q    Type
REMARK                         _______ _______ _______ _____ _____    ______ ____
ROOT
ATOM      1  O   UNL     1      -0.315   7.783  21.661  0.00  0.00    +0.000 OA
ATOM      2  C   UNL     1       0.690   7.409  21.046  0.00  0.00    +0.000 C 
ATOM      3  N   UNL     1       0.892   6.065  20.892  0.00  0.00    +0.000 N 
ATOM      4  C   UNL     1       2.006   5.500  20.344  0.00  0.00    +0.000 A 
ATOM      5  N   UNL     1       2.941   6.084  19.649  0.00  0.00    +0.000 NA
ATOM      6  C   UNL     1       3.974   5.201  19.397  0.00  0.00    +0.000 A 
ATOM      7  C   UNL     1       3.749   3.918  19.858  0.00  0.00    +0.000 A 
ATOM      8  S   UNL     1       2.220   3.837  20.649  0.00  0.00    +0.000 S 
ATOM      9  H   UNL     1       0.251   5.465  21.386  0.00  0.00    +0.000 HD
ENDROOT
BRANCH   6  10
ATOM     10  C   UNL     1       5.174   5.660  18.707  0.00  0.00    +0.000 A 
ATOM     11  C   UNL     1       6.455   5.448  19.230  0.00  0.00    +0.000 A 
ATOM     12  C   UNL     1       7.582   5.942  18.568  0.00  0.00    +0.000 A 
ATOM     13  C   UNL     1       7.441   6.654  17.378  0.00  0.00    +0.000 A 
ATOM     14  C   UNL     1       6.172   6.873  16.847  0.00  0.00    +0.000 A 
ATOM     15  C   UNL     1       5.046   6.382  17.509  0.00  0.00    +0.000 A 
ENDBRANCH   6  10
BRANCH   2  16
ATOM     16  C   UNL     1       1.732   8.429  20.580  0.00  0.00    +0.000 C 
BRANCH  16  17
ATOM     17  N   UNL     1       1.169   9.500  19.780  0.00  0.00    +0.000 N 
ATOM     18  C   UNL     1       1.228   9.482  18.419  0.00  0.00    +0.000 C 
ATOM     19  O   UNL     1       1.630   8.580  17.704  0.00  0.00    +0.000 OA
ATOM     20  N   UNL     1       0.809  10.701  17.939  0.00  0.00    +0.000 N 
ATOM     21  C   UNL     1       0.560  11.643  18.994  0.00  0.00    +0.000 C 
ATOM     22  C   UNL     1       1.436  12.898  18.926  0.00  0.00    +0.000 C 
ATOM     23  C   UNL     1       0.451  14.058  18.791  0.00  0.00    +0.000 C 
ATOM     24  C   UNL     1      -0.802  13.564  19.492  0.00  0.00    +0.000 C 
ATOM     25  C   UNL     1      -0.896  12.108  19.053  0.00  0.00    +0.000 C 
ATOM     26  C   UNL     1       0.897  10.772  20.209  0.00  0.00    +0.000 C 
ATOM     27  O   UNL     1       0.866  11.184  21.361  0.00  0.00    +0.000 OA
ATOM     28  H   UNL     1       0.825  10.901  16.948  0.00  0.00    +0.000 HD
ENDBRANCH  16  17
ENDBRANCH   2  16
TORSDOF 3
ENDMDL
MODEL 4
REMARK VINA RESULT:      -7.3      2.994      7.703
REMARK  Name = 
REMARK  3 active torsions:
REMARK  status: ('A' for Active; 'I' for Inactive)
REMARK    1  A    between atoms: C_2  and  C_3
REMARK    2  A    between atoms: C_3  and  N_4
REMARK    3  A    between atoms: C_18  and  C_19
REMARK                            x       y       z     vdW  Elec       q    Type
REMARK                         _______ _______ _______ _____ _____    ______ ____
ROOT
ATOM      1  O   UNL     1      -0.305   8.203  21.819  0.00  0.00    +0.000 OA
ATOM      2  C   UNL     1       0.649   7.763  21.167  0.00  0.00    +0.000 C 
ATOM      3  N   UNL     1       0.791   6.407  21.061  0.00  0.00    +0.000 N 
ATOM      4  C   UNL     1       1.850   5.775  20.478  0.00  0.00    +0.000 A 
ATOM      5  N   UNL     1       2.766   6.292  19.708  0.00  0.00    +0.000 NA
ATOM      6  C   UNL     1       3.748   5.358  19.439  0.00  0.00    +0.000 A 
ATOM      7  C   UNL     1       3.501   4.106  19.967  0.00  0.00    +0.000 A 
ATOM      8  S   UNL     1       2.017   4.119  20.844  0.00  0.00    +0.000 S 
ATOM      9  H   UNL     1       0.156   5.854  21.616  0.00  0.00    +0.000 HD
ENDROOT
BRANCH   6  10
ATOM     10  C   UNL     1       4.924   5.739  18.665  0.00  0.00    +0.000 A 
ATOM     11  C   UNL     1       4.820   6.435  17.455  0.00  0.00    +0.000 A 
ATOM     12  C   UNL     1       5.963   6.742  16.713  0.00  0.00    +0.000 A 
ATOM     13  C   UNL     1       7.222   6.356  17.171  0.00  0.00    +0.000 A 
ATOM     14  C   UNL     1       7.340   5.661  18.372  0.00  0.00    +0.000 A 
ATOM     15  C   UNL     1       6.198   5.351  19.113  0.00  0.00    +0.000 A 
ENDBRANCH   6  10
BRANCH   2  16
ATOM     16  C   UNL     1       1.701   8.720  20.601  0.00  0.00    +0.000 C 
BRANCH  16  17
ATOM     17  N   UNL     1       1.131   9.810  19.830  0.00  0.00    +0.000 N 
ATOM     18  C   UNL     1       1.159   9.813  18.469  0.00  0.00    +0.000 C 
ATOM     19  O   UNL     1       1.535   8.918  17.730  0.00  0.00    +0.000 OA
ATOM     20  N   UNL     1       0.741  11.042  18.017  0.00  0.00    +0.000 N 
ATOM     21  C   UNL     1       0.525  11.970  19.092  0.00  0.00    +0.000 C 
ATOM     22  C   UNL     1       1.412  13.218  19.023  0.00  0.00    +0.000 C 
ATOM     23  C   UNL     1       0.437  14.389  18.929  0.00  0.00    +0.000 C 
ATOM     24  C   UNL     1      -0.805  13.896  19.650  0.00  0.00    +0.000 C 
ATOM     25  C   UNL     1      -0.924  12.448  19.192  0.00  0.00    +0.000 C 
ATOM     26  C   UNL     1       0.881  11.077  20.285  0.00  0.00    +0.000 C 
ATOM     27  O   UNL     1       0.881  11.471  21.443  0.00  0.00    +0.000 OA
ATOM     28  H   UNL     1       0.737  11.258  17.029  0.00  0.00    +0.000 HD
ENDBRANCH  16  17
ENDBRANCH   2  16
TORSDOF 3
ENDMDL
MODEL 5
REMARK VINA RESULT:      -7.2      3.037      7.862
REMARK  Name = 
REMARK  3 active torsions:
REMARK  status: ('A' for Active; 'I' for Inactive)
REMARK    1  A    between atoms: C_2  and  C_3
REMARK    2  A    between atoms: C_3  and  N_4
REMARK    3  A    between atoms: C_18  and  C_19
REMARK                            x       y       z     vdW  Elec       q    Type
REMARK                         _______ _______ _______ _____ _____    ______ ____
ROOT
ATOM      1  O   UNL     1       0.569   7.178  21.479  0.00  0.00    +0.000 OA
ATOM      2  C   UNL     1       1.383   6.644  20.715  0.00  0.00    +0.000 C 
ATOM      3  N   UNL     1       1.458   5.279  20.702  0.00  0.00    +0.000 N 
ATOM      4  C   UNL     1       2.380   4.553  20.006  0.00  0.00    +0.000 A 
ATOM      5  N   UNL     1       3.168   4.965  19.052  0.00  0.00    +0.000 NA
ATOM      6  C   UNL     1       4.058   3.967  18.702  0.00  0.00    +0.000 A 
ATOM      7  C   UNL     1       3.862   2.773  19.368  0.00  0.00    +0.000 A 
ATOM      8  S   UNL     1       2.551   2.925  20.477  0.00  0.00    +0.000 S 
ATOM      9  H   UNL     1       0.909   4.801  21.400  0.00  0.00    +0.000 HD
ENDROOT
BRANCH   6  10
ATOM     10  C   UNL     1       5.096   4.230  17.712  0.00  0.00    +0.000 A 
ATOM     11  C   UNL     1       6.394   4.603  18.082  0.00  0.00    +0.000 A 
ATOM     12  C   UNL     1       7.352   4.895  17.108  0.00  0.00    +0.000 A 
ATOM     13  C   UNL     1       7.024   4.818  15.755  0.00  0.00    +0.000 A 
ATOM     14  C   UNL     1       5.736   4.450  15.374  0.00  0.00    +0.000 A 
ATOM     15  C   UNL     1       4.778   4.161  16.346  0.00  0.00    +0.000 A 
ENDBRANCH   6  10
BRANCH   2  16
ATOM     16  C   UNL     1       2.354   7.503  19.902  0.00  0.00    +0.000 C 
BRANCH  16  17
ATOM     17  N   UNL     1       1.707   8.601  19.208  0.00  0.00    +0.000 N 
ATOM     18  C   UNL     1       1.919   8.834  17.884  0.00  0.00    +0.000 C 
ATOM     19  O   UNL     1       2.549   8.145  17.099  0.00  0.00    +0.000 OA
ATOM     20  N   UNL     1       1.352  10.040  17.546  0.00  0.00    +0.000 N 
ATOM     21  C   UNL     1       0.827  10.731  18.690  0.00  0.00    +0.000 C 
ATOM     22  C   UNL     1       1.474  12.097  18.943  0.00  0.00    +0.000 C 
ATOM     23  C   UNL     1       0.325  13.099  18.855  0.00  0.00    +0.000 C 
ATOM     24  C   UNL     1      -0.894  12.304  19.288  0.00  0.00    +0.000 C 
ATOM     25  C   UNL     1      -0.685  10.952  18.618  0.00  0.00    +0.000 C 
ATOM     26  C   UNL     1       1.172   9.720  19.789  0.00  0.00    +0.000 C 
ATOM     27  O   UNL     1       0.941   9.912  20.975  0.00  0.00    +0.000 OA
ATOM     28  H   UNL     1       1.444  10.413  16.611  0.00  0.00    +0.000 HD
ENDBRANCH  16  17
ENDBRANCH   2  16
TORSDOF 3
ENDMDL
MODEL 6
REMARK VINA RESULT:      -7.1      2.888      7.667
REMARK  Name = 
REMARK  3 active torsions:
REMARK  status: ('A' for Active; 'I' for Inactive)
REMARK    1  A    between atoms: C_2  and  C_3
REMARK    2  A    between atoms: C_3  and  N_4
REMARK    3  A    between atoms: C_18  and  C_19
REMARK                            x       y       z     vdW  Elec       q    Type
REMARK                         _______ _______ _______ _____ _____    ______ ____
ROOT
ATOM      1  O   UNL     1       1.768  11.068  17.945  0.00  0.00    +0.000 OA
ATOM      2  C   UNL     1       1.882   9.891  18.306  0.00  0.00    +0.000 C 
ATOM      3  N   UNL     1       2.908   9.151  17.788  0.00  0.00    +0.000 N 
ATOM      4  C   UNL     1       3.093   7.816  17.997  0.00  0.00    +0.000 A 
ATOM      5  N   UNL     1       2.524   7.060  18.895  0.00  0.00    +0.000 NA
ATOM      6  C   UNL     1       2.863   5.737  18.690  0.00  0.00    +0.000 A 
ATOM      7  C   UNL     1       3.763   5.533  17.662  0.00  0.00    +0.000 A 
ATOM      8  S   UNL     1       4.161   7.038  16.923  0.00  0.00    +0.000 S 
ATOM      9  H   UNL     1       3.446   9.595  17.060  0.00  0.00    +0.000 HD
ENDROOT
BRANCH   6  10
ATOM     10  C   UNL     1       2.273   4.695  19.523  0.00  0.00    +0.000 A 
ATOM     11  C   UNL     1       2.608   4.549  20.875  0.00  0.00    +0.000 A 
ATOM     12  C   UNL     1       2.060   3.512  21.633  0.00  0.00    +0.000 A 
ATOM     13  C   UNL     1       1.174   2.607  21.049  0.00  0.00    +0.000 A 
ATOM     14  C   UNL     1       0.834   2.740  19.705  0.00  0.00    +0.000 A 
ATOM     15  C   UNL     1       1.382   3.775  18.946  0.00  0.00    +0.000 A 
ENDBRANCH   6  10
BRANCH   2  16
ATOM     16  C   UNL     1       0.825   9.259  19.215  0.00  0.00    +0.000 C 
BRANCH  16  17
ATOM     17  N   UNL     1      -0.099  10.226  19.779  0.00  0.00    +0.000 N 
ATOM     18  C   UNL     1      -1.194  10.653  19.091  0.00  0.00    +0.000 C 
ATOM     19  O   UNL     1      -1.607  10.241  18.020  0.00  0.00    +0.000 OA
ATOM     20  N   UNL     1      -1.766  11.703  19.770  0.00  0.00    +0.000 N 
ATOM     21  C   UNL     1      -0.985  12.103  20.907  0.00  0.00    +0.000 C 
ATOM     22  C   UNL     1      -0.490  13.551  20.843  0.00  0.00    +0.000 C 
ATOM     23  C   UNL     1      -1.094  14.228  22.072  0.00  0.00    +0.000 C 
ATOM     24  C   UNL     1      -1.238  13.103  23.082  0.00  0.00    +0.000 C 
ATOM     25  C   UNL     1      -1.725  11.934  22.235  0.00  0.00    +0.000 C 
ATOM     26  C   UNL     1       0.167  11.097  20.802  0.00  0.00    +0.000 C 
ATOM     27  O   UNL     1       1.123  11.088  21.564  0.00  0.00    +0.000 OA
ATOM     28  H   UNL     1      -2.568  12.190  19.392  0.00  0.00    +0.000 HD
ENDBRANCH  16  17
ENDBRANCH   2  16
TORSDOF 3
ENDMDL
MODEL 7
REMARK VINA RESULT:      -7.1      3.095      7.902
REMARK  Name = 
REMARK  3 active torsions:
REMARK  status: ('A' for Active; 'I' for Inactive)
REMARK    1  A    between atoms: C_2  and  C_3
REMARK    2  A    between atoms: C_3  and  N_4
REMARK    3  A    between atoms: C_18  and  C_19
REMARK                            x       y       z     vdW  Elec       q    Type
REMARK                         _______ _______ _______ _____ _____    ______ ____
ROOT
ATOM      1  O   UNL     1       0.734   6.605  21.331  0.00  0.00    +0.000 OA
ATOM      2  C   UNL     1       1.516   6.189  20.468  0.00  0.00    +0.000 C 
ATOM      3  N   UNL     1       1.528   4.849  20.198  0.00  0.00    +0.000 N 
ATOM      4  C   UNL     1       2.411   4.227  19.364  0.00  0.00    +0.000 A 
ATOM      5  N   UNL     1       3.210   4.776  18.492  0.00  0.00    +0.000 NA
ATOM      6  C   UNL     1       4.051   3.824  17.948  0.00  0.00    +0.000 A 
ATOM      7  C   UNL     1       3.805   2.535  18.381  0.00  0.00    +0.000 A 
ATOM      8  S   UNL     1       2.510   2.534  19.518  0.00  0.00    +0.000 S 
ATOM      9  H   UNL     1       0.963   4.273  20.802  0.00  0.00    +0.000 HD
ENDROOT
BRANCH   6  10
ATOM     10  C   UNL     1       5.093   4.222  17.009  0.00  0.00    +0.000 A 
ATOM     11  C   UNL     1       4.948   4.055  15.626  0.00  0.00    +0.000 A 
ATOM     12  C   UNL     1       5.985   4.403  14.757  0.00  0.00    +0.000 A 
ATOM     13  C   UNL     1       7.179   4.919  15.259  0.00  0.00    +0.000 A 
ATOM     14  C   UNL     1       7.337   5.089  16.633  0.00  0.00    +0.000 A 
ATOM     15  C   UNL     1       6.303   4.740  17.502  0.00  0.00    +0.000 A 
ENDBRANCH   6  10
BRANCH   2  16
ATOM     16  C   UNL     1       2.520   7.142  19.815  0.00  0.00    +0.000 C 
BRANCH  16  17
ATOM     17  N   UNL     1       1.892   8.249  19.118  0.00  0.00    +0.000 N 
ATOM     18  C   UNL     1       2.214   8.556  17.830  0.00  0.00    +0.000 C 
ATOM     19  O   UNL     1       2.940   7.932  17.076  0.00  0.00    +0.000 OA
ATOM     20  N   UNL     1       1.628   9.756  17.499  0.00  0.00    +0.000 N 
ATOM     21  C   UNL     1       0.973  10.367  18.622  0.00  0.00    +0.000 C 
ATOM     22  C   UNL     1       1.536  11.742  18.997  0.00  0.00    +0.000 C 
ATOM     23  C   UNL     1       0.358  12.703  18.850  0.00  0.00    +0.000 C 
ATOM     24  C   UNL     1      -0.861  11.840  19.131  0.00  0.00    +0.000 C 
ATOM     25  C   UNL     1      -0.535  10.533  18.421  0.00  0.00    +0.000 C 
ATOM     26  C   UNL     1       1.260   9.316  19.698  0.00  0.00    +0.000 C 
ATOM     27  O   UNL     1       0.915   9.438  20.866  0.00  0.00    +0.000 OA
ATOM     28  H   UNL     1       1.788  10.179  16.595  0.00  0.00    +0.000 HD
ENDBRANCH  16  17
ENDBRANCH   2  16
TORSDOF 3
ENDMDL
MODEL 8
REMARK VINA RESULT:      -6.9      5.446      9.047
REMARK  Name = 
REMARK  3 active torsions:
REMARK  status: ('A' for Active; 'I' for Inactive)
REMARK    1  A    between atoms: C_2  and  C_3
REMARK    2  A    between atoms: C_3  and  N_4
REMARK    3  A    between atoms: C_18  and  C_19
REMARK                            x       y       z     vdW  Elec       q    Type
REMARK                         _______ _______ _______ _____ _____    ______ ____
ROOT
ATOM      1  O   UNL     1      -5.682  15.372  24.142  0.00  0.00    +0.000 OA
ATOM      2  C   UNL     1      -4.742  14.631  23.829  0.00  0.00    +0.000 C 
ATOM      3  N   UNL     1      -3.522  15.199  23.591  0.00  0.00    +0.000 N 
ATOM      4  C   UNL     1      -2.426  14.531  23.125  0.00  0.00    +0.000 A 
ATOM      5  N   UNL     1      -2.240  13.242  23.067  0.00  0.00    +0.000 NA
ATOM      6  C   UNL     1      -1.064  12.959  22.399  0.00  0.00    +0.000 A 
ATOM      7  C   UNL     1      -0.339  14.074  22.026  0.00  0.00    +0.000 A 
ATOM      8  S   UNL     1      -1.174  15.504  22.503  0.00  0.00    +0.000 S 
ATOM      9  H   UNL     1      -3.499  16.207  23.586  0.00  0.00    +0.000 HD
ENDROOT
BRANCH   6  10
ATOM     10  C   UNL     1      -0.691  11.574  22.135  0.00  0.00    +0.000 A 
ATOM     11  C   UNL     1      -0.194  11.164  20.892  0.00  0.00    +0.000 A 
ATOM     12  C   UNL     1       0.109   9.821  20.657  0.00  0.00    +0.000 A 
ATOM     13  C   UNL     1      -0.081   8.872  21.660  0.00  0.00    +0.000 A 
ATOM     14  C   UNL     1      -0.577   9.265  22.901  0.00  0.00    +0.000 A 
ATOM     15  C   UNL     1      -0.882  10.607  23.136  0.00  0.00    +0.000 A 
ENDBRANCH   6  10
BRANCH   2  16
ATOM     16  C   UNL     1      -4.983  13.137  23.603  0.00  0.00    +0.000 C 
BRANCH  16  17
ATOM     17  N   UNL     1      -5.935  12.863  22.542  0.00  0.00    +0.000 N 
ATOM     18  C   UNL     1      -7.074  12.152  22.770  0.00  0.00    +0.000 C 
ATOM     19  O   UNL     1      -7.503  11.758  23.841  0.00  0.00    +0.000 OA
ATOM     20  N   UNL     1      -7.674  11.872  21.564  0.00  0.00    +0.000 N 
ATOM     21  C   UNL     1      -6.874  12.296  20.450  0.00  0.00    +0.000 C 
ATOM     22  C   UNL     1      -6.456  11.157  19.515  0.00  0.00    +0.000 C 
ATOM     23  C   UNL     1      -7.050  11.524  18.157  0.00  0.00    +0.000 C 
ATOM     24  C   UNL     1      -7.100  13.042  18.173  0.00  0.00    +0.000 C 
ATOM     25  C   UNL     1      -7.557  13.361  19.590  0.00  0.00    +0.000 C 
ATOM     26  C   UNL     1      -5.677  12.894  21.197  0.00  0.00    +0.000 C 
ATOM     27  O   UNL     1      -4.695  13.356  20.633  0.00  0.00    +0.000 OA
ATOM     28  H   UNL     1      -8.512  11.309  21.521  0.00  0.00    +0.000 HD
ENDBRANCH  16  17
ENDBRANCH   2  16
TORSDOF 3
ENDMDL
MODEL 9
REMARK VINA RESULT:      -6.9      3.885      6.684
REMARK  Name = 
REMARK  3 active torsions:
REMARK  status: ('A' for Active; 'I' for Inactive)
REMARK    1  A    between atoms: C_2  and  C_3
REMARK    2  A    between atoms: C_3  and  N_4
REMARK    3  A    between atoms: C_18  and  C_19
REMARK                            x       y       z     vdW  Elec       q    Type
REMARK                         _______ _______ _______ _____ _____    ______ ____
ROOT
ATOM      1  O   UNL     1       1.041   9.685  18.008  0.00  0.00    +0.000 OA
ATOM      2  C   UNL     1      -0.149   9.974  18.182  0.00  0.00    +0.000 C 
ATOM      3  N   UNL     1      -0.987   9.943  17.102  0.00  0.00    +0.000 N 
ATOM      4  C   UNL     1      -2.290  10.347  17.112  0.00  0.00    +0.000 A 
ATOM      5  N   UNL     1      -3.048  10.581  18.147  0.00  0.00    +0.000 NA
ATOM      6  C   UNL     1      -4.258  11.112  17.744  0.00  0.00    +0.000 A 
ATOM      7  C   UNL     1      -4.414  11.195  16.374  0.00  0.00    +0.000 A 
ATOM      8  S   UNL     1      -2.993  10.622  15.585  0.00  0.00    +0.000 S 
ATOM      9  H   UNL     1      -0.548   9.783  16.209  0.00  0.00    +0.000 HD
ENDROOT
BRANCH   6  10
ATOM     10  C   UNL     1      -5.237  11.536  18.739  0.00  0.00    +0.000 A 
ATOM     11  C   UNL     1      -6.515  10.969  18.809  0.00  0.00    +0.000 A 
ATOM     12  C   UNL     1      -7.445  11.431  19.743  0.00  0.00    +0.000 A 
ATOM     13  C   UNL     1      -7.110  12.465  20.616  0.00  0.00    +0.000 A 
ATOM     14  C   UNL     1      -5.843  13.039  20.556  0.00  0.00    +0.000 A 
ATOM     15  C   UNL     1      -4.913  12.580  19.622  0.00  0.00    +0.000 A 
ENDBRANCH   6  10
BRANCH   2  16
ATOM     16  C   UNL     1      -0.630  10.467  19.549  0.00  0.00    +0.000 C 
BRANCH  16  17
ATOM     17  N   UNL     1      -0.090  11.764  19.914  0.00  0.00    +0.000 N 
ATOM     18  C   UNL     1       0.283  12.049  21.192  0.00  0.00    +0.000 C 
ATOM     19  O   UNL     1       0.328  11.285  22.142  0.00  0.00    +0.000 OA
ATOM     20  N   UNL     1       0.558  13.393  21.288  0.00  0.00    +0.000 N 
ATOM     21  C   UNL     1       0.257  14.095  20.072  0.00  0.00    +0.000 C 
ATOM     22  C   UNL     1      -0.803  15.190  20.233  0.00  0.00    +0.000 C 
ATOM     23  C   UNL     1      -0.100  16.482  19.822  0.00  0.00    +0.000 C 
ATOM     24  C   UNL     1       0.948  16.031  18.820  0.00  0.00    +0.000 C 
ATOM     25  C   UNL     1       1.486  14.744  19.432  0.00  0.00    +0.000 C 
ATOM     26  C   UNL     1      -0.246  12.931  19.213  0.00  0.00    +0.000 C 
ATOM     27  O   UNL     1      -0.665  13.069  18.071  0.00  0.00    +0.000 OA
ATOM     28  H   UNL     1       0.808  13.809  22.175  0.00  0.00    +0.000 HD
ENDBRANCH  16  17
ENDBRANCH   2  16
TORSDOF 3
ENDMDL
