MODEL 1
REMARK VINA RESULT:      -6.6      0.000      0.000
REMARK  Name = 
REMARK  7 active torsions:
REMARK  status: ('A' for Active; 'I' for Inactive)
REMARK    1  A    between atoms: C_1  and  N_2
REMARK    2  A    between atoms: N_5  and  C_6
REMARK    3  A    between atoms: C_6  and  C_7
REMARK    4  A    between atoms: C_7  and  O_8
REMARK    5  A    between atoms: O_8  and  C_9
REMARK    6  A    between atoms: C_9  and  C_11
REMARK    7  A    between atoms: C_16  and  O_17
REMARK                            x       y       z     vdW  Elec       q    Type
REMARK                         _______ _______ _______ _____ _____    ______ ____
ROOT
ATOM      1  C   UNL     1       3.581   4.923  17.544  0.00  0.00    +0.000 C 
ATOM      2  O   UNL     1       3.702   6.109  17.305  0.00  0.00    +0.000 OA
ENDROOT
BRANCH   1   3
ATOM      3  C   UNL     1       2.615   4.305  18.475  0.00  0.00    +0.000 A 
ATOM      4  C   UNL     1       1.853   3.209  18.042  0.00  0.00    +0.000 A 
ATOM      5  C   UNL     1       0.955   2.604  18.912  0.00  0.00    +0.000 A 
ATOM      6  C   UNL     1       0.810   3.085  20.213  0.00  0.00    +0.000 A 
ATOM      7  C   UNL     1       1.564   4.179  20.645  0.00  0.00    +0.000 A 
ATOM      8  C   UNL     1       2.466   4.789  19.776  0.00  0.00    +0.000 A 
BRANCH   8   9
ATOM      9  O   UNL     1       3.182   5.875  20.193  0.00  0.00    +0.000 OA
ATOM     10  H   UNL     1       3.875   6.079  19.545  0.00  0.00    +0.000 HD
ENDBRANCH   8   9
ENDBRANCH   1   3
BRANCH   1  11
ATOM     11  O   UNL     1       4.377   3.938  17.047  0.00  0.00    +0.000 OA
BRANCH  11  12
ATOM     12  C   UNL     1       5.131   4.315  15.890  0.00  0.00    +0.000 C 
BRANCH  12  13
ATOM     13  C   UNL     1       6.637   4.283  16.178  0.00  0.00    +0.000 C 
BRANCH  13  18
ATOM     14  C   UNL     1       8.137   8.583  17.897  0.00  0.00    +0.000 C 
ATOM     15  N   UNL     1       7.686   7.201  17.917  0.00  0.00    +0.000 N 
ATOM     16  C   UNL     1       7.967   6.262  18.898  0.00  0.00    +0.000 A 
ATOM     17  C   UNL     1       7.569   5.051  18.408  0.00  0.00    +0.000 A 
ATOM     18  N   UNL     1       7.017   5.294  17.160  0.00  0.00    +0.000 N 
ATOM     19  C   UNL     1       7.033   6.610  16.908  0.00  0.00    +0.000 A 
ENDBRANCH  13  18
ENDBRANCH  12  13
ENDBRANCH  11  12
ENDBRANCH   1  11
TORSDOF 6
ENDMDL
MODEL 2
REMARK VINA RESULT:      -6.6      1.083      1.262
REMARK  Name = 
REMARK  7 active torsions:
REMARK  status: ('A' for Active; 'I' for Inactive)
REMARK    1  A    between atoms: C_1  and  N_2
REMARK    2  A    between atoms: N_5  and  C_6
REMARK    3  A    between atoms: C_6  and  C_7
REMARK    4  A    between atoms: C_7  and  O_8
REMARK    5  A    between atoms: O_8  and  C_9
REMARK    6  A    between atoms: C_9  and  C_11
REMARK    7  A    between atoms: C_16  and  O_17
REMARK                            x       y       z     vdW  Elec       q    Type
REMARK                         _______ _______ _______ _____ _____    ______ ____
ROOT
ATOM      1  C   UNL     1       3.701   4.655  17.796  0.00  0.00    +0.000 C 
ATOM      2  O   UNL     1       3.620   5.813  17.436  0.00  0.00    +0.000 OA
ENDROOT
BRANCH   1   3
ATOM      3  C   UNL     1       3.016   4.039  18.950  0.00  0.00    +0.000 A 
ATOM      4  C   UNL     1       1.650   4.288  19.148  0.00  0.00    +0.000 A 
ATOM      5  C   UNL     1       0.987   3.699  20.219  0.00  0.00    +0.000 A 
ATOM      6  C   UNL     1       1.679   2.862  21.093  0.00  0.00    +0.000 A 
ATOM      7  C   UNL     1       3.041   2.616  20.901  0.00  0.00    +0.000 A 
ATOM      8  C   UNL     1       3.709   3.204  19.829  0.00  0.00    +0.000 A 
BRANCH   8   9
ATOM      9  O   UNL     1       5.046   2.982  19.660  0.00  0.00    +0.000 OA
ATOM     10  H   UNL     1       5.426   3.680  19.103  0.00  0.00    +0.000 HD
ENDBRANCH   8   9
ENDBRANCH   1   3
BRANCH   1  11
ATOM     11  O   UNL     1       4.510   3.715  17.234  0.00  0.00    +0.000 OA
BRANCH  11  12
ATOM     12  C   UNL     1       5.145   4.130  16.020  0.00  0.00    +0.000 C 
BRANCH  12  13
ATOM     13  C   UNL     1       6.665   4.228  16.198  0.00  0.00    +0.000 C 
BRANCH  13  18
ATOM     14  C   UNL     1       8.070   8.578  17.871  0.00  0.00    +0.000 C 
ATOM     15  N   UNL     1       7.653   7.186  17.905  0.00  0.00    +0.000 N 
ATOM     16  C   UNL     1       7.966   6.261  18.891  0.00  0.00    +0.000 A 
ATOM     17  C   UNL     1       7.595   5.037  18.414  0.00  0.00    +0.000 A 
ATOM     18  N   UNL     1       7.028   5.256  17.169  0.00  0.00    +0.000 N 
ATOM     19  C   UNL     1       7.008   6.569  16.906  0.00  0.00    +0.000 A 
ENDBRANCH  13  18
ENDBRANCH  12  13
ENDBRANCH  11  12
ENDBRANCH   1  11
TORSDOF 6
ENDMDL
MODEL 3
REMARK VINA RESULT:      -6.2      0.696      1.276
REMARK  Name = 
REMARK  7 active torsions:
REMARK  status: ('A' for Active; 'I' for Inactive)
REMARK    1  A    between atoms: C_1  and  N_2
REMARK    2  A    between atoms: N_5  and  C_6
REMARK    3  A    between atoms: C_6  and  C_7
REMARK    4  A    between atoms: C_7  and  O_8
REMARK    5  A    between atoms: O_8  and  C_9
REMARK    6  A    between atoms: C_9  and  C_11
REMARK    7  A    between atoms: C_16  and  O_17
REMARK                            x       y       z     vdW  Elec       q    Type
REMARK                         _______ _______ _______ _____ _____    ______ ____
ROOT
ATOM      1  C   UNL     1       3.688   5.121  17.641  0.00  0.00    +0.000 C 
ATOM      2  O   UNL     1       3.744   6.313  17.409  0.00  0.00    +0.000 OA
ENDROOT
BRANCH   1   3
ATOM      3  C   UNL     1       2.670   4.427  18.456  0.00  0.00    +0.000 A 
ATOM      4  C   UNL     1       1.989   3.328  17.911  0.00  0.00    +0.000 A 
ATOM      5  C   UNL     1       1.044   2.652  18.674  0.00  0.00    +0.000 A 
ATOM      6  C   UNL     1       0.773   3.066  19.978  0.00  0.00    +0.000 A 
ATOM      7  C   UNL     1       1.447   4.164  20.521  0.00  0.00    +0.000 A 
ATOM      8  C   UNL     1       2.395   4.844  19.760  0.00  0.00    +0.000 A 
BRANCH   8   9
ATOM      9  O   UNL     1       3.032   5.932  20.285  0.00  0.00    +0.000 OA
ATOM     10  H   UNL     1       2.956   6.682  19.674  0.00  0.00    +0.000 HD
ENDBRANCH   8   9
ENDBRANCH   1   3
BRANCH   1  11
ATOM     11  O   UNL     1       4.610   4.202  17.245  0.00  0.00    +0.000 OA
BRANCH  11  12
ATOM     12  C   UNL     1       5.009   4.315  15.875  0.00  0.00    +0.000 C 
BRANCH  12  13
ATOM     13  C   UNL     1       6.536   4.321  15.744  0.00  0.00    +0.000 C 
BRANCH  13  18
ATOM     14  C   UNL     1       8.228   5.569  20.134  0.00  0.00    +0.000 C 
ATOM     15  N   UNL     1       7.907   5.696  18.722  0.00  0.00    +0.000 N 
ATOM     16  C   UNL     1       7.656   6.880  18.043  0.00  0.00    +0.000 A 
ATOM     17  C   UNL     1       7.158   6.532  16.820  0.00  0.00    +0.000 A 
ATOM     18  N   UNL     1       7.161   5.147  16.773  0.00  0.00    +0.000 N 
ATOM     19  C   UNL     1       7.682   4.658  17.906  0.00  0.00    +0.000 A 
ENDBRANCH  13  18
ENDBRANCH  12  13
ENDBRANCH  11  12
ENDBRANCH   1  11
TORSDOF 6
ENDMDL
MODEL 4
REMARK VINA RESULT:      -6.2      3.070      6.447
REMARK  Name = 
REMARK  7 active torsions:
REMARK  status: ('A' for Active; 'I' for Inactive)
REMARK    1  A    between atoms: C_1  and  N_2
REMARK    2  A    between atoms: N_5  and  C_6
REMARK    3  A    between atoms: C_6  and  C_7
REMARK    4  A    between atoms: C_7  and  O_8
REMARK    5  A    between atoms: O_8  and  C_9
REMARK    6  A    between atoms: C_9  and  C_11
REMARK    7  A    between atoms: C_16  and  O_17
REMARK                            x       y       z     vdW  Elec       q    Type
REMARK                         _______ _______ _______ _____ _____    ______ ____
ROOT
ATOM      1  C   UNL     1       6.572   5.642  15.604  0.00  0.00    +0.000 C 
ATOM      2  O   UNL     1       7.574   6.032  16.172  0.00  0.00    +0.000 OA
ENDROOT
BRANCH   1   3
ATOM      3  C   UNL     1       6.514   4.892  14.333  0.00  0.00    +0.000 A 
ATOM      4  C   UNL     1       5.434   4.026  14.098  0.00  0.00    +0.000 A 
ATOM      5  C   UNL     1       5.355   3.329  12.899  0.00  0.00    +0.000 A 
ATOM      6  C   UNL     1       6.346   3.490  11.931  0.00  0.00    +0.000 A 
ATOM      7  C   UNL     1       7.424   4.347  12.164  0.00  0.00    +0.000 A 
ATOM      8  C   UNL     1       7.508   5.049  13.365  0.00  0.00    +0.000 A 
BRANCH   8   9
ATOM      9  O   UNL     1       8.577   5.865  13.601  0.00  0.00    +0.000 OA
ATOM     10  H   UNL     1       8.365   6.483  14.318  0.00  0.00    +0.000 HD
ENDBRANCH   8   9
ENDBRANCH   1   3
BRANCH   1  11
ATOM     11  O   UNL     1       5.297   5.895  16.004  0.00  0.00    +0.000 OA
BRANCH  11  12
ATOM     12  C   UNL     1       5.165   6.226  17.390  0.00  0.00    +0.000 C 
BRANCH  12  13
ATOM     13  C   UNL     1       3.690   6.319  17.798  0.00  0.00    +0.000 C 
BRANCH  13  18
ATOM     14  C   UNL     1       3.562   1.496  18.446  0.00  0.00    +0.000 C 
ATOM     15  N   UNL     1       3.077   2.864  18.371  0.00  0.00    +0.000 N 
ATOM     16  C   UNL     1       1.782   3.258  18.064  0.00  0.00    +0.000 A 
ATOM     17  C   UNL     1       1.820   4.607  17.859  0.00  0.00    +0.000 A 
ATOM     18  N   UNL     1       3.128   5.003  18.088  0.00  0.00    +0.000 N 
ATOM     19  C   UNL     1       3.861   3.946  18.464  0.00  0.00    +0.000 A 
ENDBRANCH  13  18
ENDBRANCH  12  13
ENDBRANCH  11  12
ENDBRANCH   1  11
TORSDOF 6
ENDMDL
MODEL 5
REMARK VINA RESULT:      -6.2      1.630      3.129
REMARK  Name = 
REMARK  7 active torsions:
REMARK  status: ('A' for Active; 'I' for Inactive)
REMARK    1  A    between atoms: C_1  and  N_2
REMARK    2  A    between atoms: N_5  and  C_6
REMARK    3  A    between atoms: C_6  and  C_7
REMARK    4  A    between atoms: C_7  and  O_8
REMARK    5  A    between atoms: O_8  and  C_9
REMARK    6  A    between atoms: C_9  and  C_11
REMARK    7  A    between atoms: C_16  and  O_17
REMARK                            x       y       z     vdW  Elec       q    Type
REMARK                         _______ _______ _______ _____ _____    ______ ____
ROOT
ATOM      1  C   UNL     1       4.197   5.135  19.458  0.00  0.00    +0.000 C 
ATOM      2  O   UNL     1       5.331   4.934  19.845  0.00  0.00    +0.000 OA
ENDROOT
BRANCH   1   3
ATOM      3  C   UNL     1       3.136   4.124  19.272  0.00  0.00    +0.000 A 
ATOM      4  C   UNL     1       1.945   4.238  20.006  0.00  0.00    +0.000 A 
ATOM      5  C   UNL     1       0.930   3.306  19.827  0.00  0.00    +0.000 A 
ATOM      6  C   UNL     1       1.094   2.261  18.920  0.00  0.00    +0.000 A 
ATOM      7  C   UNL     1       2.281   2.142  18.191  0.00  0.00    +0.000 A 
ATOM      8  C   UNL     1       3.301   3.074  18.367  0.00  0.00    +0.000 A 
BRANCH   8   9
ATOM      9  O   UNL     1       4.469   2.940  17.673  0.00  0.00    +0.000 OA
ATOM     10  H   UNL     1       5.222   3.046  18.276  0.00  0.00    +0.000 HD
ENDBRANCH   8   9
ENDBRANCH   1   3
BRANCH   1  11
ATOM     11  O   UNL     1       3.710   6.337  19.048  0.00  0.00    +0.000 OA
BRANCH  11  12
ATOM     12  C   UNL     1       3.756   6.542  17.632  0.00  0.00    +0.000 C 
BRANCH  12  13
ATOM     13  C   UNL     1       5.115   7.102  17.198  0.00  0.00    +0.000 C 
BRANCH  13  18
ATOM     14  C   UNL     1       5.973   3.810  13.717  0.00  0.00    +0.000 C 
ATOM     15  N   UNL     1       6.237   4.676  14.854  0.00  0.00    +0.000 N 
ATOM     16  C   UNL     1       7.184   4.461  15.845  0.00  0.00    +0.000 A 
ATOM     17  C   UNL     1       6.930   5.368  16.834  0.00  0.00    +0.000 A 
ATOM     18  N   UNL     1       5.864   6.137  16.397  0.00  0.00    +0.000 N 
ATOM     19  C   UNL     1       5.501   5.751  15.167  0.00  0.00    +0.000 A 
ENDBRANCH  13  18
ENDBRANCH  12  13
ENDBRANCH  11  12
ENDBRANCH   1  11
TORSDOF 6
ENDMDL
MODEL 6
REMARK VINA RESULT:      -6.2      3.091      6.335
REMARK  Name = 
REMARK  7 active torsions:
REMARK  status: ('A' for Active; 'I' for Inactive)
REMARK    1  A    between atoms: C_1  and  N_2
REMARK    2  A    between atoms: N_5  and  C_6
REMARK    3  A    between atoms: C_6  and  C_7
REMARK    4  A    between atoms: C_7  and  O_8
REMARK    5  A    between atoms: O_8  and  C_9
REMARK    6  A    between atoms: C_9  and  C_11
REMARK    7  A    between atoms: C_16  and  O_17
REMARK                            x       y       z     vdW  Elec       q    Type
REMARK                         _______ _______ _______ _____ _____    ______ ____
ROOT
ATOM      1  C   UNL     1       6.573   5.127  15.584  0.00  0.00    +0.000 C 
ATOM      2  O   UNL     1       7.524   5.255  16.331  0.00  0.00    +0.000 OA
ENDROOT
BRANCH   1   3
ATOM      3  C   UNL     1       6.601   4.619  14.197  0.00  0.00    +0.000 A 
ATOM      4  C   UNL     1       5.601   3.731  13.774  0.00  0.00    +0.000 A 
ATOM      5  C   UNL     1       5.603   3.261  12.466  0.00  0.00    +0.000 A 
ATOM      6  C   UNL     1       6.596   3.671  11.577  0.00  0.00    +0.000 A 
ATOM      7  C   UNL     1       7.595   4.552  11.998  0.00  0.00    +0.000 A 
ATOM      8  C   UNL     1       7.598   5.026  13.308  0.00  0.00    +0.000 A 
BRANCH   8   9
ATOM      9  O   UNL     1       8.591   5.866  13.724  0.00  0.00    +0.000 OA
ATOM     10  H   UNL     1       9.097   5.447  14.438  0.00  0.00    +0.000 HD
ENDBRANCH   8   9
ENDBRANCH   1   3
BRANCH   1  11
ATOM     11  O   UNL     1       5.297   5.506  15.869  0.00  0.00    +0.000 OA
BRANCH  11  12
ATOM     12  C   UNL     1       5.196   6.628  16.751  0.00  0.00    +0.000 C 
BRANCH  12  13
ATOM     13  C   UNL     1       4.119   6.397  17.818  0.00  0.00    +0.000 C 
BRANCH  13  18
ATOM     14  C   UNL     1       2.181   2.078  18.950  0.00  0.00    +0.000 C 
ATOM     15  N   UNL     1       3.205   3.088  18.741  0.00  0.00    +0.000 N 
ATOM     16  C   UNL     1       4.436   3.149  19.378  0.00  0.00    +0.000 A 
ATOM     17  C   UNL     1       4.971   4.370  19.082  0.00  0.00    +0.000 A 
ATOM     18  N   UNL     1       4.070   4.999  18.238  0.00  0.00    +0.000 N 
ATOM     19  C   UNL     1       3.039   4.182  17.986  0.00  0.00    +0.000 A 
ENDBRANCH  13  18
ENDBRANCH  12  13
ENDBRANCH  11  12
ENDBRANCH   1  11
TORSDOF 6
ENDMDL
MODEL 7
REMARK VINA RESULT:      -6.2      2.203      3.470
REMARK  Name = 
REMARK  7 active torsions:
REMARK  status: ('A' for Active; 'I' for Inactive)
REMARK    1  A    between atoms: C_1  and  N_2
REMARK    2  A    between atoms: N_5  and  C_6
REMARK    3  A    between atoms: C_6  and  C_7
REMARK    4  A    between atoms: C_7  and  O_8
REMARK    5  A    between atoms: O_8  and  C_9
REMARK    6  A    between atoms: C_9  and  C_11
REMARK    7  A    between atoms: C_16  and  O_17
REMARK                            x       y       z     vdW  Elec       q    Type
REMARK                         _______ _______ _______ _____ _____    ______ ____
ROOT
ATOM      1  C   UNL     1       4.568   2.420  20.379  0.00  0.00    +0.000 C 
ATOM      2  O   UNL     1       5.070   1.663  21.187  0.00  0.00    +0.000 OA
ENDROOT
BRANCH   1   3
ATOM      3  C   UNL     1       3.128   2.580  20.094  0.00  0.00    +0.000 A 
ATOM      4  C   UNL     1       2.322   3.273  21.011  0.00  0.00    +0.000 A 
ATOM      5  C   UNL     1       0.969   3.448  20.747  0.00  0.00    +0.000 A 
ATOM      6  C   UNL     1       0.414   2.938  19.574  0.00  0.00    +0.000 A 
ATOM      7  C   UNL     1       1.213   2.243  18.663  0.00  0.00    +0.000 A 
ATOM      8  C   UNL     1       2.571   2.065  18.923  0.00  0.00    +0.000 A 
BRANCH   8   9
ATOM      9  O   UNL     1       3.343   1.363  18.042  0.00  0.00    +0.000 OA
ATOM     10  H   UNL     1       3.930   1.970  17.565  0.00  0.00    +0.000 HD
ENDBRANCH   8   9
ENDBRANCH   1   3
BRANCH   1  11
ATOM     11  O   UNL     1       5.259   3.220  19.522  0.00  0.00    +0.000 OA
BRANCH  11  12
ATOM     12  C   UNL     1       4.747   4.552  19.412  0.00  0.00    +0.000 C 
BRANCH  12  13
ATOM     13  C   UNL     1       5.829   5.522  18.923  0.00  0.00    +0.000 C 
BRANCH  13  18
ATOM     14  C   UNL     1       5.374   4.341  14.223  0.00  0.00    +0.000 C 
ATOM     15  N   UNL     1       6.029   4.699  15.470  0.00  0.00    +0.000 N 
ATOM     16  C   UNL     1       7.325   4.369  15.838  0.00  0.00    +0.000 A 
ATOM     17  C   UNL     1       7.448   4.677  17.162  0.00  0.00    +0.000 A 
ATOM     18  N   UNL     1       6.236   5.225  17.552  0.00  0.00    +0.000 N 
ATOM     19  C   UNL     1       5.412   5.295  16.499  0.00  0.00    +0.000 A 
ENDBRANCH  13  18
ENDBRANCH  12  13
ENDBRANCH  11  12
ENDBRANCH   1  11
TORSDOF 6
ENDMDL
MODEL 8
REMARK VINA RESULT:      -6.1      3.067      6.233
REMARK  Name = 
REMARK  7 active torsions:
REMARK  status: ('A' for Active; 'I' for Inactive)
REMARK    1  A    between atoms: C_1  and  N_2
REMARK    2  A    between atoms: N_5  and  C_6
REMARK    3  A    between atoms: C_6  and  C_7
REMARK    4  A    between atoms: C_7  and  O_8
REMARK    5  A    between atoms: O_8  and  C_9
REMARK    6  A    between atoms: C_9  and  C_11
REMARK    7  A    between atoms: C_16  and  O_17
REMARK                            x       y       z     vdW  Elec       q    Type
REMARK                         _______ _______ _______ _____ _____    ______ ____
ROOT
ATOM      1  C   UNL     1       7.213   5.134  15.836  0.00  0.00    +0.000 C 
ATOM      2  O   UNL     1       7.848   4.550  16.692  0.00  0.00    +0.000 OA
ENDROOT
BRANCH   1   3
ATOM      3  C   UNL     1       6.953   4.669  14.458  0.00  0.00    +0.000 A 
ATOM      4  C   UNL     1       5.911   3.757  14.229  0.00  0.00    +0.000 A 
ATOM      5  C   UNL     1       5.641   3.326  12.936  0.00  0.00    +0.000 A 
ATOM      6  C   UNL     1       6.403   3.798  11.869  0.00  0.00    +0.000 A 
ATOM      7  C   UNL     1       7.445   4.703  12.095  0.00  0.00    +0.000 A 
ATOM      8  C   UNL     1       7.719   5.138  13.390  0.00  0.00    +0.000 A 
BRANCH   8   9
ATOM      9  O   UNL     1       8.754   6.001  13.610  0.00  0.00    +0.000 OA
ATOM     10  H   UNL     1       8.707   6.343  14.517  0.00  0.00    +0.000 HD
ENDBRANCH   8   9
ENDBRANCH   1   3
BRANCH   1  11
ATOM     11  O   UNL     1       6.679   6.378  15.969  0.00  0.00    +0.000 OA
BRANCH  11  12
ATOM     12  C   UNL     1       5.408   6.410  16.628  0.00  0.00    +0.000 C 
BRANCH  12  13
ATOM     13  C   UNL     1       5.568   6.235  18.143  0.00  0.00    +0.000 C 
BRANCH  13  18
ATOM     14  C   UNL     1       2.194   4.397  21.133  0.00  0.00    +0.000 C 
ATOM     15  N   UNL     1       3.111   4.464  20.007  0.00  0.00    +0.000 N 
ATOM     16  C   UNL     1       3.707   3.386  19.370  0.00  0.00    +0.000 A 
ATOM     17  C   UNL     1       4.670   3.897  18.549  0.00  0.00    +0.000 A 
ATOM     18  N   UNL     1       4.604   5.275  18.677  0.00  0.00    +0.000 N 
ATOM     19  C   UNL     1       3.609   5.605  19.511  0.00  0.00    +0.000 A 
ENDBRANCH  13  18
ENDBRANCH  12  13
ENDBRANCH  11  12
ENDBRANCH   1  11
TORSDOF 6
ENDMDL
MODEL 9
REMARK VINA RESULT:      -6.1      1.983      3.321
REMARK  Name = 
REMARK  7 active torsions:
REMARK  status: ('A' for Active; 'I' for Inactive)
REMARK    1  A    between atoms: C_1  and  N_2
REMARK    2  A    between atoms: N_5  and  C_6
REMARK    3  A    between atoms: C_6  and  C_7
REMARK    4  A    between atoms: C_7  and  O_8
REMARK    5  A    between atoms: O_8  and  C_9
REMARK    6  A    between atoms: C_9  and  C_11
REMARK    7  A    between atoms: C_16  and  O_17
REMARK                            x       y       z     vdW  Elec       q    Type
REMARK                         _______ _______ _______ _____ _____    ______ ____
ROOT
ATOM      1  C   UNL     1       2.565   6.140  18.254  0.00  0.00    +0.000 C 
ATOM      2  O   UNL     1       2.174   7.287  18.348  0.00  0.00    +0.000 OA
ENDROOT
BRANCH   1   3
ATOM      3  C   UNL     1       2.096   4.980  19.039  0.00  0.00    +0.000 A 
ATOM      4  C   UNL     1       2.257   4.986  20.433  0.00  0.00    +0.000 A 
ATOM      5  C   UNL     1       1.802   3.911  21.187  0.00  0.00    +0.000 A 
ATOM      6  C   UNL     1       1.186   2.829  20.560  0.00  0.00    +0.000 A 
ATOM      7  C   UNL     1       1.029   2.818  19.171  0.00  0.00    +0.000 A 
ATOM      8  C   UNL     1       1.483   3.894  18.411  0.00  0.00    +0.000 A 
BRANCH   8   9
ATOM      9  O   UNL     1       1.351   3.867  17.052  0.00  0.00    +0.000 OA
ATOM     10  H   UNL     1       0.922   3.041  16.781  0.00  0.00    +0.000 HD
ENDBRANCH   8   9
ENDBRANCH   1   3
BRANCH   1  11
ATOM     11  O   UNL     1       3.577   5.721  17.447  0.00  0.00    +0.000 OA
BRANCH  11  12
ATOM     12  C   UNL     1       4.841   5.584  18.106  0.00  0.00    +0.000 C 
BRANCH  12  13
ATOM     13  C   UNL     1       5.625   4.388  17.553  0.00  0.00    +0.000 C 
BRANCH  13  18
ATOM     14  C   UNL     1       5.833   3.349  12.802  0.00  0.00    +0.000 C 
ATOM     15  N   UNL     1       6.034   4.094  14.033  0.00  0.00    +0.000 N 
ATOM     16  C   UNL     1       7.059   4.994  14.288  0.00  0.00    +0.000 A 
ATOM     17  C   UNL     1       7.018   5.268  15.624  0.00  0.00    +0.000 A 
ATOM     18  N   UNL     1       5.942   4.561  16.137  0.00  0.00    +0.000 N 
ATOM     19  C   UNL     1       5.315   3.911  15.149  0.00  0.00    +0.000 A 
ENDBRANCH  13  18
ENDBRANCH  12  13
ENDBRANCH  11  12
ENDBRANCH   1  11
TORSDOF 6
ENDMDL
