MODEL 1
REMARK VINA RESULT:      -8.6      0.000      0.000
REMARK  Name = 
REMARK  5 active torsions:
REMARK  status: ('A' for Active; 'I' for Inactive)
REMARK    1  A    between atoms: C_1  and  C_2
REMARK    2  A    between atoms: C_7  and  N_8
REMARK    3  A    between atoms: C_11  and  N_12
REMARK    4  A    between atoms: N_12  and  C_13
REMARK    5  A    between atoms: C_18  and  C_19
REMARK                            x       y       z     vdW  Elec       q    Type
REMARK                         _______ _______ _______ _____ _____    ______ ____
ROOT
ATOM      1  N   UNL     1       2.763   7.519  20.207  0.00  0.00    +0.000 N 
ATOM      2  C   UNL     1       2.821   6.193  19.719  0.00  0.00    +0.000 A 
ATOM      3  C   UNL     1       4.067   5.680  19.401  0.00  0.00    +0.000 A 
ATOM      4  C   UNL     1       4.196   4.369  18.923  0.00  0.00    +0.000 A 
ATOM      5  C   UNL     1       3.053   3.536  18.939  0.00  0.00    +0.000 A 
ATOM      6  C   UNL     1       3.053   2.141  18.677  0.00  0.00    +0.000 A 
ATOM      7  C   UNL     1       1.868   1.405  18.684  0.00  0.00    +0.000 A 
ATOM      8  C   UNL     1       0.661   2.049  18.919  0.00  0.00    +0.000 A 
ATOM      9  C   UNL     1       0.655   3.415  19.195  0.00  0.00    +0.000 A 
ATOM     10  C   UNL     1       1.821   4.163  19.241  0.00  0.00    +0.000 A 
ATOM     11  N   UNL     1       1.710   5.455  19.584  0.00  0.00    +0.000 NA
ATOM     12  H   UNL     1       3.311   7.589  21.054  0.00  0.00    +0.000 HD
ENDROOT
BRANCH   1  19
ATOM     13  C   UNL     1       2.181   9.097  17.758  0.00  0.00    +0.000 C 
ATOM     14  C   UNL     1       1.319   9.105  18.989  0.00  0.00    +0.000 A 
ATOM     15  C   UNL     1       0.171   9.920  18.990  0.00  0.00    +0.000 A 
ATOM     16  C   UNL     1      -0.649  10.013  20.115  0.00  0.00    +0.000 A 
ATOM     17  C   UNL     1      -0.325   9.304  21.264  0.00  0.00    +0.000 A 
ATOM     18  C   UNL     1       0.820   8.506  21.283  0.00  0.00    +0.000 A 
ATOM     19  C   UNL     1       1.655   8.390  20.158  0.00  0.00    +0.000 A 
ENDBRANCH   1  19
BRANCH   4  20
ATOM     20  N   UNL     1       5.480   3.928  18.481  0.00  0.00    +0.000 N 
ATOM     21  H   UNL     1       5.689   2.966  18.729  0.00  0.00    +0.000 HD
BRANCH  20  22
ATOM     22  C   UNL     1       6.019   4.218  17.193  0.00  0.00    +0.000 A 
ATOM     23  C   UNL     1       5.562   3.536  16.049  0.00  0.00    +0.000 A 
ATOM     24  C   UNL     1       5.997   3.892  14.774  0.00  0.00    +0.000 A 
ATOM     25  C   UNL     1       6.929   4.910  14.625  0.00  0.00    +0.000 A 
ATOM     26  C   UNL     1       7.466   5.531  15.754  0.00  0.00    +0.000 A 
ATOM     27  C   UNL     1       7.039   5.175  17.046  0.00  0.00    +0.000 A 
ATOM     28  C   UNL     1       7.650   5.856  18.237  0.00  0.00    +0.000 C 
ENDBRANCH  20  22
ENDBRANCH   4  20
TORSDOF 3
ENDMDL
MODEL 2
REMARK VINA RESULT:      -8.2      0.599      1.403
REMARK  Name = 
REMARK  5 active torsions:
REMARK  status: ('A' for Active; 'I' for Inactive)
REMARK    1  A    between atoms: C_1  and  C_2
REMARK    2  A    between atoms: C_7  and  N_8
REMARK    3  A    between atoms: C_11  and  N_12
REMARK    4  A    between atoms: N_12  and  C_13
REMARK    5  A    between atoms: C_18  and  C_19
REMARK                            x       y       z     vdW  Elec       q    Type
REMARK                         _______ _______ _______ _____ _____    ______ ____
ROOT
ATOM      1  N   UNL     1       2.677   7.838  19.488  0.00  0.00    +0.000 N 
ATOM      2  C   UNL     1       2.797   6.465  19.174  0.00  0.00    +0.000 A 
ATOM      3  C   UNL     1       4.061   5.981  18.885  0.00  0.00    +0.000 A 
ATOM      4  C   UNL     1       4.251   4.627  18.576  0.00  0.00    +0.000 A 
ATOM      5  C   UNL     1       3.157   3.745  18.736  0.00  0.00    +0.000 A 
ATOM      6  C   UNL     1       3.228   2.330  18.655  0.00  0.00    +0.000 A 
ATOM      7  C   UNL     1       2.086   1.540  18.795  0.00  0.00    +0.000 A 
ATOM      8  C   UNL     1       0.852   2.145  18.985  0.00  0.00    +0.000 A 
ATOM      9  C   UNL     1       0.776   3.534  19.083  0.00  0.00    +0.000 A 
ATOM     10  C   UNL     1       1.900   4.341  18.994  0.00  0.00    +0.000 A 
ATOM     11  N   UNL     1       1.725   5.659  19.171  0.00  0.00    +0.000 NA
ATOM     12  H   UNL     1       3.242   8.048  20.301  0.00  0.00    +0.000 HD
ENDROOT
BRANCH   1  19
ATOM     13  C   UNL     1       1.127   8.649  21.890  0.00  0.00    +0.000 C 
ATOM     14  C   UNL     1       0.801   9.087  20.491  0.00  0.00    +0.000 A 
ATOM     15  C   UNL     1      -0.315   9.924  20.301  0.00  0.00    +0.000 A 
ATOM     16  C   UNL     1      -0.705  10.332  19.024  0.00  0.00    +0.000 A 
ATOM     17  C   UNL     1       0.007   9.896  17.915  0.00  0.00    +0.000 A 
ATOM     18  C   UNL     1       1.106   9.053  18.087  0.00  0.00    +0.000 A 
ATOM     19  C   UNL     1       1.521   8.637  19.364  0.00  0.00    +0.000 A 
ENDBRANCH   1  19
BRANCH   4  20
ATOM     20  N   UNL     1       5.545   4.199  18.153  0.00  0.00    +0.000 N 
ATOM     21  H   UNL     1       5.800   3.276  18.487  0.00  0.00    +0.000 HD
BRANCH  20  22
ATOM     22  C   UNL     1       6.052   4.386  16.833  0.00  0.00    +0.000 A 
ATOM     23  C   UNL     1       5.662   3.532  15.783  0.00  0.00    +0.000 A 
ATOM     24  C   UNL     1       6.058   3.776  14.469  0.00  0.00    +0.000 A 
ATOM     25  C   UNL     1       6.886   4.854  14.189  0.00  0.00    +0.000 A 
ATOM     26  C   UNL     1       7.361   5.653  15.230  0.00  0.00    +0.000 A 
ATOM     27  C   UNL     1       6.973   5.413  16.561  0.00  0.00    +0.000 A 
ATOM     28  C   UNL     1       7.516   6.286  17.656  0.00  0.00    +0.000 C 
ENDBRANCH  20  22
ENDBRANCH   4  20
TORSDOF 3
ENDMDL
MODEL 3
REMARK VINA RESULT:      -8.2      1.393      6.847
REMARK  Name = 
REMARK  5 active torsions:
REMARK  status: ('A' for Active; 'I' for Inactive)
REMARK    1  A    between atoms: C_1  and  C_2
REMARK    2  A    between atoms: C_7  and  N_8
REMARK    3  A    between atoms: C_11  and  N_12
REMARK    4  A    between atoms: N_12  and  C_13
REMARK    5  A    between atoms: C_18  and  C_19
REMARK                            x       y       z     vdW  Elec       q    Type
REMARK                         _______ _______ _______ _____ _____    ______ ____
ROOT
ATOM      1  N   UNL     1       4.428   6.539  16.532  0.00  0.00    +0.000 N 
ATOM      2  C   UNL     1       3.708   6.073  17.656  0.00  0.00    +0.000 A 
ATOM      3  C   UNL     1       3.171   7.020  18.512  0.00  0.00    +0.000 A 
ATOM      4  C   UNL     1       2.437   6.626  19.639  0.00  0.00    +0.000 A 
ATOM      5  C   UNL     1       2.116   5.256  19.782  0.00  0.00    +0.000 A 
ATOM      6  C   UNL     1       1.225   4.721  20.749  0.00  0.00    +0.000 A 
ATOM      7  C   UNL     1       0.993   3.348  20.835  0.00  0.00    +0.000 A 
ATOM      8  C   UNL     1       1.667   2.483  19.984  0.00  0.00    +0.000 A 
ATOM      9  C   UNL     1       2.529   3.002  19.020  0.00  0.00    +0.000 A 
ATOM     10  C   UNL     1       2.744   4.364  18.881  0.00  0.00    +0.000 A 
ATOM     11  N   UNL     1       3.540   4.762  17.877  0.00  0.00    +0.000 NA
ATOM     12  H   UNL     1       3.822   7.112  15.959  0.00  0.00    +0.000 HD
ENDROOT
BRANCH   1  19
ATOM     13  C   UNL     1       7.285   6.691  17.332  0.00  0.00    +0.000 C 
ATOM     14  C   UNL     1       6.771   5.843  16.204  0.00  0.00    +0.000 A 
ATOM     15  C   UNL     1       7.700   5.081  15.469  0.00  0.00    +0.000 A 
ATOM     16  C   UNL     1       7.301   4.307  14.379  0.00  0.00    +0.000 A 
ATOM     17  C   UNL     1       5.967   4.295  13.996  0.00  0.00    +0.000 A 
ATOM     18  C   UNL     1       5.037   5.058  14.703  0.00  0.00    +0.000 A 
ATOM     19  C   UNL     1       5.416   5.838  15.810  0.00  0.00    +0.000 A 
ENDBRANCH   1  19
BRANCH   4  20
ATOM     20  N   UNL     1       2.020   7.628  20.565  0.00  0.00    +0.000 N 
ATOM     21  H   UNL     1       2.749   7.922  21.207  0.00  0.00    +0.000 HD
BRANCH  20  22
ATOM     22  C   UNL     1       1.214   8.751  20.211  0.00  0.00    +0.000 A 
ATOM     23  C   UNL     1       1.106   9.167  18.871  0.00  0.00    +0.000 A 
ATOM     24  C   UNL     1       0.231  10.187  18.499  0.00  0.00    +0.000 A 
ATOM     25  C   UNL     1      -0.517  10.838  19.471  0.00  0.00    +0.000 A 
ATOM     26  C   UNL     1      -0.349  10.505  20.815  0.00  0.00    +0.000 A 
ATOM     27  C   UNL     1       0.534   9.482  21.202  0.00  0.00    +0.000 A 
ATOM     28  C   UNL     1       0.699   9.162  22.660  0.00  0.00    +0.000 C 
ENDBRANCH  20  22
ENDBRANCH   4  20
TORSDOF 3
ENDMDL
MODEL 4
REMARK VINA RESULT:      -8.2      1.140      1.695
REMARK  Name = 
REMARK  5 active torsions:
REMARK  status: ('A' for Active; 'I' for Inactive)
REMARK    1  A    between atoms: C_1  and  C_2
REMARK    2  A    between atoms: C_7  and  N_8
REMARK    3  A    between atoms: C_11  and  N_12
REMARK    4  A    between atoms: N_12  and  C_13
REMARK    5  A    between atoms: C_18  and  C_19
REMARK                            x       y       z     vdW  Elec       q    Type
REMARK                         _______ _______ _______ _____ _____    ______ ____
ROOT
ATOM      1  N   UNL     1       2.700   7.983  19.146  0.00  0.00    +0.000 N 
ATOM      2  C   UNL     1       2.827   6.592  19.367  0.00  0.00    +0.000 A 
ATOM      3  C   UNL     1       3.974   5.971  18.904  0.00  0.00    +0.000 A 
ATOM      4  C   UNL     1       4.168   4.597  19.100  0.00  0.00    +0.000 A 
ATOM      5  C   UNL     1       3.253   3.904  19.927  0.00  0.00    +0.000 A 
ATOM      6  C   UNL     1       3.410   2.569  20.382  0.00  0.00    +0.000 A 
ATOM      7  C   UNL     1       2.437   1.955  21.171  0.00  0.00    +0.000 A 
ATOM      8  C   UNL     1       1.278   2.647  21.492  0.00  0.00    +0.000 A 
ATOM      9  C   UNL     1       1.123   3.964  21.063  0.00  0.00    +0.000 A 
ATOM     10  C   UNL     1       2.094   4.615  20.318  0.00  0.00    +0.000 A 
ATOM     11  N   UNL     1       1.877   5.904  20.016  0.00  0.00    +0.000 NA
ATOM     12  H   UNL     1       3.469   8.466  19.590  0.00  0.00    +0.000 HD
ENDROOT
BRANCH   1  19
ATOM     13  C   UNL     1       1.322   8.811  21.644  0.00  0.00    +0.000 C 
ATOM     14  C   UNL     1       0.858   9.183  20.265  0.00  0.00    +0.000 A 
ATOM     15  C   UNL     1      -0.308   9.963  20.144  0.00  0.00    +0.000 A 
ATOM     16  C   UNL     1      -0.824  10.306  18.894  0.00  0.00    +0.000 A 
ATOM     17  C   UNL     1      -0.187   9.862  17.742  0.00  0.00    +0.000 A 
ATOM     18  C   UNL     1       0.960   9.075  17.846  0.00  0.00    +0.000 A 
ATOM     19  C   UNL     1       1.501   8.725  19.095  0.00  0.00    +0.000 A 
ENDBRANCH   1  19
BRANCH   4  20
ATOM     20  N   UNL     1       5.297   3.974  18.489  0.00  0.00    +0.000 N 
ATOM     21  H   UNL     1       5.339   2.970  18.634  0.00  0.00    +0.000 HD
BRANCH  20  22
ATOM     22  C   UNL     1       5.765   4.286  17.178  0.00  0.00    +0.000 A 
ATOM     23  C   UNL     1       5.095   3.802  16.039  0.00  0.00    +0.000 A 
ATOM     24  C   UNL     1       5.473   4.197  14.756  0.00  0.00    +0.000 A 
ATOM     25  C   UNL     1       6.556   5.050  14.591  0.00  0.00    +0.000 A 
ATOM     26  C   UNL     1       7.292   5.461  15.703  0.00  0.00    +0.000 A 
ATOM     27  C   UNL     1       6.923   5.064  17.001  0.00  0.00    +0.000 A 
ATOM     28  C   UNL     1       7.748   5.516  18.172  0.00  0.00    +0.000 C 
ENDBRANCH  20  22
ENDBRANCH   4  20
TORSDOF 3
ENDMDL
MODEL 5
REMARK VINA RESULT:      -8.0      2.922      8.047
REMARK  Name = 
REMARK  5 active torsions:
REMARK  status: ('A' for Active; 'I' for Inactive)
REMARK    1  A    between atoms: C_1  and  C_2
REMARK    2  A    between atoms: C_7  and  N_8
REMARK    3  A    between atoms: C_11  and  N_12
REMARK    4  A    between atoms: N_12  and  C_13
REMARK    5  A    between atoms: C_18  and  C_19
REMARK                            x       y       z     vdW  Elec       q    Type
REMARK                         _______ _______ _______ _____ _____    ______ ____
ROOT
ATOM      1  N   UNL     1       2.612   7.450  17.492  0.00  0.00    +0.000 N 
ATOM      2  C   UNL     1       2.024   8.357  18.404  0.00  0.00    +0.000 A 
ATOM      3  C   UNL     1       1.563   9.562  17.902  0.00  0.00    +0.000 A 
ATOM      4  C   UNL     1       0.960  10.502  18.750  0.00  0.00    +0.000 A 
ATOM      5  C   UNL     1       0.680  10.116  20.082  0.00  0.00    +0.000 A 
ATOM      6  C   UNL     1      -0.093  10.867  21.006  0.00  0.00    +0.000 A 
ATOM      7  C   UNL     1      -0.290  10.422  22.313  0.00  0.00    +0.000 A 
ATOM      8  C   UNL     1       0.305   9.241  22.733  0.00  0.00    +0.000 A 
ATOM      9  C   UNL     1       1.052   8.489  21.827  0.00  0.00    +0.000 A 
ATOM     10  C   UNL     1       1.226   8.883  20.510  0.00  0.00    +0.000 A 
ATOM     11  N   UNL     1       1.903   8.052  19.704  0.00  0.00    +0.000 NA
ATOM     12  H   UNL     1       1.939   7.209  16.777  0.00  0.00    +0.000 HD
ENDROOT
BRANCH   1  19
ATOM     13  C   UNL     1       1.687   4.654  17.884  0.00  0.00    +0.000 C 
ATOM     14  C   UNL     1       3.128   5.077  17.925  0.00  0.00    +0.000 A 
ATOM     15  C   UNL     1       4.102   4.092  18.178  0.00  0.00    +0.000 A 
ATOM     16  C   UNL     1       5.454   4.420  18.277  0.00  0.00    +0.000 A 
ATOM     17  C   UNL     1       5.853   5.743  18.140  0.00  0.00    +0.000 A 
ATOM     18  C   UNL     1       4.897   6.733  17.907  0.00  0.00    +0.000 A 
ATOM     19  C   UNL     1       3.531   6.423  17.794  0.00  0.00    +0.000 A 
ENDBRANCH   1  19
BRANCH   4  20
ATOM     20  N   UNL     1       0.624  11.783  18.219  0.00  0.00    +0.000 N 
ATOM     21  H   UNL     1      -0.367  11.997  18.265  0.00  0.00    +0.000 HD
BRANCH  20  22
ATOM     22  C   UNL     1       1.381  12.967  18.462  0.00  0.00    +0.000 A 
ATOM     23  C   UNL     1       2.766  13.002  18.210  0.00  0.00    +0.000 A 
ATOM     24  C   UNL     1       3.492  14.186  18.332  0.00  0.00    +0.000 A 
ATOM     25  C   UNL     1       2.852  15.345  18.749  0.00  0.00    +0.000 A 
ATOM     26  C   UNL     1       1.501  15.306  19.097  0.00  0.00    +0.000 A 
ATOM     27  C   UNL     1       0.760  14.116  18.984  0.00  0.00    +0.000 A 
ATOM     28  C   UNL     1      -0.689  14.109  19.381  0.00  0.00    +0.000 C 
ENDBRANCH  20  22
ENDBRANCH   4  20
TORSDOF 3
ENDMDL
MODEL 6
REMARK VINA RESULT:      -7.9      2.521      8.314
REMARK  Name = 
REMARK  5 active torsions:
REMARK  status: ('A' for Active; 'I' for Inactive)
REMARK    1  A    between atoms: C_1  and  C_2
REMARK    2  A    between atoms: C_7  and  N_8
REMARK    3  A    between atoms: C_11  and  N_12
REMARK    4  A    between atoms: N_12  and  C_13
REMARK    5  A    between atoms: C_18  and  C_19
REMARK                            x       y       z     vdW  Elec       q    Type
REMARK                         _______ _______ _______ _____ _____    ______ ____
ROOT
ATOM      1  N   UNL     1       2.445   7.301  17.563  0.00  0.00    +0.000 N 
ATOM      2  C   UNL     1       1.807   8.186  18.463  0.00  0.00    +0.000 A 
ATOM      3  C   UNL     1       1.017   9.187  17.925  0.00  0.00    +0.000 A 
ATOM      4  C   UNL     1       0.348  10.091  18.762  0.00  0.00    +0.000 A 
ATOM      5  C   UNL     1       0.362   9.848  20.155  0.00  0.00    +0.000 A 
ATOM      6  C   UNL     1      -0.417  10.546  21.115  0.00  0.00    +0.000 A 
ATOM      7  C   UNL     1      -0.312  10.259  22.476  0.00  0.00    +0.000 A 
ATOM      8  C   UNL     1       0.591   9.298  22.908  0.00  0.00    +0.000 A 
ATOM      9  C   UNL     1       1.347   8.596  21.970  0.00  0.00    +0.000 A 
ATOM     10  C   UNL     1       1.231   8.828  20.608  0.00  0.00    +0.000 A 
ATOM     11  N   UNL     1       1.953   8.049  19.788  0.00  0.00    +0.000 NA
ATOM     12  H   UNL     1       1.747   6.827  17.006  0.00  0.00    +0.000 HD
ENDROOT
BRANCH   1  19
ATOM     13  C   UNL     1       2.257   4.580  18.740  0.00  0.00    +0.000 C 
ATOM     14  C   UNL     1       3.544   5.222  18.307  0.00  0.00    +0.000 A 
ATOM     15  C   UNL     1       4.739   4.497  18.481  0.00  0.00    +0.000 A 
ATOM     16  C   UNL     1       5.976   5.048  18.145  0.00  0.00    +0.000 A 
ATOM     17  C   UNL     1       6.038   6.342  17.644  0.00  0.00    +0.000 A 
ATOM     18  C   UNL     1       4.865   7.079  17.483  0.00  0.00    +0.000 A 
ATOM     19  C   UNL     1       3.607   6.539  17.806  0.00  0.00    +0.000 A 
ENDBRANCH   1  19
BRANCH   4  20
ATOM     20  N   UNL     1      -0.345  11.187  18.165  0.00  0.00    +0.000 N 
ATOM     21  H   UNL     1       0.196  11.677  17.461  0.00  0.00    +0.000 HD
BRANCH  20  22
ATOM     22  C   UNL     1      -1.715  11.141  17.770  0.00  0.00    +0.000 A 
ATOM     23  C   UNL     1      -2.111  10.422  16.626  0.00  0.00    +0.000 A 
ATOM     24  C   UNL     1      -3.458  10.274  16.297  0.00  0.00    +0.000 A 
ATOM     25  C   UNL     1      -4.428  10.878  17.084  0.00  0.00    +0.000 A 
ATOM     26  C   UNL     1      -4.048  11.675  18.165  0.00  0.00    +0.000 A 
ATOM     27  C   UNL     1      -2.693  11.837  18.502  0.00  0.00    +0.000 A 
ATOM     28  C   UNL     1      -2.322  12.714  19.664  0.00  0.00    +0.000 C 
ENDBRANCH  20  22
ENDBRANCH   4  20
TORSDOF 3
ENDMDL
MODEL 7
REMARK VINA RESULT:      -7.7      2.939      7.993
REMARK  Name = 
REMARK  5 active torsions:
REMARK  status: ('A' for Active; 'I' for Inactive)
REMARK    1  A    between atoms: C_1  and  C_2
REMARK    2  A    between atoms: C_7  and  N_8
REMARK    3  A    between atoms: C_11  and  N_12
REMARK    4  A    between atoms: N_12  and  C_13
REMARK    5  A    between atoms: C_18  and  C_19
REMARK                            x       y       z     vdW  Elec       q    Type
REMARK                         _______ _______ _______ _____ _____    ______ ____
ROOT
ATOM      1  N   UNL     1       2.388   7.324  17.883  0.00  0.00    +0.000 N 
ATOM      2  C   UNL     1       1.831   8.324  18.714  0.00  0.00    +0.000 A 
ATOM      3  C   UNL     1       1.445   9.512  18.116  0.00  0.00    +0.000 A 
ATOM      4  C   UNL     1       0.875  10.540  18.880  0.00  0.00    +0.000 A 
ATOM      5  C   UNL     1       0.549  10.268  20.229  0.00  0.00    +0.000 A 
ATOM      6  C   UNL     1      -0.202  11.123  21.078  0.00  0.00    +0.000 A 
ATOM      7  C   UNL     1      -0.448  10.785  22.409  0.00  0.00    +0.000 A 
ATOM      8  C   UNL     1       0.076   9.609  22.926  0.00  0.00    +0.000 A 
ATOM      9  C   UNL     1       0.800   8.755  22.095  0.00  0.00    +0.000 A 
ATOM     10  C   UNL     1       1.020   9.043  20.757  0.00  0.00    +0.000 A 
ATOM     11  N   UNL     1       1.669   8.122  20.029  0.00  0.00    +0.000 NA
ATOM     12  H   UNL     1       1.718   7.066  17.172  0.00  0.00    +0.000 HD
ENDROOT
BRANCH   1  19
ATOM     13  C   UNL     1       5.118   7.081  16.736  0.00  0.00    +0.000 C 
ATOM     14  C   UNL     1       4.568   6.172  17.798  0.00  0.00    +0.000 A 
ATOM     15  C   UNL     1       5.389   5.131  18.272  0.00  0.00    +0.000 A 
ATOM     16  C   UNL     1       4.928   4.220  19.222  0.00  0.00    +0.000 A 
ATOM     17  C   UNL     1       3.630   4.327  19.704  0.00  0.00    +0.000 A 
ATOM     18  C   UNL     1       2.798   5.343  19.231  0.00  0.00    +0.000 A 
ATOM     19  C   UNL     1       3.246   6.277  18.280  0.00  0.00    +0.000 A 
ENDBRANCH   1  19
BRANCH   4  20
ATOM     20  N   UNL     1       0.617  11.794  18.250  0.00  0.00    +0.000 N 
ATOM     21  H   UNL     1      -0.366  12.046  18.228  0.00  0.00    +0.000 HD
BRANCH  20  22
ATOM     22  C   UNL     1       1.406  12.964  18.458  0.00  0.00    +0.000 A 
ATOM     23  C   UNL     1       2.796  12.946  18.236  0.00  0.00    +0.000 A 
ATOM     24  C   UNL     1       3.557  14.111  18.322  0.00  0.00    +0.000 A 
ATOM     25  C   UNL     1       2.945  15.307  18.674  0.00  0.00    +0.000 A 
ATOM     26  C   UNL     1       1.587  15.324  18.992  0.00  0.00    +0.000 A 
ATOM     27  C   UNL     1       0.811  14.154  18.915  0.00  0.00    +0.000 A 
ATOM     28  C   UNL     1      -0.645  14.209  19.279  0.00  0.00    +0.000 C 
ENDBRANCH  20  22
ENDBRANCH   4  20
TORSDOF 3
ENDMDL
MODEL 8
REMARK VINA RESULT:      -7.6      1.214      2.179
REMARK  Name = 
REMARK  5 active torsions:
REMARK  status: ('A' for Active; 'I' for Inactive)
REMARK    1  A    between atoms: C_1  and  C_2
REMARK    2  A    between atoms: C_7  and  N_8
REMARK    3  A    between atoms: C_11  and  N_12
REMARK    4  A    between atoms: N_12  and  C_13
REMARK    5  A    between atoms: C_18  and  C_19
REMARK                            x       y       z     vdW  Elec       q    Type
REMARK                         _______ _______ _______ _____ _____    ______ ____
ROOT
ATOM      1  N   UNL     1       2.583   8.231  19.324  0.00  0.00    +0.000 N 
ATOM      2  C   UNL     1       2.769   6.839  19.490  0.00  0.00    +0.000 A 
ATOM      3  C   UNL     1       3.977   6.300  19.082  0.00  0.00    +0.000 A 
ATOM      4  C   UNL     1       4.230   4.929  19.228  0.00  0.00    +0.000 A 
ATOM      5  C   UNL     1       3.298   4.152  19.955  0.00  0.00    +0.000 A 
ATOM      6  C   UNL     1       3.495   2.805  20.359  0.00  0.00    +0.000 A 
ATOM      7  C   UNL     1       2.503   2.106  21.047  0.00  0.00    +0.000 A 
ATOM      8  C   UNL     1       1.289   2.722  21.316  0.00  0.00    +0.000 A 
ATOM      9  C   UNL     1       1.095   4.049  20.938  0.00  0.00    +0.000 A 
ATOM     10  C   UNL     1       2.079   4.784  20.294  0.00  0.00    +0.000 A 
ATOM     11  N   UNL     1       1.814   6.073  20.037  0.00  0.00    +0.000 NA
ATOM     12  H   UNL     1       3.293   8.729  19.843  0.00  0.00    +0.000 HD
ENDROOT
BRANCH   1  19
ATOM     13  C   UNL     1       1.115   9.084  21.761  0.00  0.00    +0.000 C 
ATOM     14  C   UNL     1       0.665   9.384  20.360  0.00  0.00    +0.000 A 
ATOM     15  C   UNL     1      -0.534  10.103  20.187  0.00  0.00    +0.000 A 
ATOM     16  C   UNL     1      -1.037  10.377  18.915  0.00  0.00    +0.000 A 
ATOM     17  C   UNL     1      -0.356   9.921  17.793  0.00  0.00    +0.000 A 
ATOM     18  C   UNL     1       0.824   9.193  17.949  0.00  0.00    +0.000 A 
ATOM     19  C   UNL     1       1.353   8.914  19.221  0.00  0.00    +0.000 A 
ENDBRANCH   1  19
BRANCH   4  20
ATOM     20  N   UNL     1       5.430   4.394  18.671  0.00  0.00    +0.000 N 
ATOM     21  H   UNL     1       5.646   3.455  18.991  0.00  0.00    +0.000 HD
BRANCH  20  22
ATOM     22  C   UNL     1       5.800   4.529  17.300  0.00  0.00    +0.000 A 
ATOM     23  C   UNL     1       7.007   5.156  16.937  0.00  0.00    +0.000 A 
ATOM     24  C   UNL     1       7.432   5.189  15.610  0.00  0.00    +0.000 A 
ATOM     25  C   UNL     1       6.636   4.632  14.619  0.00  0.00    +0.000 A 
ATOM     26  C   UNL     1       5.391   4.094  14.948  0.00  0.00    +0.000 A 
ATOM     27  C   UNL     1       4.949   4.062  16.283  0.00  0.00    +0.000 A 
ATOM     28  C   UNL     1       3.597   3.487  16.598  0.00  0.00    +0.000 C 
ENDBRANCH  20  22
ENDBRANCH   4  20
TORSDOF 3
ENDMDL
MODEL 9
REMARK VINA RESULT:      -7.6      1.375      2.088
REMARK  Name = 
REMARK  5 active torsions:
REMARK  status: ('A' for Active; 'I' for Inactive)
REMARK    1  A    between atoms: C_1  and  C_2
REMARK    2  A    between atoms: C_7  and  N_8
REMARK    3  A    between atoms: C_11  and  N_12
REMARK    4  A    between atoms: N_12  and  C_13
REMARK    5  A    between atoms: C_18  and  C_19
REMARK                            x       y       z     vdW  Elec       q    Type
REMARK                         _______ _______ _______ _____ _____    ______ ____
ROOT
ATOM      1  N   UNL     1       2.139   8.511  20.136  0.00  0.00    +0.000 N 
ATOM      2  C   UNL     1       2.176   7.143  19.782  0.00  0.00    +0.000 A 
ATOM      3  C   UNL     1       2.948   6.783  18.691  0.00  0.00    +0.000 A 
ATOM      4  C   UNL     1       3.037   5.442  18.293  0.00  0.00    +0.000 A 
ATOM      5  C   UNL     1       2.463   4.457  19.131  0.00  0.00    +0.000 A 
ATOM      6  C   UNL     1       2.629   3.056  18.979  0.00  0.00    +0.000 A 
ATOM      7  C   UNL     1       1.997   2.156  19.837  0.00  0.00    +0.000 A 
ATOM      8  C   UNL     1       1.164   2.633  20.839  0.00  0.00    +0.000 A 
ATOM      9  C   UNL     1       1.009   4.009  21.006  0.00  0.00    +0.000 A 
ATOM     10  C   UNL     1       1.661   4.927  20.197  0.00  0.00    +0.000 A 
ATOM     11  N   UNL     1       1.498   6.226  20.487  0.00  0.00    +0.000 NA
ATOM     12  H   UNL     1       3.076   8.828  20.348  0.00  0.00    +0.000 HD
ENDROOT
BRANCH   1  19
ATOM     13  C   UNL     1       0.098  10.155  18.737  0.00  0.00    +0.000 C 
ATOM     14  C   UNL     1       0.107   9.907  20.218  0.00  0.00    +0.000 A 
ATOM     15  C   UNL     1      -0.905  10.500  20.997  0.00  0.00    +0.000 A 
ATOM     16  C   UNL     1      -0.932  10.352  22.384  0.00  0.00    +0.000 A 
ATOM     17  C   UNL     1       0.064   9.620  23.017  0.00  0.00    +0.000 A 
ATOM     18  C   UNL     1       1.084   9.041  22.261  0.00  0.00    +0.000 A 
ATOM     19  C   UNL     1       1.125   9.170  20.861  0.00  0.00    +0.000 A 
ENDBRANCH   1  19
BRANCH   4  20
ATOM     20  N   UNL     1       3.733   5.134  17.085  0.00  0.00    +0.000 N 
ATOM     21  H   UNL     1       3.396   5.648  16.278  0.00  0.00    +0.000 HD
BRANCH  20  22
ATOM     22  C   UNL     1       5.148   4.982  17.000  0.00  0.00    +0.000 A 
ATOM     23  C   UNL     1       5.961   5.148  18.138  0.00  0.00    +0.000 A 
ATOM     24  C   UNL     1       7.330   4.887  18.092  0.00  0.00    +0.000 A 
ATOM     25  C   UNL     1       7.915   4.497  16.895  0.00  0.00    +0.000 A 
ATOM     26  C   UNL     1       7.142   4.423  15.735  0.00  0.00    +0.000 A 
ATOM     27  C   UNL     1       5.761   4.690  15.769  0.00  0.00    +0.000 A 
ATOM     28  C   UNL     1       4.965   4.613  14.498  0.00  0.00    +0.000 C 
ENDBRANCH  20  22
ENDBRANCH   4  20
TORSDOF 3
ENDMDL
