MODEL 1
REMARK VINA RESULT:      -7.7      0.000      0.000
REMARK  Name = 
REMARK  5 active torsions:
REMARK  status: ('A' for Active; 'I' for Inactive)
REMARK    1  A    between atoms: C_1  and  C_2
REMARK    2  A    between atoms: C_2  and  C_3
REMARK    3  A    between atoms: C_2  and  O_4
REMARK    4  A    between atoms: O_4  and  C_5
REMARK    5  A    between atoms: C_8  and  C_9
REMARK                            x       y       z     vdW  Elec       q    Type
REMARK                         _______ _______ _______ _____ _____    ______ ____
ROOT
ATOM      1  C   UNL     1       3.107   6.590  17.805  0.00  0.00    +0.000 A 
ATOM      2  C   UNL     1       2.699   5.291  18.137  0.00  0.00    +0.000 A 
ATOM      3  S   UNL     1       3.690   4.876  19.589  0.00  0.00    +0.000 S 
ATOM      4  C   UNL     1       4.967   5.883  18.968  0.00  0.00    +0.000 A 
ATOM      5  C   UNL     1       4.521   6.342  17.729  0.00  0.00    +0.000 A 
ATOM      6  N   UNL     1       5.445   5.698  16.829  0.00  0.00    +0.000 N 
ATOM      7  C   UNL     1       5.466   5.180  15.571  0.00  0.00    +0.000 A 
ATOM      8  C   UNL     1       6.612   4.386  15.471  0.00  0.00    +0.000 A 
ATOM      9  C   UNL     1       7.313   4.443  16.717  0.00  0.00    +0.000 A 
ATOM     10  C   UNL     1       6.510   5.184  17.539  0.00  0.00    +0.000 A 
ATOM     11  C   UNL     1       6.340   5.399  18.956  0.00  0.00    +0.000 C 
ATOM     12  O   UNL     1       7.102   5.117  19.871  0.00  0.00    +0.000 OA
ENDROOT
BRANCH   1  16
ATOM     13  C   UNL     1       0.777   9.610  19.996  0.00  0.00    +0.000 A 
ATOM     14  C   UNL     1       1.220   8.445  20.632  0.00  0.00    +0.000 A 
ATOM     15  C   UNL     1       2.017   7.487  19.960  0.00  0.00    +0.000 A 
ATOM     16  C   UNL     1       2.381   7.662  18.613  0.00  0.00    +0.000 A 
ATOM     17  C   UNL     1       1.905   8.829  17.988  0.00  0.00    +0.000 A 
ATOM     18  C   UNL     1       1.092   9.771  18.651  0.00  0.00    +0.000 A 
BRANCH  13  19
ATOM     19  O   UNL     1       0.063  10.493  20.767  0.00  0.00    +0.000 OA
BRANCH  19  21
ATOM     20  C   UNL     1      -1.681  11.976  20.009  0.00  0.00    +0.000 C 
ATOM     21  C   UNL     1      -0.176  11.830  20.281  0.00  0.00    +0.000 C 
ATOM     22  C   UNL     1       0.217  12.893  21.310  0.00  0.00    +0.000 C 
ENDBRANCH  19  21
ENDBRANCH  13  19
ENDBRANCH   1  16
TORSDOF 3
ENDMDL
MODEL 2
REMARK VINA RESULT:      -7.6      0.235      1.044
REMARK  Name = 
REMARK  5 active torsions:
REMARK  status: ('A' for Active; 'I' for Inactive)
REMARK    1  A    between atoms: C_1  and  C_2
REMARK    2  A    between atoms: C_2  and  C_3
REMARK    3  A    between atoms: C_2  and  O_4
REMARK    4  A    between atoms: O_4  and  C_5
REMARK    5  A    between atoms: C_8  and  C_9
REMARK                            x       y       z     vdW  Elec       q    Type
REMARK                         _______ _______ _______ _____ _____    ______ ____
ROOT
ATOM      1  C   UNL     1       3.077   6.416  17.788  0.00  0.00    +0.000 A 
ATOM      2  C   UNL     1       2.742   5.091  18.105  0.00  0.00    +0.000 A 
ATOM      3  S   UNL     1       3.724   4.729  19.576  0.00  0.00    +0.000 S 
ATOM      4  C   UNL     1       4.950   5.817  18.990  0.00  0.00    +0.000 A 
ATOM      5  C   UNL     1       4.505   6.255  17.743  0.00  0.00    +0.000 A 
ATOM      6  N   UNL     1       5.487   5.674  16.862  0.00  0.00    +0.000 N 
ATOM      7  C   UNL     1       5.567   5.166  15.601  0.00  0.00    +0.000 A 
ATOM      8  C   UNL     1       6.762   4.445  15.524  0.00  0.00    +0.000 A 
ATOM      9  C   UNL     1       7.430   4.537  16.786  0.00  0.00    +0.000 A 
ATOM     10  C   UNL     1       6.565   5.222  17.593  0.00  0.00    +0.000 A 
ATOM     11  C   UNL     1       6.351   5.418  19.006  0.00  0.00    +0.000 C 
ATOM     12  O   UNL     1       7.107   5.178  19.938  0.00  0.00    +0.000 OA
ENDROOT
BRANCH   1  16
ATOM     13  C   UNL     1       0.981   9.417  20.226  0.00  0.00    +0.000 A 
ATOM     14  C   UNL     1       1.252   9.653  18.873  0.00  0.00    +0.000 A 
ATOM     15  C   UNL     1       1.877   8.679  18.059  0.00  0.00    +0.000 A 
ATOM     16  C   UNL     1       2.268   7.435  18.585  0.00  0.00    +0.000 A 
ATOM     17  C   UNL     1       2.006   7.229  19.952  0.00  0.00    +0.000 A 
ATOM     18  C   UNL     1       1.405   8.209  20.768  0.00  0.00    +0.000 A 
BRANCH  13  19
ATOM     19  O   UNL     1       0.316  10.412  20.899  0.00  0.00    +0.000 OA
BRANCH  19  21
ATOM     20  C   UNL     1      -1.493  11.836  20.185  0.00  0.00    +0.000 C 
ATOM     21  C   UNL     1       0.032  11.658  20.229  0.00  0.00    +0.000 C 
ATOM     22  C   UNL     1       0.620  12.858  20.974  0.00  0.00    +0.000 C 
ENDBRANCH  19  21
ENDBRANCH  13  19
ENDBRANCH   1  16
TORSDOF 3
ENDMDL
MODEL 3
REMARK VINA RESULT:      -7.6      1.228      1.657
REMARK  Name = 
REMARK  5 active torsions:
REMARK  status: ('A' for Active; 'I' for Inactive)
REMARK    1  A    between atoms: C_1  and  C_2
REMARK    2  A    between atoms: C_2  and  C_3
REMARK    3  A    between atoms: C_2  and  O_4
REMARK    4  A    between atoms: O_4  and  C_5
REMARK    5  A    between atoms: C_8  and  C_9
REMARK                            x       y       z     vdW  Elec       q    Type
REMARK                         _______ _______ _______ _____ _____    ______ ____
ROOT
ATOM      1  C   UNL     1       3.330   5.858  17.610  0.00  0.00    +0.000 A 
ATOM      2  C   UNL     1       3.741   4.784  18.411  0.00  0.00    +0.000 A 
ATOM      3  S   UNL     1       5.267   5.368  19.181  0.00  0.00    +0.000 S 
ATOM      4  C   UNL     1       5.581   6.325  17.760  0.00  0.00    +0.000 A 
ATOM      5  C   UNL     1       4.549   6.033  16.869  0.00  0.00    +0.000 A 
ATOM      6  N   UNL     1       5.260   5.363  15.808  0.00  0.00    +0.000 N 
ATOM      7  C   UNL     1       5.056   4.374  14.896  0.00  0.00    +0.000 A 
ATOM      8  C   UNL     1       6.311   3.998  14.409  0.00  0.00    +0.000 A 
ATOM      9  C   UNL     1       7.305   4.805  15.047  0.00  0.00    +0.000 A 
ATOM     10  C   UNL     1       6.617   5.558  15.957  0.00  0.00    +0.000 A 
ATOM     11  C   UNL     1       6.904   6.316  17.150  0.00  0.00    +0.000 C 
ATOM     12  O   UNL     1       7.985   6.709  17.569  0.00  0.00    +0.000 OA
ENDROOT
BRANCH   1  16
ATOM     13  C   UNL     1       1.292   8.937  20.000  0.00  0.00    +0.000 A 
ATOM     14  C   UNL     1       1.596   9.160  18.652  0.00  0.00    +0.000 A 
ATOM     15  C   UNL     1       2.203   8.162  17.852  0.00  0.00    +0.000 A 
ATOM     16  C   UNL     1       2.541   6.907  18.388  0.00  0.00    +0.000 A 
ATOM     17  C   UNL     1       2.245   6.714  19.750  0.00  0.00    +0.000 A 
ATOM     18  C   UNL     1       1.663   7.716  20.553  0.00  0.00    +0.000 A 
BRANCH  13  19
ATOM     19  O   UNL     1       0.649   9.956  20.657  0.00  0.00    +0.000 OA
BRANCH  19  21
ATOM     20  C   UNL     1      -1.101  11.452  19.939  0.00  0.00    +0.000 C 
ATOM     21  C   UNL     1       0.415  11.207  19.978  0.00  0.00    +0.000 C 
ATOM     22  C   UNL     1       1.059  12.386  20.710  0.00  0.00    +0.000 C 
ENDBRANCH  19  21
ENDBRANCH  13  19
ENDBRANCH   1  16
TORSDOF 3
ENDMDL
MODEL 4
REMARK VINA RESULT:      -7.5      1.860      2.344
REMARK  Name = 
REMARK  5 active torsions:
REMARK  status: ('A' for Active; 'I' for Inactive)
REMARK    1  A    between atoms: C_1  and  C_2
REMARK    2  A    between atoms: C_2  and  C_3
REMARK    3  A    between atoms: C_2  and  O_4
REMARK    4  A    between atoms: O_4  and  C_5
REMARK    5  A    between atoms: C_8  and  C_9
REMARK                            x       y       z     vdW  Elec       q    Type
REMARK                         _______ _______ _______ _____ _____    ______ ____
ROOT
ATOM      1  C   UNL     1       3.838   4.952  18.027  0.00  0.00    +0.000 A 
ATOM      2  C   UNL     1       4.735   4.078  18.657  0.00  0.00    +0.000 A 
ATOM      3  S   UNL     1       6.169   5.111  19.028  0.00  0.00    +0.000 S 
ATOM      4  C   UNL     1       5.817   6.057  17.609  0.00  0.00    +0.000 A 
ATOM      5  C   UNL     1       4.722   5.441  17.003  0.00  0.00    +0.000 A 
ATOM      6  N   UNL     1       5.300   4.962  15.773  0.00  0.00    +0.000 N 
ATOM      7  C   UNL     1       5.165   3.918  14.910  0.00  0.00    +0.000 A 
ATOM      8  C   UNL     1       6.307   3.901  14.103  0.00  0.00    +0.000 A 
ATOM      9  C   UNL     1       7.152   4.987  14.492  0.00  0.00    +0.000 A 
ATOM     10  C   UNL     1       6.533   5.547  15.574  0.00  0.00    +0.000 A 
ATOM     11  C   UNL     1       6.883   6.405  16.679  0.00  0.00    +0.000 C 
ATOM     12  O   UNL     1       7.872   7.111  16.819  0.00  0.00    +0.000 OA
ENDROOT
BRANCH   1  16
ATOM     13  C   UNL     1       1.240   7.302  20.686  0.00  0.00    +0.000 A 
ATOM     14  C   UNL     1       1.443   5.935  20.906  0.00  0.00    +0.000 A 
ATOM     15  C   UNL     1       2.317   5.173  20.093  0.00  0.00    +0.000 A 
ATOM     16  C   UNL     1       3.006   5.760  19.018  0.00  0.00    +0.000 A 
ATOM     17  C   UNL     1       2.769   7.130  18.803  0.00  0.00    +0.000 A 
ATOM     18  C   UNL     1       1.880   7.884  19.597  0.00  0.00    +0.000 A 
BRANCH  13  19
ATOM     19  O   UNL     1       0.417   7.948  21.575  0.00  0.00    +0.000 OA
BRANCH  19  21
ATOM     20  C   UNL     1      -0.331  10.028  20.612  0.00  0.00    +0.000 C 
ATOM     21  C   UNL     1       0.511   9.380  21.721  0.00  0.00    +0.000 C 
ATOM     22  C   UNL     1      -0.043   9.857  23.065  0.00  0.00    +0.000 C 
ENDBRANCH  19  21
ENDBRANCH  13  19
ENDBRANCH   1  16
TORSDOF 3
ENDMDL
MODEL 5
REMARK VINA RESULT:      -7.5      0.971      1.509
REMARK  Name = 
REMARK  5 active torsions:
REMARK  status: ('A' for Active; 'I' for Inactive)
REMARK    1  A    between atoms: C_1  and  C_2
REMARK    2  A    between atoms: C_2  and  C_3
REMARK    3  A    between atoms: C_2  and  O_4
REMARK    4  A    between atoms: O_4  and  C_5
REMARK    5  A    between atoms: C_8  and  C_9
REMARK                            x       y       z     vdW  Elec       q    Type
REMARK                         _______ _______ _______ _____ _____    ______ ____
ROOT
ATOM      1  C   UNL     1       2.972   6.536  17.860  0.00  0.00    +0.000 A 
ATOM      2  C   UNL     1       2.580   5.228  18.179  0.00  0.00    +0.000 A 
ATOM      3  S   UNL     1       3.577   4.810  19.624  0.00  0.00    +0.000 S 
ATOM      4  C   UNL     1       4.842   5.839  19.013  0.00  0.00    +0.000 A 
ATOM      5  C   UNL     1       4.389   6.305  17.778  0.00  0.00    +0.000 A 
ATOM      6  N   UNL     1       5.319   5.681  16.871  0.00  0.00    +0.000 N 
ATOM      7  C   UNL     1       5.343   5.176  15.607  0.00  0.00    +0.000 A 
ATOM      8  C   UNL     1       6.498   4.397  15.498  0.00  0.00    +0.000 A 
ATOM      9  C   UNL     1       7.200   4.449  16.743  0.00  0.00    +0.000 A 
ATOM     10  C   UNL     1       6.391   5.172  17.574  0.00  0.00    +0.000 A 
ATOM     11  C   UNL     1       6.221   5.371  18.993  0.00  0.00    +0.000 C 
ATOM     12  O   UNL     1       6.987   5.089  19.904  0.00  0.00    +0.000 OA
ENDROOT
BRANCH   1  16
ATOM     13  C   UNL     1       1.089   9.627  20.358  0.00  0.00    +0.000 A 
ATOM     14  C   UNL     1       1.327   9.851  18.997  0.00  0.00    +0.000 A 
ATOM     15  C   UNL     1       1.882   8.850  18.164  0.00  0.00    +0.000 A 
ATOM     16  C   UNL     1       2.235   7.590  18.680  0.00  0.00    +0.000 A 
ATOM     17  C   UNL     1       2.007   7.396  20.055  0.00  0.00    +0.000 A 
ATOM     18  C   UNL     1       1.475   8.401  20.888  0.00  0.00    +0.000 A 
BRANCH  13  19
ATOM     19  O   UNL     1       0.490  10.651  21.050  0.00  0.00    +0.000 OA
BRANCH  19  21
ATOM     20  C   UNL     1      -0.306   9.826  23.171  0.00  0.00    +0.000 C 
ATOM     21  C   UNL     1      -0.713  10.394  21.803  0.00  0.00    +0.000 C 
ATOM     22  C   UNL     1      -1.520  11.670  22.049  0.00  0.00    +0.000 C 
ENDBRANCH  19  21
ENDBRANCH  13  19
ENDBRANCH   1  16
TORSDOF 3
ENDMDL
MODEL 6
REMARK VINA RESULT:      -7.4      1.957      2.700
REMARK  Name = 
REMARK  5 active torsions:
REMARK  status: ('A' for Active; 'I' for Inactive)
REMARK    1  A    between atoms: C_1  and  C_2
REMARK    2  A    between atoms: C_2  and  C_3
REMARK    3  A    between atoms: C_2  and  O_4
REMARK    4  A    between atoms: O_4  and  C_5
REMARK    5  A    between atoms: C_8  and  C_9
REMARK                            x       y       z     vdW  Elec       q    Type
REMARK                         _______ _______ _______ _____ _____    ______ ____
ROOT
ATOM      1  C   UNL     1       3.735   4.772  17.599  0.00  0.00    +0.000 A 
ATOM      2  C   UNL     1       4.582   3.847  18.225  0.00  0.00    +0.000 A 
ATOM      3  S   UNL     1       5.993   4.835  18.765  0.00  0.00    +0.000 S 
ATOM      4  C   UNL     1       5.745   5.882  17.396  0.00  0.00    +0.000 A 
ATOM      5  C   UNL     1       4.690   5.322  16.675  0.00  0.00    +0.000 A 
ATOM      6  N   UNL     1       5.348   4.924  15.456  0.00  0.00    +0.000 N 
ATOM      7  C   UNL     1       5.266   3.945  14.514  0.00  0.00    +0.000 A 
ATOM      8  C   UNL     1       6.460   3.972  13.788  0.00  0.00    +0.000 A 
ATOM      9  C   UNL     1       7.284   5.020  14.308  0.00  0.00    +0.000 A 
ATOM     10  C   UNL     1       6.595   5.509  15.383  0.00  0.00    +0.000 A 
ATOM     11  C   UNL     1       6.873   6.284  16.568  0.00  0.00    +0.000 C 
ATOM     12  O   UNL     1       7.855   6.967  16.824  0.00  0.00    +0.000 OA
ENDROOT
BRANCH   1  16
ATOM     13  C   UNL     1       1.356   6.872  20.644  0.00  0.00    +0.000 A 
ATOM     14  C   UNL     1       1.990   7.579  19.616  0.00  0.00    +0.000 A 
ATOM     15  C   UNL     1       2.716   6.917  18.596  0.00  0.00    +0.000 A 
ATOM     16  C   UNL     1       2.842   5.517  18.586  0.00  0.00    +0.000 A 
ATOM     17  C   UNL     1       2.215   4.830  19.642  0.00  0.00    +0.000 A 
ATOM     18  C   UNL     1       1.512   5.491  20.671  0.00  0.00    +0.000 A 
BRANCH  13  19
ATOM     19  O   UNL     1       0.631   7.618  21.541  0.00  0.00    +0.000 OA
BRANCH  19  21
ATOM     20  C   UNL     1      -0.227   9.689  20.653  0.00  0.00    +0.000 C 
ATOM     21  C   UNL     1       0.811   9.048  21.588  0.00  0.00    +0.000 C 
ATOM     22  C   UNL     1       0.582   9.609  22.993  0.00  0.00    +0.000 C 
ENDBRANCH  19  21
ENDBRANCH  13  19
ENDBRANCH   1  16
TORSDOF 3
ENDMDL
MODEL 7
REMARK VINA RESULT:      -7.4      4.300      6.223
REMARK  Name = 
REMARK  5 active torsions:
REMARK  status: ('A' for Active; 'I' for Inactive)
REMARK    1  A    between atoms: C_1  and  C_2
REMARK    2  A    between atoms: C_2  and  C_3
REMARK    3  A    between atoms: C_2  and  O_4
REMARK    4  A    between atoms: O_4  and  C_5
REMARK    5  A    between atoms: C_8  and  C_9
REMARK                            x       y       z     vdW  Elec       q    Type
REMARK                         _______ _______ _______ _____ _____    ______ ____
ROOT
ATOM      1  C   UNL     1       5.285   5.073  17.726  0.00  0.00    +0.000 A 
ATOM      2  C   UNL     1       4.225   5.617  16.987  0.00  0.00    +0.000 A 
ATOM      3  S   UNL     1       3.231   6.487  18.218  0.00  0.00    +0.000 S 
ATOM      4  C   UNL     1       3.723   5.309  19.403  0.00  0.00    +0.000 A 
ATOM      5  C   UNL     1       4.505   4.382  18.716  0.00  0.00    +0.000 A 
ATOM      6  N   UNL     1       3.689   3.196  18.795  0.00  0.00    +0.000 N 
ATOM      7  C   UNL     1       3.404   2.090  18.055  0.00  0.00    +0.000 A 
ATOM      8  C   UNL     1       2.242   1.525  18.588  0.00  0.00    +0.000 A 
ATOM      9  C   UNL     1       1.823   2.319  19.702  0.00  0.00    +0.000 A 
ATOM     10  C   UNL     1       2.689   3.376  19.728  0.00  0.00    +0.000 A 
ATOM     11  C   UNL     1       2.736   4.705  20.287  0.00  0.00    +0.000 C 
ATOM     12  O   UNL     1       2.036   5.193  21.165  0.00  0.00    +0.000 OA
ENDROOT
BRANCH   1  16
ATOM     13  C   UNL     1       8.372   8.115  18.479  0.00  0.00    +0.000 A 
ATOM     14  C   UNL     1       8.330   6.934  19.229  0.00  0.00    +0.000 A 
ATOM     15  C   UNL     1       7.378   5.919  18.967  0.00  0.00    +0.000 A 
ATOM     16  C   UNL     1       6.421   6.067  17.947  0.00  0.00    +0.000 A 
ATOM     17  C   UNL     1       6.469   7.271  17.221  0.00  0.00    +0.000 A 
ATOM     18  C   UNL     1       7.402   8.292  17.498  0.00  0.00    +0.000 A 
BRANCH  13  19
ATOM     19  O   UNL     1       9.377   8.998  18.785  0.00  0.00    +0.000 OA
BRANCH  19  21
ATOM     20  C   UNL     1       9.356  10.848  20.331  0.00  0.00    +0.000 C 
ATOM     21  C   UNL     1       9.082  10.406  18.886  0.00  0.00    +0.000 C 
ATOM     22  C   UNL     1       9.971  11.246  17.966  0.00  0.00    +0.000 C 
ENDBRANCH  19  21
ENDBRANCH  13  19
ENDBRANCH   1  16
TORSDOF 3
ENDMDL
MODEL 8
REMARK VINA RESULT:      -7.4      1.706      2.262
REMARK  Name = 
REMARK  5 active torsions:
REMARK  status: ('A' for Active; 'I' for Inactive)
REMARK    1  A    between atoms: C_1  and  C_2
REMARK    2  A    between atoms: C_2  and  C_3
REMARK    3  A    between atoms: C_2  and  O_4
REMARK    4  A    between atoms: O_4  and  C_5
REMARK    5  A    between atoms: C_8  and  C_9
REMARK                            x       y       z     vdW  Elec       q    Type
REMARK                         _______ _______ _______ _____ _____    ______ ____
ROOT
ATOM      1  C   UNL     1       3.380   5.638  17.665  0.00  0.00    +0.000 A 
ATOM      2  C   UNL     1       3.881   4.579  18.435  0.00  0.00    +0.000 A 
ATOM      3  S   UNL     1       5.403   5.235  19.150  0.00  0.00    +0.000 S 
ATOM      4  C   UNL     1       5.608   6.224  17.732  0.00  0.00    +0.000 A 
ATOM      5  C   UNL     1       4.557   5.887  16.879  0.00  0.00    +0.000 A 
ATOM      6  N   UNL     1       5.259   5.269  15.781  0.00  0.00    +0.000 N 
ATOM      7  C   UNL     1       5.070   4.280  14.864  0.00  0.00    +0.000 A 
ATOM      8  C   UNL     1       6.323   3.978  14.323  0.00  0.00    +0.000 A 
ATOM      9  C   UNL     1       7.298   4.830  14.931  0.00  0.00    +0.000 A 
ATOM     10  C   UNL     1       6.609   5.535  15.878  0.00  0.00    +0.000 A 
ATOM     11  C   UNL     1       6.903   6.293  17.069  0.00  0.00    +0.000 C 
ATOM     12  O   UNL     1       7.977   6.739  17.450  0.00  0.00    +0.000 OA
ENDROOT
BRANCH   1  16
ATOM     13  C   UNL     1       1.268   8.542  20.206  0.00  0.00    +0.000 A 
ATOM     14  C   UNL     1       1.671   8.882  18.910  0.00  0.00    +0.000 A 
ATOM     15  C   UNL     1       2.304   7.946  18.058  0.00  0.00    +0.000 A 
ATOM     16  C   UNL     1       2.569   6.634  18.489  0.00  0.00    +0.000 A 
ATOM     17  C   UNL     1       2.174   6.322  19.803  0.00  0.00    +0.000 A 
ATOM     18  C   UNL     1       1.566   7.261  20.660  0.00  0.00    +0.000 A 
BRANCH  13  19
ATOM     19  O   UNL     1       0.610   9.514  20.917  0.00  0.00    +0.000 OA
BRANCH  19  21
ATOM     20  C   UNL     1       1.475   9.341  23.160  0.00  0.00    +0.000 C 
ATOM     21  C   UNL     1       0.218   9.258  22.281  0.00  0.00    +0.000 C 
ATOM     22  C   UNL     1      -0.780  10.297  22.796  0.00  0.00    +0.000 C 
ENDBRANCH  19  21
ENDBRANCH  13  19
ENDBRANCH   1  16
TORSDOF 3
ENDMDL
MODEL 9
REMARK VINA RESULT:      -7.4      1.481      1.892
REMARK  Name = 
REMARK  5 active torsions:
REMARK  status: ('A' for Active; 'I' for Inactive)
REMARK    1  A    between atoms: C_1  and  C_2
REMARK    2  A    between atoms: C_2  and  C_3
REMARK    3  A    between atoms: C_2  and  O_4
REMARK    4  A    between atoms: O_4  and  C_5
REMARK    5  A    between atoms: C_8  and  C_9
REMARK                            x       y       z     vdW  Elec       q    Type
REMARK                         _______ _______ _______ _____ _____    ______ ____
ROOT
ATOM      1  C   UNL     1       3.289   5.407  17.701  0.00  0.00    +0.000 A 
ATOM      2  C   UNL     1       3.203   4.034  17.970  0.00  0.00    +0.000 A 
ATOM      3  S   UNL     1       4.670   3.687  18.964  0.00  0.00    +0.000 S 
ATOM      4  C   UNL     1       5.511   4.951  18.110  0.00  0.00    +0.000 A 
ATOM      5  C   UNL     1       4.616   5.420  17.148  0.00  0.00    +0.000 A 
ATOM      6  N   UNL     1       5.267   5.022  15.925  0.00  0.00    +0.000 N 
ATOM      7  C   UNL     1       4.938   4.616  14.668  0.00  0.00    +0.000 A 
ATOM      8  C   UNL     1       6.084   4.048  14.106  0.00  0.00    +0.000 A 
ATOM      9  C   UNL     1       7.146   4.130  15.061  0.00  0.00    +0.000 A 
ATOM     10  C   UNL     1       6.569   4.650  16.186  0.00  0.00    +0.000 A 
ATOM     11  C   UNL     1       6.854   4.719  17.598  0.00  0.00    +0.000 C 
ATOM     12  O   UNL     1       7.910   4.506  18.179  0.00  0.00    +0.000 OA
ENDROOT
BRANCH   1  16
ATOM     13  C   UNL     1       1.449   7.922  20.805  0.00  0.00    +0.000 A 
ATOM     14  C   UNL     1       1.581   6.541  20.986  0.00  0.00    +0.000 A 
ATOM     15  C   UNL     1       2.218   5.722  20.022  0.00  0.00    +0.000 A 
ATOM     16  C   UNL     1       2.731   6.266  18.832  0.00  0.00    +0.000 A 
ATOM     17  C   UNL     1       2.568   7.653  18.663  0.00  0.00    +0.000 A 
ATOM     18  C   UNL     1       1.912   8.465  19.611  0.00  0.00    +0.000 A 
BRANCH  13  19
ATOM     19  O   UNL     1       0.868   8.621  21.834  0.00  0.00    +0.000 OA
BRANCH  19  21
ATOM     20  C   UNL     1      -0.777  10.009  22.921  0.00  0.00    +0.000 C 
ATOM     21  C   UNL     1      -0.401   9.272  21.626  0.00  0.00    +0.000 C 
ATOM     22  C   UNL     1      -0.336  10.309  20.502  0.00  0.00    +0.000 C 
ENDBRANCH  19  21
ENDBRANCH  13  19
ENDBRANCH   1  16
TORSDOF 3
ENDMDL
