MODEL 1
REMARK VINA RESULT:      -8.8      0.000      0.000
REMARK  Name = 
REMARK  4 active torsions:
REMARK  status: ('A' for Active; 'I' for Inactive)
REMARK    1  A    between atoms: C_2  and  C_3
REMARK    2  A    between atoms: C_4  and  C_5
REMARK    3  A    between atoms: C_5  and  N_6
REMARK    4  A    between atoms: N_17  and  C_18
REMARK                            x       y       z     vdW  Elec       q    Type
REMARK                         _______ _______ _______ _____ _____    ______ ____
ROOT
ATOM      1  O   UNL     1      -0.301   7.623  21.409  0.00  0.00    +0.000 OA
ATOM      2  C   UNL     1       0.785   8.153  21.215  0.00  0.00    +0.000 C 
ATOM      3  N   UNL     1       1.955   7.545  20.795  0.00  0.00    +0.000 N 
ATOM      4  C   UNL     1       2.030   6.198  20.401  0.00  0.00    +0.000 A 
ATOM      5  C   UNL     1       3.102   5.796  19.612  0.00  0.00    +0.000 A 
ATOM      6  C   UNL     1       3.110   4.487  19.056  0.00  0.00    +0.000 A 
ATOM      7  C   UNL     1       4.043   3.992  18.125  0.00  0.00    +0.000 A 
ATOM      8  N   UNL     1       5.108   4.823  17.685  0.00  0.00    +0.000 N 
ATOM      9  N   UNL     1       3.961   2.749  17.612  0.00  0.00    +0.000 NA
ATOM     10  C   UNL     1       2.942   1.990  18.013  0.00  0.00    +0.000 A 
ATOM     11  N   UNL     1       1.993   2.354  18.876  0.00  0.00    +0.000 NA
ATOM     12  C   UNL     1       2.080   3.599  19.372  0.00  0.00    +0.000 A 
ATOM     13  C   UNL     1       1.103   4.087  20.215  0.00  0.00    +0.000 A 
ATOM     14  N   UNL     1       1.053   5.343  20.725  0.00  0.00    +0.000 NA
ATOM     15  H   UNL     1       2.751   8.127  20.588  0.00  0.00    +0.000 HD
ATOM     16  H   UNL     1       5.765   4.953  18.449  0.00  0.00    +0.000 HD
ENDROOT
BRANCH   8  17
ATOM     17  C   UNL     1       5.736   4.736  16.419  0.00  0.00    +0.000 A 
ATOM     18  C   UNL     1       7.029   5.249  16.236  0.00  0.00    +0.000 A 
ATOM     19  C   UNL     1       7.632   5.222  14.974  0.00  0.00    +0.000 A 
ATOM     20  C   UNL     1       6.938   4.704  13.885  0.00  0.00    +0.000 A 
ATOM     21  F   UNL     1       7.536   4.695  12.684  0.00  0.00    +0.000 F 
ATOM     22  C   UNL     1       5.645   4.219  14.038  0.00  0.00    +0.000 A 
ATOM     23 CL   UNL     1       4.766   3.601  12.694  0.00  0.00    +0.000 Cl
ATOM     24  C   UNL     1       5.044   4.246  15.298  0.00  0.00    +0.000 A 
ENDBRANCH   8  17
BRANCH   2  25
ATOM     25  C   UNL     1       0.921   9.642  21.292  0.00  0.00    +0.000 C 
ATOM     26  C   UNL     1       0.768  10.373  20.173  0.00  0.00    +0.000 C 
BRANCH  26  27
ATOM     27  C   UNL     1       1.087  11.834  20.042  0.00  0.00    +0.000 C 
BRANCH  27  28
ATOM     28  N   UNL     1       1.091  12.358  18.671  0.00  0.00    +0.000 NA
ATOM     29  C   UNL     1       2.422  12.793  18.185  0.00  0.00    +0.000 C 
ATOM     30  C   UNL     1       2.951  14.068  18.861  0.00  0.00    +0.000 C 
ATOM     31  O   UNL     1       2.034  15.157  18.698  0.00  0.00    +0.000 OA
ATOM     32  C   UNL     1       0.741  14.820  19.213  0.00  0.00    +0.000 C 
ATOM     33  C   UNL     1       0.186  13.534  18.565  0.00  0.00    +0.000 C 
ENDBRANCH  27  28
ENDBRANCH  26  27
ENDBRANCH   2  25
TORSDOF 4
ENDMDL
MODEL 2
REMARK VINA RESULT:      -8.6      1.977      2.385
REMARK  Name = 
REMARK  4 active torsions:
REMARK  status: ('A' for Active; 'I' for Inactive)
REMARK    1  A    between atoms: C_2  and  C_3
REMARK    2  A    between atoms: C_4  and  C_5
REMARK    3  A    between atoms: C_5  and  N_6
REMARK    4  A    between atoms: N_17  and  C_18
REMARK                            x       y       z     vdW  Elec       q    Type
REMARK                         _______ _______ _______ _____ _____    ______ ____
ROOT
ATOM      1  O   UNL     1      -0.163   7.566  21.395  0.00  0.00    +0.000 OA
ATOM      2  C   UNL     1       0.913   8.102  21.167  0.00  0.00    +0.000 C 
ATOM      3  N   UNL     1       2.077   7.500  20.725  0.00  0.00    +0.000 N 
ATOM      4  C   UNL     1       2.153   6.149  20.343  0.00  0.00    +0.000 A 
ATOM      5  C   UNL     1       3.208   5.748  19.531  0.00  0.00    +0.000 A 
ATOM      6  C   UNL     1       3.214   4.433  18.989  0.00  0.00    +0.000 A 
ATOM      7  C   UNL     1       4.127   3.936  18.040  0.00  0.00    +0.000 A 
ATOM      8  N   UNL     1       5.173   4.772  17.564  0.00  0.00    +0.000 N 
ATOM      9  N   UNL     1       4.043   2.688  17.542  0.00  0.00    +0.000 NA
ATOM     10  C   UNL     1       3.040   1.924  17.976  0.00  0.00    +0.000 A 
ATOM     11  N   UNL     1       2.110   2.290  18.859  0.00  0.00    +0.000 NA
ATOM     12  C   UNL     1       2.199   3.540  19.340  0.00  0.00    +0.000 A 
ATOM     13  C   UNL     1       1.240   4.029  20.202  0.00  0.00    +0.000 A 
ATOM     14  N   UNL     1       1.191   5.290  20.700  0.00  0.00    +0.000 NA
ATOM     15  H   UNL     1       2.862   8.087  20.491  0.00  0.00    +0.000 HD
ATOM     16  H   UNL     1       5.848   4.915  18.310  0.00  0.00    +0.000 HD
ENDROOT
BRANCH   8  17
ATOM     17  C   UNL     1       5.770   4.676  16.284  0.00  0.00    +0.000 A 
ATOM     18  C   UNL     1       7.070   5.159  16.074  0.00  0.00    +0.000 A 
ATOM     19  C   UNL     1       7.644   5.124  14.798  0.00  0.00    +0.000 A 
ATOM     20  C   UNL     1       6.912   4.629  13.723  0.00  0.00    +0.000 A 
ATOM     21  F   UNL     1       7.483   4.612  12.508  0.00  0.00    +0.000 F 
ATOM     22  C   UNL     1       5.613   4.175  13.903  0.00  0.00    +0.000 A 
ATOM     23 CL   UNL     1       4.688   3.585  12.576  0.00  0.00    +0.000 Cl
ATOM     24  C   UNL     1       5.041   4.209  15.176  0.00  0.00    +0.000 A 
ENDBRANCH   8  17
BRANCH   2  25
ATOM     25  C   UNL     1       1.038   9.593  21.226  0.00  0.00    +0.000 C 
ATOM     26  C   UNL     1      -0.072  10.338  21.383  0.00  0.00    +0.000 C 
BRANCH  26  27
ATOM     27  C   UNL     1      -0.141  11.831  21.240  0.00  0.00    +0.000 C 
BRANCH  27  28
ATOM     28  N   UNL     1      -0.417  12.570  22.478  0.00  0.00    +0.000 NA
ATOM     29  C   UNL     1      -1.698  12.211  23.132  0.00  0.00    +0.000 C 
ATOM     30  C   UNL     1      -2.946  12.679  22.367  0.00  0.00    +0.000 C 
ATOM     31  O   UNL     1      -2.926  14.097  22.164  0.00  0.00    +0.000 OA
ATOM     32  C   UNL     1      -1.739  14.499  21.472  0.00  0.00    +0.000 C 
ATOM     33  C   UNL     1      -0.464  14.031  22.207  0.00  0.00    +0.000 C 
ENDBRANCH  27  28
ENDBRANCH  26  27
ENDBRANCH   2  25
TORSDOF 4
ENDMDL
MODEL 3
REMARK VINA RESULT:      -8.5      0.829      1.053
REMARK  Name = 
REMARK  4 active torsions:
REMARK  status: ('A' for Active; 'I' for Inactive)
REMARK    1  A    between atoms: C_2  and  C_3
REMARK    2  A    between atoms: C_4  and  C_5
REMARK    3  A    between atoms: C_5  and  N_6
REMARK    4  A    between atoms: N_17  and  C_18
REMARK                            x       y       z     vdW  Elec       q    Type
REMARK                         _______ _______ _______ _____ _____    ______ ____
ROOT
ATOM      1  O   UNL     1      -0.341   7.655  21.376  0.00  0.00    +0.000 OA
ATOM      2  C   UNL     1       0.741   8.191  21.179  0.00  0.00    +0.000 C 
ATOM      3  N   UNL     1       1.917   7.589  20.770  0.00  0.00    +0.000 N 
ATOM      4  C   UNL     1       2.004   6.238  20.390  0.00  0.00    +0.000 A 
ATOM      5  C   UNL     1       3.081   5.837  19.608  0.00  0.00    +0.000 A 
ATOM      6  C   UNL     1       3.102   4.522  19.065  0.00  0.00    +0.000 A 
ATOM      7  C   UNL     1       4.041   4.026  18.142  0.00  0.00    +0.000 A 
ATOM      8  N   UNL     1       5.101   4.861  17.697  0.00  0.00    +0.000 N 
ATOM      9  N   UNL     1       3.971   2.778  17.641  0.00  0.00    +0.000 NA
ATOM     10  C   UNL     1       2.957   2.014  18.047  0.00  0.00    +0.000 A 
ATOM     11  N   UNL     1       2.002   2.379  18.903  0.00  0.00    +0.000 NA
ATOM     12  C   UNL     1       2.078   3.629  19.387  0.00  0.00    +0.000 A 
ATOM     13  C   UNL     1       1.095   4.118  20.222  0.00  0.00    +0.000 A 
ATOM     14  N   UNL     1       1.032   5.379  20.719  0.00  0.00    +0.000 NA
ATOM     15  H   UNL     1       2.708   8.175  20.558  0.00  0.00    +0.000 HD
ATOM     16  H   UNL     1       5.755   5.004  18.461  0.00  0.00    +0.000 HD
ENDROOT
BRANCH   8  17
ATOM     17  C   UNL     1       5.734   4.766  16.433  0.00  0.00    +0.000 A 
ATOM     18  C   UNL     1       7.030   5.270  16.254  0.00  0.00    +0.000 A 
ATOM     19  C   UNL     1       7.639   5.235  14.995  0.00  0.00    +0.000 A 
ATOM     20  C   UNL     1       6.945   4.719  13.905  0.00  0.00    +0.000 A 
ATOM     21  F   UNL     1       7.549   4.702  12.706  0.00  0.00    +0.000 F 
ATOM     22  C   UNL     1       5.649   4.244  14.054  0.00  0.00    +0.000 A 
ATOM     23 CL   UNL     1       4.771   3.628  12.707  0.00  0.00    +0.000 Cl
ATOM     24  C   UNL     1       5.043   4.278  15.311  0.00  0.00    +0.000 A 
ENDBRANCH   8  17
BRANCH   2  25
ATOM     25  C   UNL     1       0.864   9.682  21.242  0.00  0.00    +0.000 C 
ATOM     26  C   UNL     1       0.866  10.388  20.097  0.00  0.00    +0.000 C 
BRANCH  26  27
ATOM     27  C   UNL     1       1.200  11.847  19.979  0.00  0.00    +0.000 C 
BRANCH  27  28
ATOM     28  N   UNL     1       0.538  12.559  18.878  0.00  0.00    +0.000 NA
ATOM     29  C   UNL     1       0.915  13.987  18.759  0.00  0.00    +0.000 C 
ATOM     30  C   UNL     1       0.375  14.876  19.891  0.00  0.00    +0.000 C 
ATOM     31  O   UNL     1      -1.052  14.792  19.976  0.00  0.00    +0.000 OA
ATOM     32  C   UNL     1      -1.477  13.436  20.161  0.00  0.00    +0.000 C 
ATOM     33  C   UNL     1      -0.938  12.513  19.048  0.00  0.00    +0.000 C 
ENDBRANCH  27  28
ENDBRANCH  26  27
ENDBRANCH   2  25
TORSDOF 4
ENDMDL
MODEL 4
REMARK VINA RESULT:      -8.5      0.854      1.182
REMARK  Name = 
REMARK  4 active torsions:
REMARK  status: ('A' for Active; 'I' for Inactive)
REMARK    1  A    between atoms: C_2  and  C_3
REMARK    2  A    between atoms: C_4  and  C_5
REMARK    3  A    between atoms: C_5  and  N_6
REMARK    4  A    between atoms: N_17  and  C_18
REMARK                            x       y       z     vdW  Elec       q    Type
REMARK                         _______ _______ _______ _____ _____    ______ ____
ROOT
ATOM      1  O   UNL     1      -0.254   7.704  21.383  0.00  0.00    +0.000 OA
ATOM      2  C   UNL     1       0.819   8.246  21.154  0.00  0.00    +0.000 C 
ATOM      3  N   UNL     1       1.992   7.646  20.733  0.00  0.00    +0.000 N 
ATOM      4  C   UNL     1       2.084   6.289  20.379  0.00  0.00    +0.000 A 
ATOM      5  C   UNL     1       3.149   5.881  19.584  0.00  0.00    +0.000 A 
ATOM      6  C   UNL     1       3.172   4.556  19.068  0.00  0.00    +0.000 A 
ATOM      7  C   UNL     1       4.097   4.050  18.136  0.00  0.00    +0.000 A 
ATOM      8  N   UNL     1       5.140   4.885  17.653  0.00  0.00    +0.000 N 
ATOM      9  N   UNL     1       4.029   2.791  17.662  0.00  0.00    +0.000 NA
ATOM     10  C   UNL     1       3.029   2.026  18.103  0.00  0.00    +0.000 A 
ATOM     11  N   UNL     1       2.089   2.401  18.971  0.00  0.00    +0.000 NA
ATOM     12  C   UNL     1       2.162   3.661  19.428  0.00  0.00    +0.000 A 
ATOM     13  C   UNL     1       1.191   4.158  20.272  0.00  0.00    +0.000 A 
ATOM     14  N   UNL     1       1.127   5.428  20.744  0.00  0.00    +0.000 NA
ATOM     15  H   UNL     1       2.773   8.235  20.494  0.00  0.00    +0.000 HD
ATOM     16  H   UNL     1       5.807   5.049  18.400  0.00  0.00    +0.000 HD
ENDROOT
BRANCH   8  17
ATOM     17  C   UNL     1       5.749   4.770  16.379  0.00  0.00    +0.000 A 
ATOM     18  C   UNL     1       7.037   5.279  16.165  0.00  0.00    +0.000 A 
ATOM     19  C   UNL     1       7.622   5.224  14.894  0.00  0.00    +0.000 A 
ATOM     20  C   UNL     1       6.910   4.682  13.829  0.00  0.00    +0.000 A 
ATOM     21  F   UNL     1       7.490   4.646  12.618  0.00  0.00    +0.000 F 
ATOM     22  C   UNL     1       5.621   4.201  14.012  0.00  0.00    +0.000 A 
ATOM     23 CL   UNL     1       4.721   3.553  12.695  0.00  0.00    +0.000 Cl
ATOM     24  C   UNL     1       5.039   4.255  15.280  0.00  0.00    +0.000 A 
ENDBRANCH   8  17
BRANCH   2  25
ATOM     25  C   UNL     1       0.929   9.739  21.184  0.00  0.00    +0.000 C 
ATOM     26  C   UNL     1      -0.103  10.481  20.743  0.00  0.00    +0.000 C 
BRANCH  26  27
ATOM     27  C   UNL     1      -0.064  11.963  20.503  0.00  0.00    +0.000 C 
BRANCH  27  28
ATOM     28  N   UNL     1       1.145  12.647  20.978  0.00  0.00    +0.000 NA
ATOM     29  C   UNL     1       0.890  13.933  21.668  0.00  0.00    +0.000 C 
ATOM     30  C   UNL     1       0.406  15.059  20.740  0.00  0.00    +0.000 C 
ATOM     31  O   UNL     1       1.342  15.293  19.682  0.00  0.00    +0.000 OA
ATOM     32  C   UNL     1       1.580  14.097  18.931  0.00  0.00    +0.000 C 
ATOM     33  C   UNL     1       2.053  12.941  19.838  0.00  0.00    +0.000 C 
ENDBRANCH  27  28
ENDBRANCH  26  27
ENDBRANCH   2  25
TORSDOF 4
ENDMDL
MODEL 5
REMARK VINA RESULT:      -8.5      1.709      2.051
REMARK  Name = 
REMARK  4 active torsions:
REMARK  status: ('A' for Active; 'I' for Inactive)
REMARK    1  A    between atoms: C_2  and  C_3
REMARK    2  A    between atoms: C_4  and  C_5
REMARK    3  A    between atoms: C_5  and  N_6
REMARK    4  A    between atoms: N_17  and  C_18
REMARK                            x       y       z     vdW  Elec       q    Type
REMARK                         _______ _______ _______ _____ _____    ______ ____
ROOT
ATOM      1  O   UNL     1      -0.211   7.770  21.372  0.00  0.00    +0.000 OA
ATOM      2  C   UNL     1       0.893   8.263  21.178  0.00  0.00    +0.000 C 
ATOM      3  N   UNL     1       2.040   7.618  20.754  0.00  0.00    +0.000 N 
ATOM      4  C   UNL     1       2.068   6.270  20.354  0.00  0.00    +0.000 A 
ATOM      5  C   UNL     1       3.124   5.835  19.561  0.00  0.00    +0.000 A 
ATOM      6  C   UNL     1       3.087   4.528  19.000  0.00  0.00    +0.000 A 
ATOM      7  C   UNL     1       4.000   4.006  18.066  0.00  0.00    +0.000 A 
ATOM      8  N   UNL     1       5.093   4.802  17.627  0.00  0.00    +0.000 N 
ATOM      9  N   UNL     1       3.875   2.769  17.547  0.00  0.00    +0.000 NA
ATOM     10  C   UNL     1       2.831   2.044  17.946  0.00  0.00    +0.000 A 
ATOM     11  N   UNL     1       1.896   2.437  18.813  0.00  0.00    +0.000 NA
ATOM     12  C   UNL     1       2.027   3.675  19.314  0.00  0.00    +0.000 A 
ATOM     13  C   UNL     1       1.069   4.194  20.160  0.00  0.00    +0.000 A 
ATOM     14  N   UNL     1       1.062   5.448  20.675  0.00  0.00    +0.000 NA
ATOM     15  H   UNL     1       2.855   8.173  20.547  0.00  0.00    +0.000 HD
ATOM     16  H   UNL     1       5.755   4.905  18.390  0.00  0.00    +0.000 HD
ENDROOT
BRANCH   8  17
ATOM     17  C   UNL     1       5.716   4.699  16.360  0.00  0.00    +0.000 A 
ATOM     18  C   UNL     1       7.019   5.182  16.173  0.00  0.00    +0.000 A 
ATOM     19  C   UNL     1       7.619   5.138  14.910  0.00  0.00    +0.000 A 
ATOM     20  C   UNL     1       6.910   4.635  13.823  0.00  0.00    +0.000 A 
ATOM     21  F   UNL     1       7.506   4.611  12.620  0.00  0.00    +0.000 F 
ATOM     22  C   UNL     1       5.607   4.181  13.980  0.00  0.00    +0.000 A 
ATOM     23 CL   UNL     1       4.711   3.581  12.638  0.00  0.00    +0.000 Cl
ATOM     24  C   UNL     1       5.010   4.223  15.241  0.00  0.00    +0.000 A 
ENDBRANCH   8  17
BRANCH   2  25
ATOM     25  C   UNL     1       1.079   9.746  21.261  0.00  0.00    +0.000 C 
ATOM     26  C   UNL     1       0.135  10.556  20.748  0.00  0.00    +0.000 C 
BRANCH  26  27
ATOM     27  C   UNL     1       0.275  12.038  20.557  0.00  0.00    +0.000 C 
BRANCH  27  28
ATOM     28  N   UNL     1      -0.969  12.810  20.676  0.00  0.00    +0.000 NA
ATOM     29  C   UNL     1      -0.773  14.234  21.036  0.00  0.00    +0.000 C 
ATOM     30  C   UNL     1      -0.291  14.456  22.478  0.00  0.00    +0.000 C 
ATOM     31  O   UNL     1      -1.198  13.873  23.422  0.00  0.00    +0.000 OA
ATOM     32  C   UNL     1      -1.376  12.475  23.166  0.00  0.00    +0.000 C 
ATOM     33  C   UNL     1      -1.846  12.216  21.719  0.00  0.00    +0.000 C 
ENDBRANCH  27  28
ENDBRANCH  26  27
ENDBRANCH   2  25
TORSDOF 4
ENDMDL
MODEL 6
REMARK VINA RESULT:      -8.2      4.745      9.666
REMARK  Name = 
REMARK  4 active torsions:
REMARK  status: ('A' for Active; 'I' for Inactive)
REMARK    1  A    between atoms: C_2  and  C_3
REMARK    2  A    between atoms: C_4  and  C_5
REMARK    3  A    between atoms: C_5  and  N_6
REMARK    4  A    between atoms: N_17  and  C_18
REMARK                            x       y       z     vdW  Elec       q    Type
REMARK                         _______ _______ _______ _____ _____    ______ ____
ROOT
ATOM      1  O   UNL     1       1.819   5.810  21.158  0.00  0.00    +0.000 OA
ATOM      2  C   UNL     1       2.232   6.354  20.142  0.00  0.00    +0.000 C 
ATOM      3  N   UNL     1       1.899   7.608  19.665  0.00  0.00    +0.000 N 
ATOM      4  C   UNL     1       1.097   8.520  20.375  0.00  0.00    +0.000 A 
ATOM      5  C   UNL     1       1.166   9.867  20.037  0.00  0.00    +0.000 A 
ATOM      6  C   UNL     1       0.503  10.828  20.849  0.00  0.00    +0.000 A 
ATOM      7  C   UNL     1       0.603  12.226  20.721  0.00  0.00    +0.000 A 
ATOM      8  N   UNL     1       1.405  12.783  19.689  0.00  0.00    +0.000 N 
ATOM      9  N   UNL     1      -0.025  13.074  21.557  0.00  0.00    +0.000 NA
ATOM     10  C   UNL     1      -0.752  12.538  22.538  0.00  0.00    +0.000 A 
ATOM     11  N   UNL     1      -0.909  11.233  22.765  0.00  0.00    +0.000 NA
ATOM     12  C   UNL     1      -0.269  10.398  21.931  0.00  0.00    +0.000 A 
ATOM     13  C   UNL     1      -0.314   9.035  22.133  0.00  0.00    +0.000 A 
ATOM     14  N   UNL     1       0.342   8.103  21.397  0.00  0.00    +0.000 NA
ATOM     15  H   UNL     1       2.392   7.962  18.861  0.00  0.00    +0.000 HD
ATOM     16  H   UNL     1       0.955  12.618  18.793  0.00  0.00    +0.000 HD
ENDROOT
BRANCH   8  17
ATOM     17  C   UNL     1       2.063  14.035  19.758  0.00  0.00    +0.000 A 
ATOM     18  C   UNL     1       3.184  14.199  20.584  0.00  0.00    +0.000 A 
ATOM     19  C   UNL     1       3.802  15.449  20.705  0.00  0.00    +0.000 A 
ATOM     20  C   UNL     1       3.288  16.544  20.019  0.00  0.00    +0.000 A 
ATOM     21  F   UNL     1       3.895  17.734  20.156  0.00  0.00    +0.000 F 
ATOM     22  C   UNL     1       2.160  16.411  19.219  0.00  0.00    +0.000 A 
ATOM     23 CL   UNL     1       1.499  17.765  18.388  0.00  0.00    +0.000 Cl
ATOM     24  C   UNL     1       1.545  15.164  19.099  0.00  0.00    +0.000 A 
ENDBRANCH   8  17
BRANCH   2  25
ATOM     25  C   UNL     1       3.317   5.714  19.334  0.00  0.00    +0.000 C 
ATOM     26  C   UNL     1       3.380   5.956  18.012  0.00  0.00    +0.000 C 
BRANCH  26  27
ATOM     27  C   UNL     1       4.259   5.227  17.038  0.00  0.00    +0.000 C 
BRANCH  27  28
ATOM     28  N   UNL     1       5.293   6.043  16.389  0.00  0.00    +0.000 NA
ATOM     29  C   UNL     1       5.847   5.454  15.147  0.00  0.00    +0.000 C 
ATOM     30  C   UNL     1       6.723   4.212  15.377  0.00  0.00    +0.000 C 
ATOM     31  O   UNL     1       7.812   4.505  16.261  0.00  0.00    +0.000 OA
ATOM     32  C   UNL     1       7.334   5.017  17.511  0.00  0.00    +0.000 C 
ATOM     33  C   UNL     1       6.437   6.257  17.314  0.00  0.00    +0.000 C 
ENDBRANCH  27  28
ENDBRANCH  26  27
ENDBRANCH   2  25
TORSDOF 4
ENDMDL
MODEL 7
REMARK VINA RESULT:      -8.1      4.766      9.821
REMARK  Name = 
REMARK  4 active torsions:
REMARK  status: ('A' for Active; 'I' for Inactive)
REMARK    1  A    between atoms: C_2  and  C_3
REMARK    2  A    between atoms: C_4  and  C_5
REMARK    3  A    between atoms: C_5  and  N_6
REMARK    4  A    between atoms: N_17  and  C_18
REMARK                            x       y       z     vdW  Elec       q    Type
REMARK                         _______ _______ _______ _____ _____    ______ ____
ROOT
ATOM      1  O   UNL     1       1.782   5.955  21.012  0.00  0.00    +0.000 OA
ATOM      2  C   UNL     1       2.122   6.520  19.981  0.00  0.00    +0.000 C 
ATOM      3  N   UNL     1       1.757   7.783  19.553  0.00  0.00    +0.000 N 
ATOM      4  C   UNL     1       1.008   8.679  20.336  0.00  0.00    +0.000 A 
ATOM      5  C   UNL     1       1.053  10.033  20.020  0.00  0.00    +0.000 A 
ATOM      6  C   UNL     1       0.449  10.977  20.896  0.00  0.00    +0.000 A 
ATOM      7  C   UNL     1       0.541  12.377  20.789  0.00  0.00    +0.000 A 
ATOM      8  N   UNL     1       1.269  12.956  19.715  0.00  0.00    +0.000 N 
ATOM      9  N   UNL     1      -0.027  13.208  21.684  0.00  0.00    +0.000 NA
ATOM     10  C   UNL     1      -0.683  12.652  22.703  0.00  0.00    +0.000 A 
ATOM     11  N   UNL     1      -0.824  11.343  22.914  0.00  0.00    +0.000 NA
ATOM     12  C   UNL     1      -0.244  10.525  22.021  0.00  0.00    +0.000 A 
ATOM     13  C   UNL     1      -0.276   9.158  22.198  0.00  0.00    +0.000 A 
ATOM     14  N   UNL     1       0.326   8.241  21.400  0.00  0.00    +0.000 NA
ATOM     15  H   UNL     1       2.193   8.153  18.724  0.00  0.00    +0.000 HD
ATOM     16  H   UNL     1       0.757  12.808  18.850  0.00  0.00    +0.000 HD
ENDROOT
BRANCH   8  17
ATOM     17  C   UNL     1       1.930  14.207  19.762  0.00  0.00    +0.000 A 
ATOM     18  C   UNL     1       3.108  14.355  20.508  0.00  0.00    +0.000 A 
ATOM     19  C   UNL     1       3.734  15.602  20.610  0.00  0.00    +0.000 A 
ATOM     20  C   UNL     1       3.172  16.711  19.987  0.00  0.00    +0.000 A 
ATOM     21  F   UNL     1       3.787  17.898  20.104  0.00  0.00    +0.000 F 
ATOM     22  C   UNL     1       1.989  16.594  19.269  0.00  0.00    +0.000 A 
ATOM     23 CL   UNL     1       1.269  17.965  18.516  0.00  0.00    +0.000 Cl
ATOM     24  C   UNL     1       1.366  15.349  19.167  0.00  0.00    +0.000 A 
ENDBRANCH   8  17
BRANCH   2  25
ATOM     25  C   UNL     1       3.148   5.897  19.086  0.00  0.00    +0.000 C 
ATOM     26  C   UNL     1       3.770   6.662  18.170  0.00  0.00    +0.000 C 
BRANCH  26  27
ATOM     27  C   UNL     1       4.648   6.149  17.065  0.00  0.00    +0.000 C 
BRANCH  27  28
ATOM     28  N   UNL     1       5.047   4.741  17.179  0.00  0.00    +0.000 NA
ATOM     29  C   UNL     1       6.155   4.494  18.131  0.00  0.00    +0.000 C 
ATOM     30  C   UNL     1       7.519   5.023  17.658  0.00  0.00    +0.000 C 
ATOM     31  O   UNL     1       7.879   4.462  16.391  0.00  0.00    +0.000 OA
ATOM     32  C   UNL     1       6.874   4.728  15.406  0.00  0.00    +0.000 C 
ATOM     33  C   UNL     1       5.487   4.221  15.857  0.00  0.00    +0.000 C 
ENDBRANCH  27  28
ENDBRANCH  26  27
ENDBRANCH   2  25
TORSDOF 4
ENDMDL
MODEL 8
REMARK VINA RESULT:      -8.1      6.166     11.763
REMARK  Name = 
REMARK  4 active torsions:
REMARK  status: ('A' for Active; 'I' for Inactive)
REMARK    1  A    between atoms: C_2  and  C_3
REMARK    2  A    between atoms: C_4  and  C_5
REMARK    3  A    between atoms: C_5  and  N_6
REMARK    4  A    between atoms: N_17  and  C_18
REMARK                            x       y       z     vdW  Elec       q    Type
REMARK                         _______ _______ _______ _____ _____    ______ ____
ROOT
ATOM      1  O   UNL     1       2.220   9.610  17.416  0.00  0.00    +0.000 OA
ATOM      2  C   UNL     1       1.820   9.058  18.432  0.00  0.00    +0.000 C 
ATOM      3  N   UNL     1       1.251   9.651  19.544  0.00  0.00    +0.000 N 
ATOM      4  C   UNL     1       0.929  11.018  19.613  0.00  0.00    +0.000 A 
ATOM      5  C   UNL     1      -0.001  11.434  20.560  0.00  0.00    +0.000 A 
ATOM      6  C   UNL     1      -0.473  12.775  20.536  0.00  0.00    +0.000 A 
ATOM      7  C   UNL     1      -1.514  13.297  21.327  0.00  0.00    +0.000 A 
ATOM      8  N   UNL     1      -2.171  12.460  22.269  0.00  0.00    +0.000 N 
ATOM      9  N   UNL     1      -1.934  14.572  21.218  0.00  0.00    +0.000 NA
ATOM     10  C   UNL     1      -1.328  15.338  20.310  0.00  0.00    +0.000 A 
ATOM     11  N   UNL     1      -0.344  14.951  19.498  0.00  0.00    +0.000 NA
ATOM     12  C   UNL     1       0.058  13.675  19.610  0.00  0.00    +0.000 A 
ATOM     13  C   UNL     1       1.020  13.166  18.762  0.00  0.00    +0.000 A 
ATOM     14  N   UNL     1       1.457  11.882  18.739  0.00  0.00    +0.000 NA
ATOM     15  H   UNL     1       0.882   9.057  20.270  0.00  0.00    +0.000 HD
ATOM     16  H   UNL     1      -1.534  12.260  23.035  0.00  0.00    +0.000 HD
ENDROOT
BRANCH   8  17
ATOM     17  C   UNL     1      -3.515  12.608  22.689  0.00  0.00    +0.000 A 
ATOM     18  C   UNL     1      -3.839  12.553  24.052  0.00  0.00    +0.000 A 
ATOM     19  C   UNL     1      -5.172  12.637  24.470  0.00  0.00    +0.000 A 
ATOM     20  C   UNL     1      -6.188  12.751  23.526  0.00  0.00    +0.000 A 
ATOM     21  F   UNL     1      -7.459  12.823  23.951  0.00  0.00    +0.000 F 
ATOM     22  C   UNL     1      -5.891  12.775  22.169  0.00  0.00    +0.000 A 
ATOM     23 CL   UNL     1      -7.141  12.888  20.991  0.00  0.00    +0.000 Cl
ATOM     24  C   UNL     1      -4.561  12.693  21.753  0.00  0.00    +0.000 A 
ENDBRANCH   8  17
BRANCH   2  25
ATOM     25  C   UNL     1       1.788   7.563  18.513  0.00  0.00    +0.000 C 
ATOM     26  C   UNL     1       2.848   6.860  18.074  0.00  0.00    +0.000 C 
BRANCH  26  27
ATOM     27  C   UNL     1       2.882   5.371  17.884  0.00  0.00    +0.000 C 
BRANCH  27  28
ATOM     28  N   UNL     1       2.175   4.589  18.906  0.00  0.00    +0.000 NA
ATOM     29  C   UNL     1       3.041   4.087  19.998  0.00  0.00    +0.000 C 
ATOM     30  C   UNL     1       4.013   2.976  19.569  0.00  0.00    +0.000 C 
ATOM     31  O   UNL     1       3.308   1.863  19.004  0.00  0.00    +0.000 OA
ATOM     32  C   UNL     1       2.502   2.276  17.895  0.00  0.00    +0.000 C 
ATOM     33  C   UNL     1       1.524   3.403  18.289  0.00  0.00    +0.000 C 
ENDBRANCH  27  28
ENDBRANCH  26  27
ENDBRANCH   2  25
TORSDOF 4
ENDMDL
MODEL 9
REMARK VINA RESULT:      -8.1      6.060     11.671
REMARK  Name = 
REMARK  4 active torsions:
REMARK  status: ('A' for Active; 'I' for Inactive)
REMARK    1  A    between atoms: C_2  and  C_3
REMARK    2  A    between atoms: C_4  and  C_5
REMARK    3  A    between atoms: C_5  and  N_6
REMARK    4  A    between atoms: N_17  and  C_18
REMARK                            x       y       z     vdW  Elec       q    Type
REMARK                         _______ _______ _______ _____ _____    ______ ____
ROOT
ATOM      1  O   UNL     1       2.307   9.338  17.303  0.00  0.00    +0.000 OA
ATOM      2  C   UNL     1       1.890   8.812  18.326  0.00  0.00    +0.000 C 
ATOM      3  N   UNL     1       1.340   9.436  19.430  0.00  0.00    +0.000 N 
ATOM      4  C   UNL     1       1.060  10.813  19.482  0.00  0.00    +0.000 A 
ATOM      5  C   UNL     1       0.144  11.269  20.424  0.00  0.00    +0.000 A 
ATOM      6  C   UNL     1      -0.287  12.623  20.384  0.00  0.00    +0.000 A 
ATOM      7  C   UNL     1      -1.311  13.186  21.168  0.00  0.00    +0.000 A 
ATOM      8  N   UNL     1      -1.992  12.382  22.121  0.00  0.00    +0.000 N 
ATOM      9  N   UNL     1      -1.692  14.472  21.043  0.00  0.00    +0.000 NA
ATOM     10  C   UNL     1      -1.064  15.208  20.126  0.00  0.00    +0.000 A 
ATOM     11  N   UNL     1      -0.092  14.781  19.319  0.00  0.00    +0.000 NA
ATOM     12  C   UNL     1       0.271  13.494  19.446  0.00  0.00    +0.000 A 
ATOM     13  C   UNL     1       1.216  12.946  18.604  0.00  0.00    +0.000 A 
ATOM     14  N   UNL     1       1.614  11.649  18.597  0.00  0.00    +0.000 NA
ATOM     15  H   UNL     1       0.954   8.862  20.163  0.00  0.00    +0.000 HD
ATOM     16  H   UNL     1      -1.361  12.172  22.889  0.00  0.00    +0.000 HD
ENDROOT
BRANCH   8  17
ATOM     17  C   UNL     1      -3.331  12.576  22.539  0.00  0.00    +0.000 A 
ATOM     18  C   UNL     1      -3.651  12.583  23.904  0.00  0.00    +0.000 A 
ATOM     19  C   UNL     1      -4.980  12.713  24.323  0.00  0.00    +0.000 A 
ATOM     20  C   UNL     1      -5.996  12.810  23.379  0.00  0.00    +0.000 A 
ATOM     21  F   UNL     1      -7.264  12.928  23.806  0.00  0.00    +0.000 F 
ATOM     22  C   UNL     1      -5.706  12.774  22.021  0.00  0.00    +0.000 A 
ATOM     23 CL   UNL     1      -6.958  12.867  20.844  0.00  0.00    +0.000 Cl
ATOM     24  C   UNL     1      -4.380  12.646  21.604  0.00  0.00    +0.000 A 
ENDBRANCH   8  17
BRANCH   2  25
ATOM     25  C   UNL     1       1.813   7.320  18.425  0.00  0.00    +0.000 C 
ATOM     26  C   UNL     1       2.528   6.688  19.375  0.00  0.00    +0.000 C 
BRANCH  26  27
ATOM     27  C   UNL     1       2.729   5.203  19.463  0.00  0.00    +0.000 C 
BRANCH  27  28
ATOM     28  N   UNL     1       3.589   4.620  18.426  0.00  0.00    +0.000 NA
ATOM     29  C   UNL     1       2.872   3.784  17.435  0.00  0.00    +0.000 C 
ATOM     30  C   UNL     1       2.350   2.452  17.997  0.00  0.00    +0.000 C 
ATOM     31  O   UNL     1       3.416   1.675  18.556  0.00  0.00    +0.000 OA
ATOM     32  C   UNL     1       4.108   2.408  19.573  0.00  0.00    +0.000 C 
ATOM     33  C   UNL     1       4.633   3.760  19.044  0.00  0.00    +0.000 C 
ENDBRANCH  27  28
ENDBRANCH  26  27
ENDBRANCH   2  25
TORSDOF 4
ENDMDL
