MODEL 1
REMARK VINA RESULT:      -9.8      0.000      0.000
REMARK  Name = 
REMARK  5 active torsions:
REMARK  status: ('A' for Active; 'I' for Inactive)
REMARK    1  A    between atoms: C_1  and  O_2
REMARK    2  A    between atoms: O_2  and  C_3
REMARK    3  A    between atoms: C_8  and  C_9
REMARK    4  A    between atoms: C_13  and  C_14
REMARK    5  A    between atoms: C_15  and  C_16
REMARK                            x       y       z     vdW  Elec       q    Type
REMARK                         _______ _______ _______ _____ _____    ______ ____
ROOT
ATOM      1  C   UNL     1       3.435   3.493  20.103  0.00  0.00    +0.000 A 
ATOM      2  N   UNL     1       3.554   2.353  20.806  0.00  0.00    +0.000 NA
ATOM      3  N   UNL     1       2.592   2.455  21.739  0.00  0.00    +0.000 N 
ATOM      4  C   UNL     1       1.855   3.598  21.650  0.00  0.00    +0.000 A 
ATOM      5  C   UNL     1       2.365   4.303  20.583  0.00  0.00    +0.000 A 
ATOM      6  H   UNL     1       2.488   1.698  22.408  0.00  0.00    +0.000 HD
ENDROOT
BRANCH   1  12
ATOM      7  C   UNL     1       6.528   4.551  15.049  0.00  0.00    +0.000 A 
ATOM      8  C   UNL     1       7.560   4.785  15.965  0.00  0.00    +0.000 A 
ATOM      9  C   UNL     1       7.339   4.673  17.344  0.00  0.00    +0.000 A 
ATOM     10  C   UNL     1       6.065   4.312  17.794  0.00  0.00    +0.000 A 
ATOM     11  N   UNL     1       5.613   4.157  19.075  0.00  0.00    +0.000 NA
ATOM     12  C   UNL     1       4.353   3.794  18.963  0.00  0.00    +0.000 A 
ATOM     13  N   UNL     1       3.978   3.714  17.645  0.00  0.00    +0.000 N 
ATOM     14  C   UNL     1       5.058   4.058  16.871  0.00  0.00    +0.000 A 
ATOM     15  C   UNL     1       5.250   4.169  15.491  0.00  0.00    +0.000 A 
ATOM     16  H   UNL     1       3.053   3.450  17.334  0.00  0.00    +0.000 HD
BRANCH   7  18
ATOM     17  C   UNL     1       6.175   3.561  12.917  0.00  0.00    +0.000 C 
ATOM     18  O   UNL     1       6.647   4.662  13.687  0.00  0.00    +0.000 OA
ENDBRANCH   7  18
ENDBRANCH   1  12
BRANCH   5  19
ATOM     19  C   UNL     1       1.885   5.547  20.067  0.00  0.00    +0.000 C 
ATOM     20  C   UNL     1       2.565   6.705  20.033  0.00  0.00    +0.000 C 
BRANCH  20  21
ATOM     21  C   UNL     1       1.943   7.956  19.570  0.00  0.00    +0.000 A 
ATOM     22  C   UNL     1       2.100   8.308  18.229  0.00  0.00    +0.000 A 
ATOM     23  N   UNL     1       1.540   9.392  17.650  0.00  0.00    +0.000 NA
ATOM     24  C   UNL     1       0.783  10.170  18.452  0.00  0.00    +0.000 A 
ATOM     25  C   UNL     1       0.559   9.934  19.811  0.00  0.00    +0.000 A 
ATOM     26  C   UNL     1      -0.250  10.788  20.581  0.00  0.00    +0.000 A 
ATOM     27  C   UNL     1      -0.451  10.543  21.939  0.00  0.00    +0.000 A 
ATOM     28  C   UNL     1       0.161   9.449  22.540  0.00  0.00    +0.000 A 
ATOM     29  C   UNL     1       0.960   8.588  21.781  0.00  0.00    +0.000 A 
ATOM     30  C   UNL     1       1.168   8.803  20.398  0.00  0.00    +0.000 A 
ENDBRANCH  20  21
ENDBRANCH   5  19
TORSDOF 4
ENDMDL
MODEL 2
REMARK VINA RESULT:      -9.1      0.771      1.338
REMARK  Name = 
REMARK  5 active torsions:
REMARK  status: ('A' for Active; 'I' for Inactive)
REMARK    1  A    between atoms: C_1  and  O_2
REMARK    2  A    between atoms: O_2  and  C_3
REMARK    3  A    between atoms: C_8  and  C_9
REMARK    4  A    between atoms: C_13  and  C_14
REMARK    5  A    between atoms: C_15  and  C_16
REMARK                            x       y       z     vdW  Elec       q    Type
REMARK                         _______ _______ _______ _____ _____    ______ ____
ROOT
ATOM      1  C   UNL     1       3.486   3.550  19.748  0.00  0.00    +0.000 A 
ATOM      2  N   UNL     1       3.713   2.419  20.437  0.00  0.00    +0.000 NA
ATOM      3  N   UNL     1       2.925   2.543  21.518  0.00  0.00    +0.000 N 
ATOM      4  C   UNL     1       2.194   3.693  21.539  0.00  0.00    +0.000 A 
ATOM      5  C   UNL     1       2.521   4.379  20.391  0.00  0.00    +0.000 A 
ATOM      6  H   UNL     1       2.929   1.796  22.206  0.00  0.00    +0.000 HD
ENDROOT
BRANCH   1  12
ATOM      7  C   UNL     1       6.900   5.015  15.011  0.00  0.00    +0.000 A 
ATOM      8  C   UNL     1       5.866   4.375  14.319  0.00  0.00    +0.000 A 
ATOM      9  C   UNL     1       4.776   3.821  15.003  0.00  0.00    +0.000 A 
ATOM     10  C   UNL     1       4.733   3.924  16.397  0.00  0.00    +0.000 A 
ATOM     11  N   UNL     1       3.792   3.454  17.270  0.00  0.00    +0.000 NA
ATOM     12  C   UNL     1       4.201   3.826  18.464  0.00  0.00    +0.000 A 
ATOM     13  N   UNL     1       5.382   4.521  18.387  0.00  0.00    +0.000 N 
ATOM     14  C   UNL     1       5.755   4.585  17.067  0.00  0.00    +0.000 A 
ATOM     15  C   UNL     1       6.856   5.140  16.410  0.00  0.00    +0.000 A 
ATOM     16  H   UNL     1       5.871   4.900  19.187  0.00  0.00    +0.000 HD
BRANCH   7  18
ATOM     17  C   UNL     1       8.102   5.465  13.011  0.00  0.00    +0.000 C 
ATOM     18  O   UNL     1       8.015   5.562  14.428  0.00  0.00    +0.000 OA
ENDBRANCH   7  18
ENDBRANCH   1  12
BRANCH   5  19
ATOM     19  C   UNL     1       1.972   5.621  19.946  0.00  0.00    +0.000 C 
ATOM     20  C   UNL     1       2.585   6.816  19.981  0.00  0.00    +0.000 C 
BRANCH  20  21
ATOM     21  C   UNL     1       1.894   8.054  19.590  0.00  0.00    +0.000 A 
ATOM     22  C   UNL     1       1.959   8.446  18.252  0.00  0.00    +0.000 A 
ATOM     23  N   UNL     1       1.328   9.523  17.736  0.00  0.00    +0.000 NA
ATOM     24  C   UNL     1       0.593  10.252  18.602  0.00  0.00    +0.000 A 
ATOM     25  C   UNL     1       0.458   9.974  19.964  0.00  0.00    +0.000 A 
ATOM     26  C   UNL     1      -0.334  10.778  20.804  0.00  0.00    +0.000 A 
ATOM     27  C   UNL     1      -0.447  10.491  22.163  0.00  0.00    +0.000 A 
ATOM     28  C   UNL     1       0.238   9.405  22.697  0.00  0.00    +0.000 A 
ATOM     29  C   UNL     1       1.021   8.594  21.870  0.00  0.00    +0.000 A 
ATOM     30  C   UNL     1       1.140   8.851  20.484  0.00  0.00    +0.000 A 
ENDBRANCH  20  21
ENDBRANCH   5  19
TORSDOF 4
ENDMDL
MODEL 3
REMARK VINA RESULT:      -8.4      2.358      3.151
REMARK  Name = 
REMARK  5 active torsions:
REMARK  status: ('A' for Active; 'I' for Inactive)
REMARK    1  A    between atoms: C_1  and  O_2
REMARK    2  A    between atoms: O_2  and  C_3
REMARK    3  A    between atoms: C_8  and  C_9
REMARK    4  A    between atoms: C_13  and  C_14
REMARK    5  A    between atoms: C_15  and  C_16
REMARK                            x       y       z     vdW  Elec       q    Type
REMARK                         _______ _______ _______ _____ _____    ______ ____
ROOT
ATOM      1  C   UNL     1       2.946   3.474  19.090  0.00  0.00    +0.000 A 
ATOM      2  N   UNL     1       2.985   2.143  18.907  0.00  0.00    +0.000 NA
ATOM      3  N   UNL     1       1.732   1.748  19.190  0.00  0.00    +0.000 N 
ATOM      4  C   UNL     1       0.894   2.769  19.527  0.00  0.00    +0.000 A 
ATOM      5  C   UNL     1       1.646   3.922  19.463  0.00  0.00    +0.000 A 
ATOM      6  H   UNL     1       1.513   0.759  19.126  0.00  0.00    +0.000 HD
ENDROOT
BRANCH   1  12
ATOM      7  C   UNL     1       7.468   7.220  17.762  0.00  0.00    +0.000 A 
ATOM      8  C   UNL     1       8.109   6.484  18.766  0.00  0.00    +0.000 A 
ATOM      9  C   UNL     1       7.446   5.446  19.433  0.00  0.00    +0.000 A 
ATOM     10  C   UNL     1       6.128   5.149  19.074  0.00  0.00    +0.000 A 
ATOM     11  N   UNL     1       5.285   4.203  19.588  0.00  0.00    +0.000 NA
ATOM     12  C   UNL     1       4.169   4.313  18.898  0.00  0.00    +0.000 A 
ATOM     13  N   UNL     1       4.267   5.307  17.956  0.00  0.00    +0.000 N 
ATOM     14  C   UNL     1       5.514   5.871  18.059  0.00  0.00    +0.000 A 
ATOM     15  C   UNL     1       6.150   6.916  17.382  0.00  0.00    +0.000 A 
ATOM     16  H   UNL     1       3.525   5.558  17.317  0.00  0.00    +0.000 HD
BRANCH   7  18
ATOM     17  C   UNL     1       8.245   9.466  17.811  0.00  0.00    +0.000 C 
ATOM     18  O   UNL     1       8.029   8.266  17.075  0.00  0.00    +0.000 OA
ENDBRANCH   7  18
ENDBRANCH   1  12
BRANCH   5  19
ATOM     19  C   UNL     1       1.190   5.258  19.684  0.00  0.00    +0.000 C 
ATOM     20  C   UNL     1       1.807   6.192  20.427  0.00  0.00    +0.000 C 
BRANCH  20  21
ATOM     21  C   UNL     1       1.203   7.511  20.673  0.00  0.00    +0.000 A 
ATOM     22  C   UNL     1       0.466   7.685  21.846  0.00  0.00    +0.000 A 
ATOM     23  N   UNL     1      -0.096   8.851  22.234  0.00  0.00    +0.000 NA
ATOM     24  C   UNL     1       0.085   9.901  21.406  0.00  0.00    +0.000 A 
ATOM     25  C   UNL     1       0.789   9.854  20.200  0.00  0.00    +0.000 A 
ATOM     26  C   UNL     1       0.941  10.996  19.393  0.00  0.00    +0.000 A 
ATOM     27  C   UNL     1       1.636  10.926  18.187  0.00  0.00    +0.000 A 
ATOM     28  C   UNL     1       2.177   9.714  17.772  0.00  0.00    +0.000 A 
ATOM     29  C   UNL     1       2.039   8.575  18.571  0.00  0.00    +0.000 A 
ATOM     30  C   UNL     1       1.354   8.620  19.808  0.00  0.00    +0.000 A 
ENDBRANCH  20  21
ENDBRANCH   5  19
TORSDOF 4
ENDMDL
MODEL 4
REMARK VINA RESULT:      -8.3      1.360      2.255
REMARK  Name = 
REMARK  5 active torsions:
REMARK  status: ('A' for Active; 'I' for Inactive)
REMARK    1  A    between atoms: C_1  and  O_2
REMARK    2  A    between atoms: O_2  and  C_3
REMARK    3  A    between atoms: C_8  and  C_9
REMARK    4  A    between atoms: C_13  and  C_14
REMARK    5  A    between atoms: C_15  and  C_16
REMARK                            x       y       z     vdW  Elec       q    Type
REMARK                         _______ _______ _______ _____ _____    ______ ____
ROOT
ATOM      1  C   UNL     1       2.905   3.551  19.921  0.00  0.00    +0.000 A 
ATOM      2  N   UNL     1       2.931   2.244  20.235  0.00  0.00    +0.000 NA
ATOM      3  N   UNL     1       1.861   2.089  21.032  0.00  0.00    +0.000 N 
ATOM      4  C   UNL     1       1.144   3.233  21.224  0.00  0.00    +0.000 A 
ATOM      5  C   UNL     1       1.786   4.215  20.503  0.00  0.00    +0.000 A 
ATOM      6  H   UNL     1       1.670   1.166  21.410  0.00  0.00    +0.000 HD
ENDROOT
BRANCH   1  12
ATOM      7  C   UNL     1       6.941   5.461  15.883  0.00  0.00    +0.000 A 
ATOM      8  C   UNL     1       7.265   6.343  16.920  0.00  0.00    +0.000 A 
ATOM      9  C   UNL     1       6.573   6.311  18.137  0.00  0.00    +0.000 A 
ATOM     10  C   UNL     1       5.551   5.371  18.305  0.00  0.00    +0.000 A 
ATOM     11  N   UNL     1       4.737   5.163  19.384  0.00  0.00    +0.000 NA
ATOM     12  C   UNL     1       3.960   4.154  19.051  0.00  0.00    +0.000 A 
ATOM     13  N   UNL     1       4.247   3.708  17.785  0.00  0.00    +0.000 N 
ATOM     14  C   UNL     1       5.258   4.485  17.277  0.00  0.00    +0.000 A 
ATOM     15  C   UNL     1       5.929   4.500  16.050  0.00  0.00    +0.000 A 
ATOM     16  H   UNL     1       3.770   2.940  17.333  0.00  0.00    +0.000 HD
BRANCH   7  18
ATOM     17  C   UNL     1       6.931   4.625  13.658  0.00  0.00    +0.000 C 
ATOM     18  O   UNL     1       7.546   5.438  14.653  0.00  0.00    +0.000 OA
ENDBRANCH   7  18
ENDBRANCH   1  12
BRANCH   5  19
ATOM     19  C   UNL     1       1.380   5.577  20.354  0.00  0.00    +0.000 C 
ATOM     20  C   UNL     1       1.650   6.581  21.204  0.00  0.00    +0.000 C 
BRANCH  20  21
ATOM     21  C   UNL     1       1.099   7.931  21.010  0.00  0.00    +0.000 A 
ATOM     22  C   UNL     1       0.291   8.461  22.017  0.00  0.00    +0.000 A 
ATOM     23  N   UNL     1      -0.236   9.705  22.005  0.00  0.00    +0.000 NA
ATOM     24  C   UNL     1       0.058  10.463  20.928  0.00  0.00    +0.000 A 
ATOM     25  C   UNL     1       0.842  10.047  19.849  0.00  0.00    +0.000 A 
ATOM     26  C   UNL     1       1.109  10.899  18.763  0.00  0.00    +0.000 A 
ATOM     27  C   UNL     1       1.884  10.461  17.690  0.00  0.00    +0.000 A 
ATOM     28  C   UNL     1       2.388   9.166  17.688  0.00  0.00    +0.000 A 
ATOM     29  C   UNL     1       2.136   8.313  18.767  0.00  0.00    +0.000 A 
ATOM     30  C   UNL     1       1.368   8.736  19.877  0.00  0.00    +0.000 A 
ENDBRANCH  20  21
ENDBRANCH   5  19
TORSDOF 4
ENDMDL
MODEL 5
REMARK VINA RESULT:      -8.2      1.457      2.053
REMARK  Name = 
REMARK  5 active torsions:
REMARK  status: ('A' for Active; 'I' for Inactive)
REMARK    1  A    between atoms: C_1  and  O_2
REMARK    2  A    between atoms: O_2  and  C_3
REMARK    3  A    between atoms: C_8  and  C_9
REMARK    4  A    between atoms: C_13  and  C_14
REMARK    5  A    between atoms: C_15  and  C_16
REMARK                            x       y       z     vdW  Elec       q    Type
REMARK                         _______ _______ _______ _____ _____    ______ ____
ROOT
ATOM      1  C   UNL     1       2.957   3.741  20.182  0.00  0.00    +0.000 A 
ATOM      2  N   UNL     1       3.025   2.501  20.697  0.00  0.00    +0.000 NA
ATOM      3  N   UNL     1       1.946   2.431  21.495  0.00  0.00    +0.000 N 
ATOM      4  C   UNL     1       1.184   3.561  21.495  0.00  0.00    +0.000 A 
ATOM      5  C   UNL     1       1.804   4.443  20.638  0.00  0.00    +0.000 A 
ATOM      6  H   UNL     1       1.782   1.571  22.010  0.00  0.00    +0.000 HD
ENDROOT
BRANCH   1  12
ATOM      7  C   UNL     1       7.239   6.374  16.870  0.00  0.00    +0.000 A 
ATOM      8  C   UNL     1       7.044   5.238  16.075  0.00  0.00    +0.000 A 
ATOM      9  C   UNL     1       6.111   4.257  16.436  0.00  0.00    +0.000 A 
ATOM     10  C   UNL     1       5.366   4.435  17.605  0.00  0.00    +0.000 A 
ATOM     11  N   UNL     1       4.421   3.618  18.160  0.00  0.00    +0.000 NA
ATOM     12  C   UNL     1       4.006   4.242  19.242  0.00  0.00    +0.000 A 
ATOM     13  N   UNL     1       4.660   5.439  19.403  0.00  0.00    +0.000 N 
ATOM     14  C   UNL     1       5.552   5.580  18.370  0.00  0.00    +0.000 A 
ATOM     15  C   UNL     1       6.481   6.570  18.037  0.00  0.00    +0.000 A 
ATOM     16  H   UNL     1       4.492   6.078  20.168  0.00  0.00    +0.000 HD
BRANCH   7  18
ATOM     17  C   UNL     1       8.143   8.479  17.501  0.00  0.00    +0.000 C 
ATOM     18  O   UNL     1       8.146   7.369  16.609  0.00  0.00    +0.000 OA
ENDBRANCH   7  18
ENDBRANCH   1  12
BRANCH   5  19
ATOM     19  C   UNL     1       1.351   5.748  20.273  0.00  0.00    +0.000 C 
ATOM     20  C   UNL     1       1.990   6.905  20.512  0.00  0.00    +0.000 C 
BRANCH  20  21
ATOM     21  C   UNL     1       1.390   8.207  20.183  0.00  0.00    +0.000 A 
ATOM     22  C   UNL     1       1.498   8.665  18.869  0.00  0.00    +0.000 A 
ATOM     23  N   UNL     1       0.948   9.809  18.406  0.00  0.00    +0.000 NA
ATOM     24  C   UNL     1       0.252  10.538  19.304  0.00  0.00    +0.000 A 
ATOM     25  C   UNL     1       0.082  10.197  20.648  0.00  0.00    +0.000 A 
ATOM     26  C   UNL     1      -0.665  11.007  21.523  0.00  0.00    +0.000 A 
ATOM     27  C   UNL     1      -0.814  10.655  22.863  0.00  0.00    +0.000 A 
ATOM     28  C   UNL     1      -0.211   9.498  23.344  0.00  0.00    +0.000 A 
ATOM     29  C   UNL     1       0.526   8.681  22.481  0.00  0.00    +0.000 A 
ATOM     30  C   UNL     1       0.679   9.004  21.112  0.00  0.00    +0.000 A 
ENDBRANCH  20  21
ENDBRANCH   5  19
TORSDOF 4
ENDMDL
MODEL 6
REMARK VINA RESULT:      -8.2      1.683      2.852
REMARK  Name = 
REMARK  5 active torsions:
REMARK  status: ('A' for Active; 'I' for Inactive)
REMARK    1  A    between atoms: C_1  and  O_2
REMARK    2  A    between atoms: O_2  and  C_3
REMARK    3  A    between atoms: C_8  and  C_9
REMARK    4  A    between atoms: C_13  and  C_14
REMARK    5  A    between atoms: C_15  and  C_16
REMARK                            x       y       z     vdW  Elec       q    Type
REMARK                         _______ _______ _______ _____ _____    ______ ____
ROOT
ATOM      1  C   UNL     1       2.905   3.400  20.143  0.00  0.00    +0.000 A 
ATOM      2  N   UNL     1       3.026   2.116  20.524  0.00  0.00    +0.000 NA
ATOM      3  N   UNL     1       2.017   1.949  21.395  0.00  0.00    +0.000 N 
ATOM      4  C   UNL     1       1.248   3.061  21.571  0.00  0.00    +0.000 A 
ATOM      5  C   UNL     1       1.788   4.034  20.759  0.00  0.00    +0.000 A 
ATOM      6  H   UNL     1       1.903   1.040  21.832  0.00  0.00    +0.000 HD
ENDROOT
BRANCH   1  12
ATOM      7  C   UNL     1       6.962   6.355  16.819  0.00  0.00    +0.000 A 
ATOM      8  C   UNL     1       6.561   5.420  15.857  0.00  0.00    +0.000 A 
ATOM      9  C   UNL     1       5.593   4.452  16.153  0.00  0.00    +0.000 A 
ATOM     10  C   UNL     1       5.023   4.438  17.429  0.00  0.00    +0.000 A 
ATOM     11  N   UNL     1       4.083   3.591  17.947  0.00  0.00    +0.000 NA
ATOM     12  C   UNL     1       3.869   4.009  19.176  0.00  0.00    +0.000 A 
ATOM     13  N   UNL     1       4.648   5.102  19.468  0.00  0.00    +0.000 N 
ATOM     14  C   UNL     1       5.412   5.389  18.364  0.00  0.00    +0.000 A 
ATOM     15  C   UNL     1       6.380   6.361  18.098  0.00  0.00    +0.000 A 
ATOM     16  H   UNL     1       4.640   5.582  20.358  0.00  0.00    +0.000 HD
BRANCH   7  18
ATOM     17  C   UNL     1       7.983   8.353  17.604  0.00  0.00    +0.000 C 
ATOM     18  O   UNL     1       7.918   7.319  16.627  0.00  0.00    +0.000 OA
ENDBRANCH   7  18
ENDBRANCH   1  12
BRANCH   5  19
ATOM     19  C   UNL     1       1.295   5.361  20.565  0.00  0.00    +0.000 C 
ATOM     20  C   UNL     1       1.763   6.474  21.154  0.00  0.00    +0.000 C 
BRANCH  20  21
ATOM     21  C   UNL     1       1.119   7.783  20.962  0.00  0.00    +0.000 A 
ATOM     22  C   UNL     1       0.251   8.239  21.955  0.00  0.00    +0.000 A 
ATOM     23  N   UNL     1      -0.364   9.441  21.945  0.00  0.00    +0.000 NA
ATOM     24  C   UNL     1      -0.102  10.233  20.884  0.00  0.00    +0.000 A 
ATOM     25  C   UNL     1       0.735   9.889  19.819  0.00  0.00    +0.000 A 
ATOM     26  C   UNL     1       0.965  10.773  18.750  0.00  0.00    +0.000 A 
ATOM     27  C   UNL     1       1.795  10.407  17.691  0.00  0.00    +0.000 A 
ATOM     28  C   UNL     1       2.393   9.151  17.687  0.00  0.00    +0.000 A 
ATOM     29  C   UNL     1       2.178   8.268  18.749  0.00  0.00    +0.000 A 
ATOM     30  C   UNL     1       1.356   8.620  19.845  0.00  0.00    +0.000 A 
ENDBRANCH  20  21
ENDBRANCH   5  19
TORSDOF 4
ENDMDL
MODEL 7
REMARK VINA RESULT:      -8.0      2.765      7.999
REMARK  Name = 
REMARK  5 active torsions:
REMARK  status: ('A' for Active; 'I' for Inactive)
REMARK    1  A    between atoms: C_1  and  O_2
REMARK    2  A    between atoms: O_2  and  C_3
REMARK    3  A    between atoms: C_8  and  C_9
REMARK    4  A    between atoms: C_13  and  C_14
REMARK    5  A    between atoms: C_15  and  C_16
REMARK                            x       y       z     vdW  Elec       q    Type
REMARK                         _______ _______ _______ _____ _____    ______ ____
ROOT
ATOM      1  C   UNL     1       2.422   3.707  19.057  0.00  0.00    +0.000 A 
ATOM      2  N   UNL     1       1.644   2.796  19.668  0.00  0.00    +0.000 NA
ATOM      3  N   UNL     1       2.141   1.621  19.245  0.00  0.00    +0.000 N 
ATOM      4  C   UNL     1       3.210   1.743  18.409  0.00  0.00    +0.000 A 
ATOM      5  C   UNL     1       3.437   3.094  18.267  0.00  0.00    +0.000 A 
ATOM      6  H   UNL     1       1.703   0.766  19.574  0.00  0.00    +0.000 HD
ENDROOT
BRANCH   1  12
ATOM      7  C   UNL     1       1.346   9.436  20.560  0.00  0.00    +0.000 A 
ATOM      8  C   UNL     1       1.561   9.627  19.191  0.00  0.00    +0.000 A 
ATOM      9  C   UNL     1       1.870   8.549  18.352  0.00  0.00    +0.000 A 
ATOM     10  C   UNL     1       1.955   7.268  18.906  0.00  0.00    +0.000 A 
ATOM     11  N   UNL     1       2.254   6.081  18.297  0.00  0.00    +0.000 NA
ATOM     12  C   UNL     1       2.185   5.171  19.245  0.00  0.00    +0.000 A 
ATOM     13  N   UNL     1       1.853   5.738  20.450  0.00  0.00    +0.000 N 
ATOM     14  C   UNL     1       1.714   7.090  20.262  0.00  0.00    +0.000 A 
ATOM     15  C   UNL     1       1.410   8.149  21.123  0.00  0.00    +0.000 A 
ATOM     16  H   UNL     1       1.745   5.218  21.311  0.00  0.00    +0.000 HD
BRANCH   7  18
ATOM     17  C   UNL     1       0.770  11.714  20.913  0.00  0.00    +0.000 C 
ATOM     18  O   UNL     1       1.064  10.433  21.459  0.00  0.00    +0.000 OA
ENDBRANCH   7  18
ENDBRANCH   1  12
BRANCH   5  19
ATOM     19  C   UNL     1       4.487   3.716  17.523  0.00  0.00    +0.000 C 
ATOM     20  C   UNL     1       4.443   4.057  16.225  0.00  0.00    +0.000 C 
BRANCH  20  21
ATOM     21  C   UNL     1       5.616   4.603  15.526  0.00  0.00    +0.000 A 
ATOM     22  C   UNL     1       6.462   5.459  16.234  0.00  0.00    +0.000 A 
ATOM     23  N   UNL     1       7.604   5.988  15.744  0.00  0.00    +0.000 NA
ATOM     24  C   UNL     1       7.921   5.648  14.477  0.00  0.00    +0.000 A 
ATOM     25  C   UNL     1       7.153   4.814  13.660  0.00  0.00    +0.000 A 
ATOM     26  C   UNL     1       7.554   4.499  12.349  0.00  0.00    +0.000 A 
ATOM     27  C   UNL     1       6.769   3.674  11.545  0.00  0.00    +0.000 A 
ATOM     28  C   UNL     1       5.574   3.165  12.040  0.00  0.00    +0.000 A 
ATOM     29  C   UNL     1       5.170   3.464  13.345  0.00  0.00    +0.000 A 
ATOM     30  C   UNL     1       5.955   4.284  14.189  0.00  0.00    +0.000 A 
ENDBRANCH  20  21
ENDBRANCH   5  19
TORSDOF 4
ENDMDL
MODEL 8
REMARK VINA RESULT:      -7.9      2.536      7.797
REMARK  Name = 
REMARK  5 active torsions:
REMARK  status: ('A' for Active; 'I' for Inactive)
REMARK    1  A    between atoms: C_1  and  O_2
REMARK    2  A    between atoms: O_2  and  C_3
REMARK    3  A    between atoms: C_8  and  C_9
REMARK    4  A    between atoms: C_13  and  C_14
REMARK    5  A    between atoms: C_15  and  C_16
REMARK                            x       y       z     vdW  Elec       q    Type
REMARK                         _______ _______ _______ _____ _____    ______ ____
ROOT
ATOM      1  C   UNL     1       2.419   3.616  19.102  0.00  0.00    +0.000 A 
ATOM      2  N   UNL     1       1.654   2.689  19.705  0.00  0.00    +0.000 NA
ATOM      3  N   UNL     1       2.166   1.525  19.272  0.00  0.00    +0.000 N 
ATOM      4  C   UNL     1       3.233   1.668  18.436  0.00  0.00    +0.000 A 
ATOM      5  C   UNL     1       3.442   3.023  18.306  0.00  0.00    +0.000 A 
ATOM      6  H   UNL     1       1.740   0.662  19.594  0.00  0.00    +0.000 HD
ENDROOT
BRANCH   1  12
ATOM      7  C   UNL     1       1.573   9.575  19.159  0.00  0.00    +0.000 A 
ATOM      8  C   UNL     1       1.276   9.320  20.503  0.00  0.00    +0.000 A 
ATOM      9  C   UNL     1       1.321   8.018  21.017  0.00  0.00    +0.000 A 
ATOM     10  C   UNL     1       1.678   6.970  20.163  0.00  0.00    +0.000 A 
ATOM     11  N   UNL     1       1.775   5.633  20.430  0.00  0.00    +0.000 NA
ATOM     12  C   UNL     1       2.163   5.075  19.303  0.00  0.00    +0.000 A 
ATOM     13  N   UNL     1       2.316   6.015  18.314  0.00  0.00    +0.000 N 
ATOM     14  C   UNL     1       1.995   7.242  18.838  0.00  0.00    +0.000 A 
ATOM     15  C   UNL     1       1.951   8.531  18.299  0.00  0.00    +0.000 A 
ATOM     16  H   UNL     1       2.609   5.802  17.370  0.00  0.00    +0.000 HD
BRANCH   7  18
ATOM     17  C   UNL     1       0.589  11.738  19.097  0.00  0.00    +0.000 C 
ATOM     18  O   UNL     1       1.529  10.811  18.566  0.00  0.00    +0.000 OA
ENDBRANCH   7  18
ENDBRANCH   1  12
BRANCH   5  19
ATOM     19  C   UNL     1       4.483   3.665  17.567  0.00  0.00    +0.000 C 
ATOM     20  C   UNL     1       4.440   4.003  16.267  0.00  0.00    +0.000 C 
BRANCH  20  21
ATOM     21  C   UNL     1       5.605   4.572  15.574  0.00  0.00    +0.000 A 
ATOM     22  C   UNL     1       6.441   5.429  16.292  0.00  0.00    +0.000 A 
ATOM     23  N   UNL     1       7.576   5.979  15.808  0.00  0.00    +0.000 NA
ATOM     24  C   UNL     1       7.895   5.658  14.536  0.00  0.00    +0.000 A 
ATOM     25  C   UNL     1       7.138   4.825  13.709  0.00  0.00    +0.000 A 
ATOM     26  C   UNL     1       7.541   4.531  12.394  0.00  0.00    +0.000 A 
ATOM     27  C   UNL     1       6.765   3.707  11.581  0.00  0.00    +0.000 A 
ATOM     28  C   UNL     1       5.576   3.177  12.071  0.00  0.00    +0.000 A 
ATOM     29  C   UNL     1       5.171   3.455  13.380  0.00  0.00    +0.000 A 
ATOM     30  C   UNL     1       5.946   4.274  14.233  0.00  0.00    +0.000 A 
ENDBRANCH  20  21
ENDBRANCH   5  19
TORSDOF 4
ENDMDL
MODEL 9
REMARK VINA RESULT:      -7.8      5.667      9.092
REMARK  Name = 
REMARK  5 active torsions:
REMARK  status: ('A' for Active; 'I' for Inactive)
REMARK    1  A    between atoms: C_1  and  O_2
REMARK    2  A    between atoms: O_2  and  C_3
REMARK    3  A    between atoms: C_8  and  C_9
REMARK    4  A    between atoms: C_13  and  C_14
REMARK    5  A    between atoms: C_15  and  C_16
REMARK                            x       y       z     vdW  Elec       q    Type
REMARK                         _______ _______ _______ _____ _____    ______ ____
ROOT
ATOM      1  C   UNL     1      -1.238  13.478  22.712  0.00  0.00    +0.000 A 
ATOM      2  N   UNL     1      -0.808  14.066  23.841  0.00  0.00    +0.000 NA
ATOM      3  N   UNL     1      -1.580  15.161  23.942  0.00  0.00    +0.000 N 
ATOM      4  C   UNL     1      -2.494  15.286  22.939  0.00  0.00    +0.000 A 
ATOM      5  C   UNL     1      -2.314  14.197  22.115  0.00  0.00    +0.000 A 
ATOM      6  H   UNL     1      -1.434  15.782  24.732  0.00  0.00    +0.000 HD
ENDROOT
BRANCH   1  12
ATOM      7  C   UNL     1       1.383   8.766  20.034  0.00  0.00    +0.000 A 
ATOM      8  C   UNL     1       1.144   8.178  21.281  0.00  0.00    +0.000 A 
ATOM      9  C   UNL     1       0.531   8.899  22.313  0.00  0.00    +0.000 A 
ATOM     10  C   UNL     1       0.150  10.223  22.074  0.00  0.00    +0.000 A 
ATOM     11  N   UNL     1      -0.443  11.117  22.921  0.00  0.00    +0.000 NA
ATOM     12  C   UNL     1      -0.611  12.215  22.214  0.00  0.00    +0.000 A 
ATOM     13  N   UNL     1      -0.140  12.055  20.935  0.00  0.00    +0.000 N 
ATOM     14  C   UNL     1       0.370  10.785  20.823  0.00  0.00    +0.000 A 
ATOM     15  C   UNL     1       0.986  10.090  19.779  0.00  0.00    +0.000 A 
ATOM     16  H   UNL     1      -0.172  12.774  20.225  0.00  0.00    +0.000 HD
BRANCH   7  18
ATOM     17  C   UNL     1       2.094   8.894  17.769  0.00  0.00    +0.000 C 
ATOM     18  O   UNL     1       1.999   8.146  18.977  0.00  0.00    +0.000 OA
ENDBRANCH   7  18
ENDBRANCH   1  12
BRANCH   5  19
ATOM     19  C   UNL     1      -3.075  13.864  20.952  0.00  0.00    +0.000 C 
ATOM     20  C   UNL     1      -3.704  12.699  20.724  0.00  0.00    +0.000 C 
BRANCH  20  21
ATOM     21  C   UNL     1      -4.380  12.420  19.448  0.00  0.00    +0.000 A 
ATOM     22  C   UNL     1      -5.665  12.931  19.260  0.00  0.00    +0.000 A 
ATOM     23  N   UNL     1      -6.382  12.806  18.123  0.00  0.00    +0.000 NA
ATOM     24  C   UNL     1      -5.788  12.132  17.116  0.00  0.00    +0.000 A 
ATOM     25  C   UNL     1      -4.514  11.561  17.182  0.00  0.00    +0.000 A 
ATOM     26  C   UNL     1      -3.958  10.878  16.086  0.00  0.00    +0.000 A 
ATOM     27  C   UNL     1      -2.690  10.305  16.175  0.00  0.00    +0.000 A 
ATOM     28  C   UNL     1      -1.972  10.400  17.362  0.00  0.00    +0.000 A 
ATOM     29  C   UNL     1      -2.512  11.085  18.455  0.00  0.00    +0.000 A 
ATOM     30  C   UNL     1      -3.788  11.691  18.387  0.00  0.00    +0.000 A 
ENDBRANCH  20  21
ENDBRANCH   5  19
TORSDOF 4
ENDMDL
