MODEL 1
REMARK VINA RESULT:      -8.7      0.000      0.000
REMARK  Name = 
REMARK  5 active torsions:
REMARK  status: ('A' for Active; 'I' for Inactive)
REMARK    1  A    between atoms: C_1  and  O_2
REMARK    2  A    between atoms: O_2  and  C_3
REMARK    3  A    between atoms: C_12  and  O_13
REMARK    4  A    between atoms: O_13  and  C_14
REMARK    5  A    between atoms: C_14  and  C_16
REMARK                            x       y       z     vdW  Elec       q    Type
REMARK                         _______ _______ _______ _____ _____    ______ ____
ROOT
ATOM      1  C   UNL     1      -0.809  11.580  22.572  0.00  0.00    +0.000 A 
ATOM      2  C   UNL     1      -0.957  10.402  23.299  0.00  0.00    +0.000 A 
ATOM      3  C   UNL     1      -0.369   9.224  22.853  0.00  0.00    +0.000 A 
ATOM      4  C   UNL     1       0.359   9.193  21.660  0.00  0.00    +0.000 A 
ATOM      5  C   UNL     1       0.893   7.983  21.240  0.00  0.00    +0.000 A 
ATOM      6  C   UNL     1       1.636   7.887  20.060  0.00  0.00    +0.000 A 
ATOM      7  N   UNL     1       1.804   9.009  19.299  0.00  0.00    +0.000 N 
ATOM      8  C   UNL     1       1.275  10.206  19.686  0.00  0.00    +0.000 A 
ATOM      9  C   UNL     1       0.532  10.354  20.886  0.00  0.00    +0.000 A 
ATOM     10  C   UNL     1      -0.053  11.562  21.380  0.00  0.00    +0.000 A 
ATOM     11  C   UNL     1       2.661   8.971  18.080  0.00  0.00    +0.000 C 
ATOM     12  C   UNL     1       2.510   7.661  17.319  0.00  0.00    +0.000 C 
ATOM     13  C   UNL     1       2.677   6.488  18.243  0.00  0.00    +0.000 A 
ATOM     14  C   UNL     1       3.189   5.269  17.752  0.00  0.00    +0.000 A 
ATOM     15  C   UNL     1       3.247   4.194  18.611  0.00  0.00    +0.000 A 
ATOM     16  C   UNL     1       2.833   4.302  19.911  0.00  0.00    +0.000 A 
ATOM     17  C   UNL     1       2.342   5.485  20.423  0.00  0.00    +0.000 A 
ATOM     18  C   UNL     1       2.232   6.618  19.584  0.00  0.00    +0.000 A 
ATOM     19  O   UNL     1       2.947   3.133  20.595  0.00  0.00    +0.000 OA
ATOM     20  C   UNL     1       3.428   2.253  19.554  0.00  0.00    +0.000 C 
ATOM     21  O   UNL     1       3.681   2.943  18.309  0.00  0.00    +0.000 OA
ENDROOT
BRANCH   1  23
ATOM     22  C   UNL     1      -2.881  12.648  22.949  0.00  0.00    +0.000 C 
ATOM     23  O   UNL     1      -1.457  12.737  22.917  0.00  0.00    +0.000 OA
ENDBRANCH   1  23
BRANCH  10  24
ATOM     24  O   UNL     1      -0.005  12.735  20.574  0.00  0.00    +0.000 OA
BRANCH  24  25
ATOM     25  C   UNL     1       1.064  13.651  20.727  0.00  0.00    +0.000 C 
ATOM     26  O   UNL     1       2.180  13.348  21.128  0.00  0.00    +0.000 OA
BRANCH  25  27
ATOM     27  C   UNL     1       0.630  15.046  20.242  0.00  0.00    +0.000 C 
ATOM     28  C   UNL     1       1.317  15.370  18.892  0.00  0.00    +0.000 C 
ATOM     29  C   UNL     1       0.978  16.796  18.433  0.00  0.00    +0.000 C 
ATOM     30  C   UNL     1      -0.540  16.917  18.227  0.00  0.00    +0.000 C 
ATOM     31  C   UNL     1      -1.271  16.596  19.541  0.00  0.00    +0.000 C 
ATOM     32  C   UNL     1      -0.830  17.618  20.604  0.00  0.00    +0.000 C 
ATOM     33  C   UNL     1       0.685  17.512  20.834  0.00  0.00    +0.000 C 
ATOM     34  C   UNL     1       1.428  17.790  19.517  0.00  0.00    +0.000 C 
ATOM     35  C   UNL     1       1.026  16.091  21.310  0.00  0.00    +0.000 C 
ATOM     36  C   UNL     1      -0.901  15.167  20.011  0.00  0.00    +0.000 C 
ENDBRANCH  25  27
ENDBRANCH  24  25
ENDBRANCH  10  24
TORSDOF 4
ENDMDL
MODEL 2
REMARK VINA RESULT:      -8.7      0.147      1.260
REMARK  Name = 
REMARK  5 active torsions:
REMARK  status: ('A' for Active; 'I' for Inactive)
REMARK    1  A    between atoms: C_1  and  O_2
REMARK    2  A    between atoms: O_2  and  C_3
REMARK    3  A    between atoms: C_12  and  O_13
REMARK    4  A    between atoms: O_13  and  C_14
REMARK    5  A    between atoms: C_14  and  C_16
REMARK                            x       y       z     vdW  Elec       q    Type
REMARK                         _______ _______ _______ _____ _____    ______ ____
ROOT
ATOM      1  C   UNL     1      -0.855  11.695  22.594  0.00  0.00    +0.000 A 
ATOM      2  C   UNL     1      -1.031  10.518  23.316  0.00  0.00    +0.000 A 
ATOM      3  C   UNL     1      -0.457   9.332  22.873  0.00  0.00    +0.000 A 
ATOM      4  C   UNL     1       0.285   9.292  21.690  0.00  0.00    +0.000 A 
ATOM      5  C   UNL     1       0.804   8.074  21.273  0.00  0.00    +0.000 A 
ATOM      6  C   UNL     1       1.561   7.969  20.102  0.00  0.00    +0.000 A 
ATOM      7  N   UNL     1       1.757   9.090  19.347  0.00  0.00    +0.000 N 
ATOM      8  C   UNL     1       1.243  10.295  19.731  0.00  0.00    +0.000 A 
ATOM      9  C   UNL     1       0.487  10.451  20.922  0.00  0.00    +0.000 A 
ATOM     10  C   UNL     1      -0.084  11.668  21.412  0.00  0.00    +0.000 A 
ATOM     11  C   UNL     1       2.628   9.041  18.138  0.00  0.00    +0.000 C 
ATOM     12  C   UNL     1       2.465   7.736  17.372  0.00  0.00    +0.000 C 
ATOM     13  C   UNL     1       2.601   6.558  18.295  0.00  0.00    +0.000 A 
ATOM     14  C   UNL     1       3.099   5.332  17.806  0.00  0.00    +0.000 A 
ATOM     15  C   UNL     1       3.128   4.253  18.664  0.00  0.00    +0.000 A 
ATOM     16  C   UNL     1       2.700   4.365  19.958  0.00  0.00    +0.000 A 
ATOM     17  C   UNL     1       2.222   5.555  20.467  0.00  0.00    +0.000 A 
ATOM     18  C   UNL     1       2.141   6.691  19.630  0.00  0.00    +0.000 A 
ATOM     19  O   UNL     1       2.786   3.193  20.640  0.00  0.00    +0.000 OA
ATOM     20  C   UNL     1       3.266   2.308  19.603  0.00  0.00    +0.000 C 
ATOM     21  O   UNL     1       3.545   2.997  18.363  0.00  0.00    +0.000 OA
ENDROOT
BRANCH   1  23
ATOM     22  C   UNL     1      -2.816  12.708  23.434  0.00  0.00    +0.000 C 
ATOM     23  O   UNL     1      -1.487  12.862  22.934  0.00  0.00    +0.000 OA
ENDBRANCH   1  23
BRANCH  10  24
ATOM     24  O   UNL     1      -0.007  12.842  20.609  0.00  0.00    +0.000 OA
BRANCH  24  25
ATOM     25  C   UNL     1       1.083  13.733  20.768  0.00  0.00    +0.000 C 
ATOM     26  O   UNL     1       2.179  13.410  21.207  0.00  0.00    +0.000 OA
BRANCH  25  27
ATOM     27  C   UNL     1       0.701  15.127  20.238  0.00  0.00    +0.000 C 
ATOM     28  C   UNL     1       1.134  16.212  21.255  0.00  0.00    +0.000 C 
ATOM     29  C   UNL     1       0.677  17.605  20.798  0.00  0.00    +0.000 C 
ATOM     30  C   UNL     1       1.335  17.938  19.450  0.00  0.00    +0.000 C 
ATOM     31  C   UNL     1       0.942  16.882  18.403  0.00  0.00    +0.000 C 
ATOM     32  C   UNL     1      -0.587  16.914  18.232  0.00  0.00    +0.000 C 
ATOM     33  C   UNL     1      -1.269  16.576  19.567  0.00  0.00    +0.000 C 
ATOM     34  C   UNL     1      -0.852  17.601  20.634  0.00  0.00    +0.000 C 
ATOM     35  C   UNL     1      -0.828  15.176  20.019  0.00  0.00    +0.000 C 
ATOM     36  C   UNL     1       1.381  15.478  18.887  0.00  0.00    +0.000 C 
ENDBRANCH  25  27
ENDBRANCH  24  25
ENDBRANCH  10  24
TORSDOF 4
ENDMDL
MODEL 3
REMARK VINA RESULT:      -8.5      0.916      1.498
REMARK  Name = 
REMARK  5 active torsions:
REMARK  status: ('A' for Active; 'I' for Inactive)
REMARK    1  A    between atoms: C_1  and  O_2
REMARK    2  A    between atoms: O_2  and  C_3
REMARK    3  A    between atoms: C_12  and  O_13
REMARK    4  A    between atoms: O_13  and  C_14
REMARK    5  A    between atoms: C_14  and  C_16
REMARK                            x       y       z     vdW  Elec       q    Type
REMARK                         _______ _______ _______ _____ _____    ______ ____
ROOT
ATOM      1  C   UNL     1      -0.690  12.308  21.912  0.00  0.00    +0.000 A 
ATOM      2  C   UNL     1      -0.943  11.332  22.871  0.00  0.00    +0.000 A 
ATOM      3  C   UNL     1      -0.460  10.040  22.700  0.00  0.00    +0.000 A 
ATOM      4  C   UNL     1       0.265   9.690  21.558  0.00  0.00    +0.000 A 
ATOM      5  C   UNL     1       0.691   8.376  21.419  0.00  0.00    +0.000 A 
ATOM      6  C   UNL     1       1.426   7.965  20.303  0.00  0.00    +0.000 A 
ATOM      7  N   UNL     1       1.694   8.878  19.323  0.00  0.00    +0.000 N 
ATOM      8  C   UNL     1       1.271  10.171  19.433  0.00  0.00    +0.000 A 
ATOM      9  C   UNL     1       0.542  10.637  20.557  0.00  0.00    +0.000 A 
ATOM     10  C   UNL     1       0.064  11.969  20.767  0.00  0.00    +0.000 A 
ATOM     11  C   UNL     1       2.546   8.505  18.159  0.00  0.00    +0.000 C 
ATOM     12  C   UNL     1       2.282   7.079  17.694  0.00  0.00    +0.000 C 
ATOM     13  C   UNL     1       2.343   6.123  18.852  0.00  0.00    +0.000 A 
ATOM     14  C   UNL     1       2.747   4.787  18.645  0.00  0.00    +0.000 A 
ATOM     15  C   UNL     1       2.708   3.922  19.716  0.00  0.00    +0.000 A 
ATOM     16  C   UNL     1       2.302   4.343  20.953  0.00  0.00    +0.000 A 
ATOM     17  C   UNL     1       1.916   5.646  21.188  0.00  0.00    +0.000 A 
ATOM     18  C   UNL     1       1.908   6.577  20.124  0.00  0.00    +0.000 A 
ATOM     19  O   UNL     1       2.310   3.344  21.875  0.00  0.00    +0.000 OA
ATOM     20  C   UNL     1       2.715   2.222  21.057  0.00  0.00    +0.000 C 
ATOM     21  O   UNL     1       3.030   2.603  19.699  0.00  0.00    +0.000 OA
ENDROOT
BRANCH   1  23
ATOM     22  C   UNL     1      -1.127  14.197  23.261  0.00  0.00    +0.000 C 
ATOM     23  O   UNL     1      -1.234  13.564  21.986  0.00  0.00    +0.000 OA
ENDBRANCH   1  23
BRANCH  10  24
ATOM     24  O   UNL     1       0.217  12.932  19.729  0.00  0.00    +0.000 OA
BRANCH  24  25
ATOM     25  C   UNL     1       1.385  13.733  19.678  0.00  0.00    +0.000 C 
ATOM     26  O   UNL     1       2.524  13.288  19.644  0.00  0.00    +0.000 OA
BRANCH  25  27
ATOM     27  C   UNL     1       0.995  15.219  19.595  0.00  0.00    +0.000 C 
ATOM     28  C   UNL     1      -0.484  15.351  19.156  0.00  0.00    +0.000 C 
ATOM     29  C   UNL     1      -0.872  16.825  18.970  0.00  0.00    +0.000 C 
ATOM     30  C   UNL     1      -0.714  17.565  20.308  0.00  0.00    +0.000 C 
ATOM     31  C   UNL     1       0.742  17.457  20.793  0.00  0.00    +0.000 C 
ATOM     32  C   UNL     1       1.653  18.121  19.747  0.00  0.00    +0.000 C 
ATOM     33  C   UNL     1       1.518  17.394  18.400  0.00  0.00    +0.000 C 
ATOM     34  C   UNL     1       0.058  17.458  17.922  0.00  0.00    +0.000 C 
ATOM     35  C   UNL     1       1.922  15.923  18.578  0.00  0.00    +0.000 C 
ATOM     36  C   UNL     1       1.132  15.967  20.950  0.00  0.00    +0.000 C 
ENDBRANCH  25  27
ENDBRANCH  24  25
ENDBRANCH  10  24
TORSDOF 4
ENDMDL
MODEL 4
REMARK VINA RESULT:      -8.3      1.150      1.855
REMARK  Name = 
REMARK  5 active torsions:
REMARK  status: ('A' for Active; 'I' for Inactive)
REMARK    1  A    between atoms: C_1  and  O_2
REMARK    2  A    between atoms: O_2  and  C_3
REMARK    3  A    between atoms: C_12  and  O_13
REMARK    4  A    between atoms: O_13  and  C_14
REMARK    5  A    between atoms: C_14  and  C_16
REMARK                            x       y       z     vdW  Elec       q    Type
REMARK                         _______ _______ _______ _____ _____    ______ ____
ROOT
ATOM      1  C   UNL     1      -0.556  12.371  21.209  0.00  0.00    +0.000 A 
ATOM      2  C   UNL     1      -0.862  11.494  22.245  0.00  0.00    +0.000 A 
ATOM      3  C   UNL     1      -0.399  10.184  22.214  0.00  0.00    +0.000 A 
ATOM      4  C   UNL     1       0.359   9.716  21.137  0.00  0.00    +0.000 A 
ATOM      5  C   UNL     1       0.763   8.388  21.137  0.00  0.00    +0.000 A 
ATOM      6  C   UNL     1       1.528   7.862  20.093  0.00  0.00    +0.000 A 
ATOM      7  N   UNL     1       1.849   8.674  19.042  0.00  0.00    +0.000 N 
ATOM      8  C   UNL     1       1.449   9.979  19.015  0.00  0.00    +0.000 A 
ATOM      9  C   UNL     1       0.690  10.560  20.063  0.00  0.00    +0.000 A 
ATOM     10  C   UNL     1       0.231  11.914  20.130  0.00  0.00    +0.000 A 
ATOM     11  C   UNL     1       2.735   8.179  17.950  0.00  0.00    +0.000 C 
ATOM     12  C   UNL     1       2.459   6.721  17.611  0.00  0.00    +0.000 C 
ATOM     13  C   UNL     1       2.459   5.876  18.855  0.00  0.00    +0.000 A 
ATOM     14  C   UNL     1       2.843   4.521  18.788  0.00  0.00    +0.000 A 
ATOM     15  C   UNL     1       2.749   3.761  19.933  0.00  0.00    +0.000 A 
ATOM     16  C   UNL     1       2.308   4.303  21.109  0.00  0.00    +0.000 A 
ATOM     17  C   UNL     1       1.940   5.629  21.208  0.00  0.00    +0.000 A 
ATOM     18  C   UNL     1       1.989   6.455  20.061  0.00  0.00    +0.000 A 
ATOM     19  O   UNL     1       2.264   3.395  22.120  0.00  0.00    +0.000 OA
ATOM     20  C   UNL     1       2.675   2.195  21.426  0.00  0.00    +0.000 C 
ATOM     21  O   UNL     1       3.045   2.441  20.051  0.00  0.00    +0.000 OA
ENDROOT
BRANCH   1  23
ATOM     22  C   UNL     1      -2.503  13.708  21.162  0.00  0.00    +0.000 C 
ATOM     23  O   UNL     1      -1.077  13.637  21.146  0.00  0.00    +0.000 OA
ENDBRANCH   1  23
BRANCH  10  24
ATOM     24  O   UNL     1       0.440  12.772  19.013  0.00  0.00    +0.000 OA
BRANCH  24  25
ATOM     25  C   UNL     1       1.624  13.546  18.932  0.00  0.00    +0.000 C 
ATOM     26  O   UNL     1       2.737  13.083  18.724  0.00  0.00    +0.000 OA
BRANCH  25  27
ATOM     27  C   UNL     1       1.282  15.040  19.065  0.00  0.00    +0.000 C 
ATOM     28  C   UNL     1       1.455  15.489  20.538  0.00  0.00    +0.000 C 
ATOM     29  C   UNL     1       1.026  16.952  20.718  0.00  0.00    +0.000 C 
ATOM     30  C   UNL     1       1.915  17.854  19.848  0.00  0.00    +0.000 C 
ATOM     31  C   UNL     1       1.785  17.443  18.371  0.00  0.00    +0.000 C 
ATOM     32  C   UNL     1       0.319  17.627  17.943  0.00  0.00    +0.000 C 
ATOM     33  C   UNL     1      -0.591  16.729  18.796  0.00  0.00    +0.000 C 
ATOM     34  C   UNL     1      -0.440  17.102  20.280  0.00  0.00    +0.000 C 
ATOM     35  C   UNL     1      -0.176  15.262  18.604  0.00  0.00    +0.000 C 
ATOM     36  C   UNL     1       2.192  15.958  18.204  0.00  0.00    +0.000 C 
ENDBRANCH  25  27
ENDBRANCH  24  25
ENDBRANCH  10  24
TORSDOF 4
ENDMDL
MODEL 5
REMARK VINA RESULT:      -8.3      0.815      1.607
REMARK  Name = 
REMARK  5 active torsions:
REMARK  status: ('A' for Active; 'I' for Inactive)
REMARK    1  A    between atoms: C_1  and  O_2
REMARK    2  A    between atoms: O_2  and  C_3
REMARK    3  A    between atoms: C_12  and  O_13
REMARK    4  A    between atoms: O_13  and  C_14
REMARK    5  A    between atoms: C_14  and  C_16
REMARK                            x       y       z     vdW  Elec       q    Type
REMARK                         _______ _______ _______ _____ _____    ______ ____
ROOT
ATOM      1  C   UNL     1      -1.105  12.269  22.708  0.00  0.00    +0.000 A 
ATOM      2  C   UNL     1      -1.300  11.096  23.430  0.00  0.00    +0.000 A 
ATOM      3  C   UNL     1      -0.724   9.906  23.003  0.00  0.00    +0.000 A 
ATOM      4  C   UNL     1       0.039   9.857  21.833  0.00  0.00    +0.000 A 
ATOM      5  C   UNL     1       0.558   8.635  21.429  0.00  0.00    +0.000 A 
ATOM      6  C   UNL     1       1.335   8.522  20.273  0.00  0.00    +0.000 A 
ATOM      7  N   UNL     1       1.550   9.639  19.517  0.00  0.00    +0.000 N 
ATOM      8  C   UNL     1       1.035  10.848  19.887  0.00  0.00    +0.000 A 
ATOM      9  C   UNL     1       0.260  11.013  21.064  0.00  0.00    +0.000 A 
ATOM     10  C   UNL     1      -0.314  12.234  21.539  0.00  0.00    +0.000 A 
ATOM     11  C   UNL     1       2.442   9.581  18.324  0.00  0.00    +0.000 C 
ATOM     12  C   UNL     1       2.286   8.274  17.560  0.00  0.00    +0.000 C 
ATOM     13  C   UNL     1       2.400   7.098  18.489  0.00  0.00    +0.000 A 
ATOM     14  C   UNL     1       2.900   5.868  18.014  0.00  0.00    +0.000 A 
ATOM     15  C   UNL     1       2.909   4.793  18.876  0.00  0.00    +0.000 A 
ATOM     16  C   UNL     1       2.458   4.912  20.162  0.00  0.00    +0.000 A 
ATOM     17  C   UNL     1       1.977   6.106  20.658  0.00  0.00    +0.000 A 
ATOM     18  C   UNL     1       1.917   7.240  19.816  0.00  0.00    +0.000 A 
ATOM     19  O   UNL     1       2.526   3.742  20.850  0.00  0.00    +0.000 OA
ATOM     20  C   UNL     1       3.020   2.850  19.825  0.00  0.00    +0.000 C 
ATOM     21  O   UNL     1       3.324   3.533  18.588  0.00  0.00    +0.000 OA
ENDROOT
BRANCH   1  23
ATOM     22  C   UNL     1      -3.160  13.415  22.912  0.00  0.00    +0.000 C 
ATOM     23  O   UNL     1      -1.737  13.441  23.032  0.00  0.00    +0.000 OA
ENDBRANCH   1  23
BRANCH  10  24
ATOM     24  O   UNL     1      -0.216  13.405  20.734  0.00  0.00    +0.000 OA
BRANCH  24  25
ATOM     25  C   UNL     1       0.819  14.341  20.975  0.00  0.00    +0.000 C 
ATOM     26  O   UNL     1       1.851  14.087  21.581  0.00  0.00    +0.000 OA
BRANCH  25  27
ATOM     27  C   UNL     1       0.479  15.682  20.300  0.00  0.00    +0.000 C 
ATOM     28  C   UNL     1      -0.748  16.323  20.995  0.00  0.00    +0.000 C 
ATOM     29  C   UNL     1      -1.170  17.615  20.279  0.00  0.00    +0.000 C 
ATOM     30  C   UNL     1      -0.016  18.628  20.338  0.00  0.00    +0.000 C 
ATOM     31  C   UNL     1       1.233  18.035  19.665  0.00  0.00    +0.000 C 
ATOM     32  C   UNL     1       0.900  17.744  18.192  0.00  0.00    +0.000 C 
ATOM     33  C   UNL     1      -0.248  16.726  18.106  0.00  0.00    +0.000 C 
ATOM     34  C   UNL     1      -1.493  17.291  18.811  0.00  0.00    +0.000 C 
ATOM     35  C   UNL     1       0.177  15.426  18.806  0.00  0.00    +0.000 C 
ATOM     36  C   UNL     1       1.634  16.718  20.376  0.00  0.00    +0.000 C 
ENDBRANCH  25  27
ENDBRANCH  24  25
ENDBRANCH  10  24
TORSDOF 4
ENDMDL
MODEL 6
REMARK VINA RESULT:      -8.2      2.651     10.309
REMARK  Name = 
REMARK  5 active torsions:
REMARK  status: ('A' for Active; 'I' for Inactive)
REMARK    1  A    between atoms: C_1  and  O_2
REMARK    2  A    between atoms: O_2  and  C_3
REMARK    3  A    between atoms: C_12  and  O_13
REMARK    4  A    between atoms: O_13  and  C_14
REMARK    5  A    between atoms: C_14  and  C_16
REMARK                            x       y       z     vdW  Elec       q    Type
REMARK                         _______ _______ _______ _____ _____    ______ ____
ROOT
ATOM      1  C   UNL     1       2.696   7.829  18.126  0.00  0.00    +0.000 A 
ATOM      2  C   UNL     1       2.315   8.900  17.324  0.00  0.00    +0.000 A 
ATOM      3  C   UNL     1       1.534   9.924  17.846  0.00  0.00    +0.000 A 
ATOM      4  C   UNL     1       1.097   9.889  19.173  0.00  0.00    +0.000 A 
ATOM      5  C   UNL     1       0.287  10.917  19.633  0.00  0.00    +0.000 A 
ATOM      6  C   UNL     1      -0.177  10.942  20.952  0.00  0.00    +0.000 A 
ATOM      7  N   UNL     1       0.155   9.909  21.782  0.00  0.00    +0.000 N 
ATOM      8  C   UNL     1       0.938   8.880  21.345  0.00  0.00    +0.000 A 
ATOM      9  C   UNL     1       1.448   8.825  20.022  0.00  0.00    +0.000 A 
ATOM     10  C   UNL     1       2.280   7.797  19.475  0.00  0.00    +0.000 A 
ATOM     11  C   UNL     1      -0.247   9.938  23.217  0.00  0.00    +0.000 C 
ATOM     12  C   UNL     1      -1.635  10.533  23.408  0.00  0.00    +0.000 C 
ATOM     13  C   UNL     1      -1.751  11.851  22.694  0.00  0.00    +0.000 A 
ATOM     14  C   UNL     1      -2.620  12.847  23.187  0.00  0.00    +0.000 A 
ATOM     15  C   UNL     1      -2.760  14.007  22.457  0.00  0.00    +0.000 A 
ATOM     16  C   UNL     1      -2.068  14.200  21.293  0.00  0.00    +0.000 A 
ATOM     17  C   UNL     1      -1.200  13.250  20.795  0.00  0.00    +0.000 A 
ATOM     18  C   UNL     1      -1.033  12.027  21.484  0.00  0.00    +0.000 A 
ATOM     19  O   UNL     1      -2.353  15.392  20.706  0.00  0.00    +0.000 OA
ATOM     20  C   UNL     1      -3.356  15.908  21.610  0.00  0.00    +0.000 C 
ATOM     21  O   UNL     1      -3.568  15.056  22.758  0.00  0.00    +0.000 OA
ENDROOT
BRANCH   1  23
ATOM     22  C   UNL     1       4.683   7.029  17.132  0.00  0.00    +0.000 C 
ATOM     23  O   UNL     1       3.374   6.747  17.628  0.00  0.00    +0.000 OA
ENDBRANCH   1  23
BRANCH  10  24
ATOM     24  O   UNL     1       2.563   6.643  20.260  0.00  0.00    +0.000 OA
BRANCH  24  25
ATOM     25  C   UNL     1       1.665   5.548  20.251  0.00  0.00    +0.000 C 
ATOM     26  O   UNL     1       0.516   5.595  20.669  0.00  0.00    +0.000 OA
BRANCH  25  27
ATOM     27  C   UNL     1       2.327   4.335  19.573  0.00  0.00    +0.000 C 
ATOM     28  C   UNL     1       3.868   4.463  19.658  0.00  0.00    +0.000 C 
ATOM     29  C   UNL     1       4.556   3.316  18.903  0.00  0.00    +0.000 C 
ATOM     30  C   UNL     1       4.162   1.977  19.546  0.00  0.00    +0.000 C 
ATOM     31  C   UNL     1       2.635   1.804  19.494  0.00  0.00    +0.000 C 
ATOM     32  C   UNL     1       2.196   1.796  18.020  0.00  0.00    +0.000 C 
ATOM     33  C   UNL     1       2.573   3.130  17.355  0.00  0.00    +0.000 C 
ATOM     34  C   UNL     1       4.095   3.335  17.436  0.00  0.00    +0.000 C 
ATOM     35  C   UNL     1       1.873   4.279  18.097  0.00  0.00    +0.000 C 
ATOM     36  C   UNL     1       1.950   2.980  20.233  0.00  0.00    +0.000 C 
ENDBRANCH  25  27
ENDBRANCH  24  25
ENDBRANCH  10  24
TORSDOF 4
ENDMDL
MODEL 7
REMARK VINA RESULT:      -8.1      1.246      1.876
REMARK  Name = 
REMARK  5 active torsions:
REMARK  status: ('A' for Active; 'I' for Inactive)
REMARK    1  A    between atoms: C_1  and  O_2
REMARK    2  A    between atoms: O_2  and  C_3
REMARK    3  A    between atoms: C_12  and  O_13
REMARK    4  A    between atoms: O_13  and  C_14
REMARK    5  A    between atoms: C_14  and  C_16
REMARK                            x       y       z     vdW  Elec       q    Type
REMARK                         _______ _______ _______ _____ _____    ______ ____
ROOT
ATOM      1  C   UNL     1      -1.088  11.686  22.810  0.00  0.00    +0.000 A 
ATOM      2  C   UNL     1      -1.211  10.457  23.451  0.00  0.00    +0.000 A 
ATOM      3  C   UNL     1      -0.569   9.334  22.942  0.00  0.00    +0.000 A 
ATOM      4  C   UNL     1       0.189   9.409  21.771  0.00  0.00    +0.000 A 
ATOM      5  C   UNL     1       0.776   8.250  21.285  0.00  0.00    +0.000 A 
ATOM      6  C   UNL     1       1.552   8.261  20.122  0.00  0.00    +0.000 A 
ATOM      7  N   UNL     1       1.698   9.438  19.443  0.00  0.00    +0.000 N 
ATOM      8  C   UNL     1       1.117  10.586  19.896  0.00  0.00    +0.000 A 
ATOM      9  C   UNL     1       0.339  10.625  21.083  0.00  0.00    +0.000 A 
ATOM     10  C   UNL     1      -0.302  11.777  21.640  0.00  0.00    +0.000 A 
ATOM     11  C   UNL     1       2.586   9.513  18.248  0.00  0.00    +0.000 C 
ATOM     12  C   UNL     1       2.501   8.253  17.397  0.00  0.00    +0.000 C 
ATOM     13  C   UNL     1       2.688   7.026  18.244  0.00  0.00    +0.000 A 
ATOM     14  C   UNL     1       3.256   5.862  17.686  0.00  0.00    +0.000 A 
ATOM     15  C   UNL     1       3.331   4.733  18.472  0.00  0.00    +0.000 A 
ATOM     16  C   UNL     1       2.881   4.738  19.764  0.00  0.00    +0.000 A 
ATOM     17  C   UNL     1       2.335   5.865  20.341  0.00  0.00    +0.000 A 
ATOM     18  C   UNL     1       2.205   7.048  19.578  0.00  0.00    +0.000 A 
ATOM     19  O   UNL     1       3.020   3.530  20.371  0.00  0.00    +0.000 OA
ATOM     20  C   UNL     1       3.559   2.740  19.286  0.00  0.00    +0.000 C 
ATOM     21  O   UNL     1       3.817   3.522  18.098  0.00  0.00    +0.000 OA
ENDROOT
BRANCH   1  23
ATOM     22  C   UNL     1      -3.166  12.571  23.500  0.00  0.00    +0.000 C 
ATOM     23  O   UNL     1      -1.785  12.795  23.214  0.00  0.00    +0.000 OA
ENDBRANCH   1  23
BRANCH  10  24
ATOM     24  O   UNL     1      -0.277  13.003  20.916  0.00  0.00    +0.000 OA
BRANCH  24  25
ATOM     25  C   UNL     1       0.442  14.110  21.432  0.00  0.00    +0.000 C 
ATOM     26  O   UNL     1       0.273  14.581  22.549  0.00  0.00    +0.000 OA
BRANCH  25  27
ATOM     27  C   UNL     1       1.501  14.566  20.413  0.00  0.00    +0.000 C 
ATOM     28  C   UNL     1       2.875  13.948  20.773  0.00  0.00    +0.000 C 
ATOM     29  C   UNL     1       3.971  14.464  19.829  0.00  0.00    +0.000 C 
ATOM     30  C   UNL     1       3.637  14.052  18.387  0.00  0.00    +0.000 C 
ATOM     31  C   UNL     1       2.273  14.636  17.983  0.00  0.00    +0.000 C 
ATOM     32  C   UNL     1       2.360  16.170  18.054  0.00  0.00    +0.000 C 
ATOM     33  C   UNL     1       2.687  16.608  19.490  0.00  0.00    +0.000 C 
ATOM     34  C   UNL     1       4.031  15.998  19.923  0.00  0.00    +0.000 C 
ATOM     35  C   UNL     1       1.584  16.109  20.434  0.00  0.00    +0.000 C 
ATOM     36  C   UNL     1       1.178  14.132  18.956  0.00  0.00    +0.000 C 
ENDBRANCH  25  27
ENDBRANCH  24  25
ENDBRANCH  10  24
TORSDOF 4
ENDMDL
MODEL 8
REMARK VINA RESULT:      -8.0      2.657     10.301
REMARK  Name = 
REMARK  5 active torsions:
REMARK  status: ('A' for Active; 'I' for Inactive)
REMARK    1  A    between atoms: C_1  and  O_2
REMARK    2  A    between atoms: O_2  and  C_3
REMARK    3  A    between atoms: C_12  and  O_13
REMARK    4  A    between atoms: O_13  and  C_14
REMARK    5  A    between atoms: C_14  and  C_16
REMARK                            x       y       z     vdW  Elec       q    Type
REMARK                         _______ _______ _______ _____ _____    ______ ____
ROOT
ATOM      1  C   UNL     1       2.672   7.852  18.136  0.00  0.00    +0.000 A 
ATOM      2  C   UNL     1       2.287   8.914  17.324  0.00  0.00    +0.000 A 
ATOM      3  C   UNL     1       1.504   9.941  17.838  0.00  0.00    +0.000 A 
ATOM      4  C   UNL     1       1.068   9.916  19.165  0.00  0.00    +0.000 A 
ATOM      5  C   UNL     1       0.255  10.945  19.616  0.00  0.00    +0.000 A 
ATOM      6  C   UNL     1      -0.208  10.981  20.935  0.00  0.00    +0.000 A 
ATOM      7  N   UNL     1       0.128   9.957  21.775  0.00  0.00    +0.000 N 
ATOM      8  C   UNL     1       0.914   8.927  21.347  0.00  0.00    +0.000 A 
ATOM      9  C   UNL     1       1.423   8.862  20.024  0.00  0.00    +0.000 A 
ATOM     10  C   UNL     1       2.258   7.832  19.485  0.00  0.00    +0.000 A 
ATOM     11  C   UNL     1      -0.273   9.999  23.210  0.00  0.00    +0.000 C 
ATOM     12  C   UNL     1      -1.663  10.591  23.396  0.00  0.00    +0.000 C 
ATOM     13  C   UNL     1      -1.784  11.901  22.670  0.00  0.00    +0.000 A 
ATOM     14  C   UNL     1      -2.656  12.899  23.154  0.00  0.00    +0.000 A 
ATOM     15  C   UNL     1      -2.801  14.052  22.414  0.00  0.00    +0.000 A 
ATOM     16  C   UNL     1      -2.111  14.236  21.247  0.00  0.00    +0.000 A 
ATOM     17  C   UNL     1      -1.240  13.284  20.758  0.00  0.00    +0.000 A 
ATOM     18  C   UNL     1      -1.067  12.068  21.458  0.00  0.00    +0.000 A 
ATOM     19  O   UNL     1      -2.400  15.422  20.650  0.00  0.00    +0.000 OA
ATOM     20  C   UNL     1      -3.404  15.943  21.550  0.00  0.00    +0.000 C 
ATOM     21  O   UNL     1      -3.612  15.100  22.706  0.00  0.00    +0.000 OA
ENDROOT
BRANCH   1  23
ATOM     22  C   UNL     1       4.603   7.069  17.024  0.00  0.00    +0.000 C 
ATOM     23  O   UNL     1       3.355   6.768  17.648  0.00  0.00    +0.000 OA
ENDBRANCH   1  23
BRANCH  10  24
ATOM     24  O   UNL     1       2.546   6.686  20.281  0.00  0.00    +0.000 OA
BRANCH  24  25
ATOM     25  C   UNL     1       1.662   5.579  20.267  0.00  0.00    +0.000 C 
ATOM     26  O   UNL     1       0.525   5.599  20.716  0.00  0.00    +0.000 OA
BRANCH  25  27
ATOM     27  C   UNL     1       2.322   4.394  19.539  0.00  0.00    +0.000 C 
ATOM     28  C   UNL     1       1.909   3.065  20.219  0.00  0.00    +0.000 C 
ATOM     29  C   UNL     1       2.630   1.872  19.574  0.00  0.00    +0.000 C 
ATOM     30  C   UNL     1       2.236   1.781  18.092  0.00  0.00    +0.000 C 
ATOM     31  C   UNL     1       2.619   3.084  17.370  0.00  0.00    +0.000 C 
ATOM     32  C   UNL     1       4.143   3.265  17.469  0.00  0.00    +0.000 C 
ATOM     33  C   UNL     1       4.563   3.366  18.944  0.00  0.00    +0.000 C 
ATOM     34  C   UNL     1       4.149   2.085  19.688  0.00  0.00    +0.000 C 
ATOM     35  C   UNL     1       3.857   4.568  19.588  0.00  0.00    +0.000 C 
ATOM     36  C   UNL     1       1.909   4.284  18.045  0.00  0.00    +0.000 C 
ENDBRANCH  25  27
ENDBRANCH  24  25
ENDBRANCH  10  24
TORSDOF 4
ENDMDL
MODEL 9
REMARK VINA RESULT:      -8.0      2.671     10.326
REMARK  Name = 
REMARK  5 active torsions:
REMARK  status: ('A' for Active; 'I' for Inactive)
REMARK    1  A    between atoms: C_1  and  O_2
REMARK    2  A    between atoms: O_2  and  C_3
REMARK    3  A    between atoms: C_12  and  O_13
REMARK    4  A    between atoms: O_13  and  C_14
REMARK    5  A    between atoms: C_14  and  C_16
REMARK                            x       y       z     vdW  Elec       q    Type
REMARK                         _______ _______ _______ _____ _____    ______ ____
ROOT
ATOM      1  C   UNL     1       2.653   7.860  18.166  0.00  0.00    +0.000 A 
ATOM      2  C   UNL     1       2.269   8.919  17.349  0.00  0.00    +0.000 A 
ATOM      3  C   UNL     1       1.482   9.946  17.857  0.00  0.00    +0.000 A 
ATOM      4  C   UNL     1       1.043   9.925  19.183  0.00  0.00    +0.000 A 
ATOM      5  C   UNL     1       0.226  10.955  19.629  0.00  0.00    +0.000 A 
ATOM      6  C   UNL     1      -0.240  10.995  20.946  0.00  0.00    +0.000 A 
ATOM      7  N   UNL     1       0.095   9.975  21.790  0.00  0.00    +0.000 N 
ATOM      8  C   UNL     1       0.884   8.944  21.368  0.00  0.00    +0.000 A 
ATOM      9  C   UNL     1       1.398   8.875  20.047  0.00  0.00    +0.000 A 
ATOM     10  C   UNL     1       2.235   7.844  19.514  0.00  0.00    +0.000 A 
ATOM     11  C   UNL     1      -0.309  10.020  23.224  0.00  0.00    +0.000 C 
ATOM     12  C   UNL     1      -1.700  10.610  23.405  0.00  0.00    +0.000 C 
ATOM     13  C   UNL     1      -1.822  11.918  22.674  0.00  0.00    +0.000 A 
ATOM     14  C   UNL     1      -2.697  12.916  23.152  0.00  0.00    +0.000 A 
ATOM     15  C   UNL     1      -2.842  14.066  22.407  0.00  0.00    +0.000 A 
ATOM     16  C   UNL     1      -2.149  14.247  21.241  0.00  0.00    +0.000 A 
ATOM     17  C   UNL     1      -1.275  13.295  20.758  0.00  0.00    +0.000 A 
ATOM     18  C   UNL     1      -1.103  12.082  21.462  0.00  0.00    +0.000 A 
ATOM     19  O   UNL     1      -2.439  15.430  20.639  0.00  0.00    +0.000 OA
ATOM     20  C   UNL     1      -3.446  15.953  21.535  0.00  0.00    +0.000 C 
ATOM     21  O   UNL     1      -3.655  15.114  22.693  0.00  0.00    +0.000 OA
ENDROOT
BRANCH   1  23
ATOM     22  C   UNL     1       4.594   7.075  17.073  0.00  0.00    +0.000 C 
ATOM     23  O   UNL     1       3.339   6.776  17.683  0.00  0.00    +0.000 OA
ENDBRANCH   1  23
BRANCH  10  24
ATOM     24  O   UNL     1       2.523   6.702  20.315  0.00  0.00    +0.000 OA
BRANCH  24  25
ATOM     25  C   UNL     1       1.656   5.583  20.282  0.00  0.00    +0.000 C 
ATOM     26  O   UNL     1       0.499   5.594  20.682  0.00  0.00    +0.000 OA
BRANCH  25  27
ATOM     27  C   UNL     1       2.361   4.395  19.603  0.00  0.00    +0.000 C 
ATOM     28  C   UNL     1       1.910   4.292  18.125  0.00  0.00    +0.000 C 
ATOM     29  C   UNL     1       2.524   3.056  17.450  0.00  0.00    +0.000 C 
ATOM     30  C   UNL     1       4.055   3.178  17.464  0.00  0.00    +0.000 C 
ATOM     31  C   UNL     1       4.555   3.291  18.913  0.00  0.00    +0.000 C 
ATOM     32  C   UNL     1       4.151   2.014  19.669  0.00  0.00    +0.000 C 
ATOM     33  C   UNL     1       2.621   1.873  19.675  0.00  0.00    +0.000 C 
ATOM     34  C   UNL     1       2.103   1.799  18.229  0.00  0.00    +0.000 C 
ATOM     35  C   UNL     1       2.004   3.099  20.366  0.00  0.00    +0.000 C 
ATOM     36  C   UNL     1       3.909   4.524  19.594  0.00  0.00    +0.000 C 
ENDBRANCH  25  27
ENDBRANCH  24  25
ENDBRANCH  10  24
TORSDOF 4
ENDMDL
