MODEL 1
REMARK VINA RESULT:      -6.4      0.000      0.000
REMARK  Name = 
REMARK  10 active torsions:
REMARK  status: ('A' for Active; 'I' for Inactive)
REMARK    1  A    between atoms: C_1  and  O_2
REMARK    2  A    between atoms: O_2  and  C_3
REMARK    3  A    between atoms: C_3  and  C_5
REMARK    4  A    between atoms: C_6  and  C_7
REMARK    5  A    between atoms: C_9  and  C_10
REMARK    6  A    between atoms: C_11  and  C_12
REMARK    7  A    between atoms: C_12  and  O_14
REMARK    8  A    between atoms: O_14  and  C_15
REMARK    9  A    between atoms: C_16  and  C_17
REMARK   10  A    between atoms: C_21  and  C_22
REMARK                            x       y       z     vdW  Elec       q    Type
REMARK                         _______ _______ _______ _____ _____    ______ ____
ROOT
ATOM      1  C   UNL     1      -0.429  10.328  19.521  0.00  0.00    +0.000 C 
ATOM      2  C   UNL     1       0.163   9.823  18.413  0.00  0.00    +0.000 C 
ATOM      3  C   UNL     1       1.512   9.147  18.331  0.00  0.00    +0.000 C 
ATOM      4  N   UNL     1      -0.499   9.891  17.191  0.00  0.00    +0.000 N 
ATOM      5  C   UNL     1      -1.847  10.177  17.049  0.00  0.00    +0.000 C 
ATOM      6  C   UNL     1      -2.466   9.781  15.731  0.00  0.00    +0.000 C 
ATOM      7  C   UNL     1      -2.526  10.709  18.091  0.00  0.00    +0.000 C 
ATOM      8  C   UNL     1      -1.799  11.026  19.402  0.00  0.00    +0.000 C 
ATOM      9  H   UNL     1      -0.049   9.418  16.411  0.00  0.00    +0.000 HD
ENDROOT
BRANCH   8  10
ATOM     10  C   UNL     1      -1.624  12.530  19.569  0.00  0.00    +0.000 A 
ATOM     11  C   UNL     1      -0.746  13.323  18.843  0.00  0.00    +0.000 A 
ATOM     12  N   UNL     1      -0.896  14.590  19.298  0.00  0.00    +0.000 N 
ATOM     13  N   UNL     1      -1.775  14.695  20.295  0.00  0.00    +0.000 NA
ATOM     14  C   UNL     1      -2.294  13.465  20.444  0.00  0.00    +0.000 A 
ATOM     15  H   UNL     1      -0.426  15.432  18.978  0.00  0.00    +0.000 HD
BRANCH  14  16
ATOM     16  C   UNL     1      -3.401  13.235  21.388  0.00  0.00    +0.000 A 
ATOM     17  C   UNL     1      -4.724  13.362  20.930  0.00  0.00    +0.000 A 
ATOM     18  C   UNL     1      -5.807  13.333  21.813  0.00  0.00    +0.000 A 
ATOM     19  C   UNL     1      -5.590  13.083  23.160  0.00  0.00    +0.000 A 
ATOM     20 CL   UNL     1      -6.918  13.066  24.252  0.00  0.00    +0.000 Cl
ATOM     21  C   UNL     1      -4.302  12.850  23.629  0.00  0.00    +0.000 A 
ATOM     22  C   UNL     1      -3.207  12.941  22.754  0.00  0.00    +0.000 A 
ATOM     23 CL   UNL     1      -1.652  12.716  23.489  0.00  0.00    +0.000 Cl
ENDBRANCH  14  16
ENDBRANCH   8  10
BRANCH   1  24
ATOM     24  C   UNL     1       0.219  10.300  20.861  0.00  0.00    +0.000 C 
ATOM     25  O   UNL     1       0.977  11.149  21.300  0.00  0.00    +0.000 OA
BRANCH  24  27
ATOM     26  C   UNL     1      -0.556   9.397  22.884  0.00  0.00    +0.000 C 
ATOM     27  O   UNL     1      -0.136   9.170  21.535  0.00  0.00    +0.000 OA
ENDBRANCH  24  27
ENDBRANCH   1  24
BRANCH   7  28
ATOM     28  C   UNL     1      -4.001  10.863  18.123  0.00  0.00    +0.000 C 
ATOM     29  O   UNL     1      -4.755   9.973  18.490  0.00  0.00    +0.000 OA
BRANCH  28  30
ATOM     30  O   UNL     1      -4.400  12.087  17.701  0.00  0.00    +0.000 OA
ATOM     31  C   UNL     1      -5.775  12.175  17.319  0.00  0.00    +0.000 C 
ENDBRANCH  28  30
ENDBRANCH   7  28
TORSDOF 6
ENDMDL
MODEL 2
REMARK VINA RESULT:      -6.1      1.219      1.626
REMARK  Name = 
REMARK  10 active torsions:
REMARK  status: ('A' for Active; 'I' for Inactive)
REMARK    1  A    between atoms: C_1  and  O_2
REMARK    2  A    between atoms: O_2  and  C_3
REMARK    3  A    between atoms: C_3  and  C_5
REMARK    4  A    between atoms: C_6  and  C_7
REMARK    5  A    between atoms: C_9  and  C_10
REMARK    6  A    between atoms: C_11  and  C_12
REMARK    7  A    between atoms: C_12  and  O_14
REMARK    8  A    between atoms: O_14  and  C_15
REMARK    9  A    between atoms: C_16  and  C_17
REMARK   10  A    between atoms: C_21  and  C_22
REMARK                            x       y       z     vdW  Elec       q    Type
REMARK                         _______ _______ _______ _____ _____    ______ ____
ROOT
ATOM      1  C   UNL     1      -0.713  10.773  19.675  0.00  0.00    +0.000 C 
ATOM      2  C   UNL     1      -0.177  10.254  18.544  0.00  0.00    +0.000 C 
ATOM      3  C   UNL     1       1.127   9.502  18.418  0.00  0.00    +0.000 C 
ATOM      4  N   UNL     1      -0.862  10.384  17.340  0.00  0.00    +0.000 N 
ATOM      5  C   UNL     1      -2.194  10.752  17.235  0.00  0.00    +0.000 C 
ATOM      6  C   UNL     1      -2.865  10.417  15.926  0.00  0.00    +0.000 C 
ATOM      7  C   UNL     1      -2.815  11.303  18.302  0.00  0.00    +0.000 C 
ATOM      8  C   UNL     1      -2.042  11.553  19.601  0.00  0.00    +0.000 C 
ATOM      9  H   UNL     1      -0.459   9.900  16.541  0.00  0.00    +0.000 HD
ENDROOT
BRANCH   8  10
ATOM     10  C   UNL     1      -1.773  13.040  19.788  0.00  0.00    +0.000 A 
ATOM     11  C   UNL     1      -0.850  13.789  19.071  0.00  0.00    +0.000 A 
ATOM     12  N   UNL     1      -0.920  15.056  19.544  0.00  0.00    +0.000 N 
ATOM     13  N   UNL     1      -1.788  15.199  20.546  0.00  0.00    +0.000 NA
ATOM     14  C   UNL     1      -2.381  14.002  20.680  0.00  0.00    +0.000 A 
ATOM     15  H   UNL     1      -0.401  15.872  19.235  0.00  0.00    +0.000 HD
BRANCH  14  16
ATOM     16  C   UNL     1      -3.497  13.826  21.625  0.00  0.00    +0.000 A 
ATOM     17  C   UNL     1      -3.322  12.984  22.736  0.00  0.00    +0.000 A 
ATOM     18  C   UNL     1      -4.394  12.637  23.564  0.00  0.00    +0.000 A 
ATOM     19  C   UNL     1      -5.641  13.204  23.349  0.00  0.00    +0.000 A 
ATOM     20 CL   UNL     1      -6.966  12.766  24.354  0.00  0.00    +0.000 Cl
ATOM     21  C   UNL     1      -5.823  14.123  22.321  0.00  0.00    +0.000 A 
ATOM     22  C   UNL     1      -4.764  14.423  21.450  0.00  0.00    +0.000 A 
ATOM     23 CL   UNL     1      -5.154  15.515  20.159  0.00  0.00    +0.000 Cl
ENDBRANCH  14  16
ENDBRANCH   8  10
BRANCH   1  24
ATOM     24  C   UNL     1      -0.037  10.682  20.998  0.00  0.00    +0.000 C 
ATOM     25  O   UNL     1       0.821  11.445  21.410  0.00  0.00    +0.000 OA
BRANCH  24  27
ATOM     26  C   UNL     1      -0.312   9.690  23.107  0.00  0.00    +0.000 C 
ATOM     27  O   UNL     1      -0.496   9.602  21.691  0.00  0.00    +0.000 OA
ENDBRANCH  24  27
ENDBRANCH   1  24
BRANCH   7  28
ATOM     28  C   UNL     1      -4.277  11.544  18.372  0.00  0.00    +0.000 C 
ATOM     29  O   UNL     1      -4.770  12.662  18.338  0.00  0.00    +0.000 OA
BRANCH  28  30
ATOM     30  O   UNL     1      -4.985  10.393  18.479  0.00  0.00    +0.000 OA
ATOM     31  C   UNL     1      -6.397  10.563  18.623  0.00  0.00    +0.000 C 
ENDBRANCH  28  30
ENDBRANCH   7  28
TORSDOF 6
ENDMDL
MODEL 3
REMARK VINA RESULT:      -5.9      2.482      6.157
REMARK  Name = 
REMARK  10 active torsions:
REMARK  status: ('A' for Active; 'I' for Inactive)
REMARK    1  A    between atoms: C_1  and  O_2
REMARK    2  A    between atoms: O_2  and  C_3
REMARK    3  A    between atoms: C_3  and  C_5
REMARK    4  A    between atoms: C_6  and  C_7
REMARK    5  A    between atoms: C_9  and  C_10
REMARK    6  A    between atoms: C_11  and  C_12
REMARK    7  A    between atoms: C_12  and  O_14
REMARK    8  A    between atoms: O_14  and  C_15
REMARK    9  A    between atoms: C_16  and  C_17
REMARK   10  A    between atoms: C_21  and  C_22
REMARK                            x       y       z     vdW  Elec       q    Type
REMARK                         _______ _______ _______ _____ _____    ______ ____
ROOT
ATOM      1  C   UNL     1      -3.043  11.518  18.770  0.00  0.00    +0.000 C 
ATOM      2  C   UNL     1      -4.198  12.219  18.679  0.00  0.00    +0.000 C 
ATOM      3  C   UNL     1      -5.255  12.094  17.606  0.00  0.00    +0.000 C 
ATOM      4  N   UNL     1      -4.509  13.157  19.658  0.00  0.00    +0.000 N 
ATOM      5  C   UNL     1      -3.873  13.244  20.886  0.00  0.00    +0.000 C 
ATOM      6  C   UNL     1      -4.616  14.005  21.956  0.00  0.00    +0.000 C 
ATOM      7  C   UNL     1      -2.698  12.601  21.070  0.00  0.00    +0.000 C 
ATOM      8  C   UNL     1      -2.059  11.816  19.920  0.00  0.00    +0.000 C 
ATOM      9  H   UNL     1      -5.428  13.589  19.590  0.00  0.00    +0.000 HD
ENDROOT
BRANCH   8  10
ATOM     10  C   UNL     1      -0.843  12.554  19.376  0.00  0.00    +0.000 A 
ATOM     11  C   UNL     1      -0.759  13.924  19.170  0.00  0.00    +0.000 A 
ATOM     12  N   UNL     1       0.478  14.171  18.676  0.00  0.00    +0.000 N 
ATOM     13  N   UNL     1       1.208  13.069  18.501  0.00  0.00    +0.000 NA
ATOM     14  C   UNL     1       0.459  12.064  18.983  0.00  0.00    +0.000 A 
ATOM     15  H   UNL     1       0.890  15.066  18.430  0.00  0.00    +0.000 HD
BRANCH  14  16
ATOM     16  C   UNL     1       1.008  10.699  19.064  0.00  0.00    +0.000 A 
ATOM     17  C   UNL     1       1.451  10.073  17.887  0.00  0.00    +0.000 A 
ATOM     18  C   UNL     1       1.812   8.723  17.870  0.00  0.00    +0.000 A 
ATOM     19  C   UNL     1       1.825   8.000  19.055  0.00  0.00    +0.000 A 
ATOM     20 CL   UNL     1       2.251   6.334  19.035  0.00  0.00    +0.000 Cl
ATOM     21  C   UNL     1       1.492   8.618  20.254  0.00  0.00    +0.000 A 
ATOM     22  C   UNL     1       1.069   9.957  20.262  0.00  0.00    +0.000 A 
ATOM     23 CL   UNL     1       0.597  10.575  21.813  0.00  0.00    +0.000 Cl
ENDBRANCH  14  16
ENDBRANCH   8  10
BRANCH   1  24
ATOM     24  C   UNL     1      -2.638  10.505  17.758  0.00  0.00    +0.000 C 
ATOM     25  O   UNL     1      -2.688   9.295  17.907  0.00  0.00    +0.000 OA
BRANCH  24  27
ATOM     26  C   UNL     1      -2.754  10.633  15.417  0.00  0.00    +0.000 C 
ATOM     27  O   UNL     1      -2.174  11.117  16.633  0.00  0.00    +0.000 OA
ENDBRANCH  24  27
ENDBRANCH   1  24
BRANCH   7  28
ATOM     28  C   UNL     1      -2.036  12.454  22.390  0.00  0.00    +0.000 C 
ATOM     29  O   UNL     1      -2.304  11.553  23.173  0.00  0.00    +0.000 OA
BRANCH  28  30
ATOM     30  O   UNL     1      -1.117  13.424  22.617  0.00  0.00    +0.000 OA
ATOM     31  C   UNL     1      -1.344  14.209  23.790  0.00  0.00    +0.000 C 
ENDBRANCH  28  30
ENDBRANCH   7  28
TORSDOF 6
ENDMDL
MODEL 4
REMARK VINA RESULT:      -5.8      3.022      6.450
REMARK  Name = 
REMARK  10 active torsions:
REMARK  status: ('A' for Active; 'I' for Inactive)
REMARK    1  A    between atoms: C_1  and  O_2
REMARK    2  A    between atoms: O_2  and  C_3
REMARK    3  A    between atoms: C_3  and  C_5
REMARK    4  A    between atoms: C_6  and  C_7
REMARK    5  A    between atoms: C_9  and  C_10
REMARK    6  A    between atoms: C_11  and  C_12
REMARK    7  A    between atoms: C_12  and  O_14
REMARK    8  A    between atoms: O_14  and  C_15
REMARK    9  A    between atoms: C_16  and  C_17
REMARK   10  A    between atoms: C_21  and  C_22
REMARK                            x       y       z     vdW  Elec       q    Type
REMARK                         _______ _______ _______ _____ _____    ______ ____
ROOT
ATOM      1  C   UNL     1      -5.664  12.806  20.208  0.00  0.00    +0.000 C 
ATOM      2  C   UNL     1      -6.807  13.518  20.348  0.00  0.00    +0.000 C 
ATOM      3  C   UNL     1      -7.915  13.669  19.333  0.00  0.00    +0.000 C 
ATOM      4  N   UNL     1      -7.051  14.194  21.540  0.00  0.00    +0.000 N 
ATOM      5  C   UNL     1      -6.356  13.973  22.719  0.00  0.00    +0.000 C 
ATOM      6  C   UNL     1      -7.031  14.458  23.977  0.00  0.00    +0.000 C 
ATOM      7  C   UNL     1      -5.188  13.293  22.682  0.00  0.00    +0.000 C 
ATOM      8  C   UNL     1      -4.621  12.805  21.344  0.00  0.00    +0.000 C 
ATOM      9  H   UNL     1      -7.962  14.638  21.625  0.00  0.00    +0.000 HD
ENDROOT
BRANCH   8  10
ATOM     10  C   UNL     1      -3.416  13.642  20.935  0.00  0.00    +0.000 A 
ATOM     11  C   UNL     1      -3.416  15.018  20.751  0.00  0.00    +0.000 A 
ATOM     12  N   UNL     1      -2.158  15.365  20.389  0.00  0.00    +0.000 N 
ATOM     13  N   UNL     1      -1.333  14.324  20.279  0.00  0.00    +0.000 NA
ATOM     14  C   UNL     1      -2.048  13.257  20.672  0.00  0.00    +0.000 A 
ATOM     15  H   UNL     1      -1.793  16.293  20.196  0.00  0.00    +0.000 HD
BRANCH  14  16
ATOM     16  C   UNL     1      -1.407  11.936  20.795  0.00  0.00    +0.000 A 
ATOM     17  C   UNL     1      -1.038  11.475  22.069  0.00  0.00    +0.000 A 
ATOM     18  C   UNL     1      -0.270  10.319  22.232  0.00  0.00    +0.000 A 
ATOM     19  C   UNL     1       0.063   9.552  21.124  0.00  0.00    +0.000 A 
ATOM     20 CL   UNL     1       1.024   8.139  21.319  0.00  0.00    +0.000 Cl
ATOM     21  C   UNL     1      -0.375   9.926  19.859  0.00  0.00    +0.000 A 
ATOM     22  C   UNL     1      -1.093  11.120  19.687  0.00  0.00    +0.000 A 
ATOM     23 CL   UNL     1      -1.499  11.511  18.046  0.00  0.00    +0.000 Cl
ENDBRANCH  14  16
ENDBRANCH   8  10
BRANCH   1  24
ATOM     24  C   UNL     1      -5.328  12.065  18.961  0.00  0.00    +0.000 C 
ATOM     25  O   UNL     1      -4.978  12.570  17.908  0.00  0.00    +0.000 OA
BRANCH  24  27
ATOM     26  C   UNL     1      -6.793  10.236  18.817  0.00  0.00    +0.000 C 
ATOM     27  O   UNL     1      -5.489  10.724  19.149  0.00  0.00    +0.000 OA
ENDBRANCH  24  27
ENDBRANCH   1  24
BRANCH   7  28
ATOM     28  C   UNL     1      -4.468  12.823  23.891  0.00  0.00    +0.000 C 
ATOM     29  O   UNL     1      -4.903  11.948  24.626  0.00  0.00    +0.000 OA
BRANCH  28  30
ATOM     30  O   UNL     1      -3.293  13.472  24.076  0.00  0.00    +0.000 OA
ATOM     31  C   UNL     1      -3.401  14.743  24.724  0.00  0.00    +0.000 C 
ENDBRANCH  28  30
ENDBRANCH   7  28
TORSDOF 6
ENDMDL
MODEL 5
REMARK VINA RESULT:      -5.8      2.333      5.860
REMARK  Name = 
REMARK  10 active torsions:
REMARK  status: ('A' for Active; 'I' for Inactive)
REMARK    1  A    between atoms: C_1  and  O_2
REMARK    2  A    between atoms: O_2  and  C_3
REMARK    3  A    between atoms: C_3  and  C_5
REMARK    4  A    between atoms: C_6  and  C_7
REMARK    5  A    between atoms: C_9  and  C_10
REMARK    6  A    between atoms: C_11  and  C_12
REMARK    7  A    between atoms: C_12  and  O_14
REMARK    8  A    between atoms: O_14  and  C_15
REMARK    9  A    between atoms: C_16  and  C_17
REMARK   10  A    between atoms: C_21  and  C_22
REMARK                            x       y       z     vdW  Elec       q    Type
REMARK                         _______ _______ _______ _____ _____    ______ ____
ROOT
ATOM      1  C   UNL     1      -3.402  11.718  18.784  0.00  0.00    +0.000 C 
ATOM      2  C   UNL     1      -4.560  12.338  18.455  0.00  0.00    +0.000 C 
ATOM      3  C   UNL     1      -5.422  12.070  17.243  0.00  0.00    +0.000 C 
ATOM      4  N   UNL     1      -5.070  13.326  19.291  0.00  0.00    +0.000 N 
ATOM      5  C   UNL     1      -4.646  13.542  20.592  0.00  0.00    +0.000 C 
ATOM      6  C   UNL     1      -5.587  14.334  21.465  0.00  0.00    +0.000 C 
ATOM      7  C   UNL     1      -3.486  12.987  21.013  0.00  0.00    +0.000 C 
ATOM      8  C   UNL     1      -2.633  12.159  20.046  0.00  0.00    +0.000 C 
ATOM      9  H   UNL     1      -5.985  13.695  19.043  0.00  0.00    +0.000 HD
ENDROOT
BRANCH   8  10
ATOM     10  C   UNL     1      -1.382  12.927  19.641  0.00  0.00    +0.000 A 
ATOM     11  C   UNL     1      -1.320  14.292  19.393  0.00  0.00    +0.000 A 
ATOM     12  N   UNL     1      -0.036  14.572  19.061  0.00  0.00    +0.000 N 
ATOM     13  N   UNL     1       0.749  13.495  19.030  0.00  0.00    +0.000 NA
ATOM     14  C   UNL     1      -0.022  12.477  19.447  0.00  0.00    +0.000 A 
ATOM     15  H   UNL     1       0.372  15.474  18.837  0.00  0.00    +0.000 HD
BRANCH  14  16
ATOM     16  C   UNL     1       0.560  11.140  19.656  0.00  0.00    +0.000 A 
ATOM     17  C   UNL     1       1.151  10.477  18.567  0.00  0.00    +0.000 A 
ATOM     18  C   UNL     1       1.557   9.143  18.658  0.00  0.00    +0.000 A 
ATOM     19  C   UNL     1       1.463   8.477  19.872  0.00  0.00    +0.000 A 
ATOM     20 CL   UNL     1       1.944   6.830  19.983  0.00  0.00    +0.000 Cl
ATOM     21  C   UNL     1       0.979   9.137  20.995  0.00  0.00    +0.000 A 
ATOM     22  C   UNL     1       0.513  10.457  20.890  0.00  0.00    +0.000 A 
ATOM     23 CL   UNL     1      -0.148  11.128  22.347  0.00  0.00    +0.000 Cl
ENDBRANCH  14  16
ENDBRANCH   8  10
BRANCH   1  24
ATOM     24  C   UNL     1      -2.790  10.658  17.937  0.00  0.00    +0.000 C 
ATOM     25  O   UNL     1      -2.732   9.472  18.217  0.00  0.00    +0.000 OA
BRANCH  24  27
ATOM     26  C   UNL     1      -2.623  10.497  15.601  0.00  0.00    +0.000 C 
ATOM     27  O   UNL     1      -2.274  11.200  16.798  0.00  0.00    +0.000 OA
ENDBRANCH  24  27
ENDBRANCH   1  24
BRANCH   7  28
ATOM     28  C   UNL     1      -3.040  12.979  22.428  0.00  0.00    +0.000 C 
ATOM     29  O   UNL     1      -2.210  13.762  22.868  0.00  0.00    +0.000 OA
BRANCH  28  30
ATOM     30  O   UNL     1      -3.653  12.014  23.155  0.00  0.00    +0.000 OA
ATOM     31  C   UNL     1      -4.148  12.440  24.428  0.00  0.00    +0.000 C 
ENDBRANCH  28  30
ENDBRANCH   7  28
TORSDOF 6
ENDMDL
MODEL 6
REMARK VINA RESULT:      -5.8      0.727      1.080
REMARK  Name = 
REMARK  10 active torsions:
REMARK  status: ('A' for Active; 'I' for Inactive)
REMARK    1  A    between atoms: C_1  and  O_2
REMARK    2  A    between atoms: O_2  and  C_3
REMARK    3  A    between atoms: C_3  and  C_5
REMARK    4  A    between atoms: C_6  and  C_7
REMARK    5  A    between atoms: C_9  and  C_10
REMARK    6  A    between atoms: C_11  and  C_12
REMARK    7  A    between atoms: C_12  and  O_14
REMARK    8  A    between atoms: O_14  and  C_15
REMARK    9  A    between atoms: C_16  and  C_17
REMARK   10  A    between atoms: C_21  and  C_22
REMARK                            x       y       z     vdW  Elec       q    Type
REMARK                         _______ _______ _______ _____ _____    ______ ____
ROOT
ATOM      1  C   UNL     1      -0.950  10.443  19.351  0.00  0.00    +0.000 C 
ATOM      2  C   UNL     1      -0.372  10.015  18.204  0.00  0.00    +0.000 C 
ATOM      3  C   UNL     1       0.954   9.304  18.064  0.00  0.00    +0.000 C 
ATOM      4  N   UNL     1      -1.029  10.207  16.992  0.00  0.00    +0.000 N 
ATOM      5  C   UNL     1      -2.367  10.549  16.875  0.00  0.00    +0.000 C 
ATOM      6  C   UNL     1      -2.995  10.287  15.529  0.00  0.00    +0.000 C 
ATOM      7  C   UNL     1      -3.029  11.013  17.959  0.00  0.00    +0.000 C 
ATOM      8  C   UNL     1      -2.296  11.194  19.293  0.00  0.00    +0.000 C 
ATOM      9  H   UNL     1      -0.593   9.788  16.174  0.00  0.00    +0.000 HD
ENDROOT
BRANCH   8  10
ATOM     10  C   UNL     1      -2.072  12.671  19.586  0.00  0.00    +0.000 A 
ATOM     11  C   UNL     1      -1.139  13.484  18.956  0.00  0.00    +0.000 A 
ATOM     12  N   UNL     1      -1.259  14.716  19.507  0.00  0.00    +0.000 N 
ATOM     13  N   UNL     1      -2.169  14.776  20.479  0.00  0.00    +0.000 NA
ATOM     14  C   UNL     1      -2.738  13.560  20.511  0.00  0.00    +0.000 A 
ATOM     15  H   UNL     1      -0.747  15.561  19.272  0.00  0.00    +0.000 HD
BRANCH  14  16
ATOM     16  C   UNL     1      -3.886  13.299  21.397  0.00  0.00    +0.000 A 
ATOM     17  C   UNL     1      -5.179  13.618  20.948  0.00  0.00    +0.000 A 
ATOM     18  C   UNL     1      -6.282  13.562  21.803  0.00  0.00    +0.000 A 
ATOM     19  C   UNL     1      -6.125  13.096  23.100  0.00  0.00    +0.000 A 
ATOM     20 CL   UNL     1      -7.477  13.044  24.161  0.00  0.00    +0.000 Cl
ATOM     21  C   UNL     1      -4.876  12.674  23.544  0.00  0.00    +0.000 A 
ATOM     22  C   UNL     1      -3.756  12.788  22.706  0.00  0.00    +0.000 A 
ATOM     23 CL   UNL     1      -2.248  12.310  23.417  0.00  0.00    +0.000 Cl
ENDBRANCH  14  16
ENDBRANCH   8  10
BRANCH   1  24
ATOM     24  C   UNL     1      -0.307  10.280  20.683  0.00  0.00    +0.000 C 
ATOM     25  O   UNL     1      -0.198   9.230  21.295  0.00  0.00    +0.000 OA
BRANCH  24  27
ATOM     26  C   UNL     1       1.468  11.814  20.754  0.00  0.00    +0.000 C 
ATOM     27  O   UNL     1       0.133  11.484  21.148  0.00  0.00    +0.000 OA
ENDBRANCH  24  27
ENDBRANCH   1  24
BRANCH   7  28
ATOM     28  C   UNL     1      -4.499  11.212  18.005  0.00  0.00    +0.000 C 
ATOM     29  O   UNL     1      -5.266  10.398  18.499  0.00  0.00    +0.000 OA
BRANCH  28  30
ATOM     30  O   UNL     1      -4.878  12.384  17.440  0.00  0.00    +0.000 OA
ATOM     31  C   UNL     1      -6.290  12.561  17.305  0.00  0.00    +0.000 C 
ENDBRANCH  28  30
ENDBRANCH   7  28
TORSDOF 6
ENDMDL
MODEL 7
REMARK VINA RESULT:      -5.5      7.179     11.371
REMARK  Name = 
REMARK  10 active torsions:
REMARK  status: ('A' for Active; 'I' for Inactive)
REMARK    1  A    between atoms: C_1  and  O_2
REMARK    2  A    between atoms: O_2  and  C_3
REMARK    3  A    between atoms: C_3  and  C_5
REMARK    4  A    between atoms: C_6  and  C_7
REMARK    5  A    between atoms: C_9  and  C_10
REMARK    6  A    between atoms: C_11  and  C_12
REMARK    7  A    between atoms: C_12  and  O_14
REMARK    8  A    between atoms: O_14  and  C_15
REMARK    9  A    between atoms: C_16  and  C_17
REMARK   10  A    between atoms: C_21  and  C_22
REMARK                            x       y       z     vdW  Elec       q    Type
REMARK                         _______ _______ _______ _____ _____    ______ ____
ROOT
ATOM      1  C   UNL     1       2.655   6.520  18.971  0.00  0.00    +0.000 C 
ATOM      2  C   UNL     1       2.011   6.558  20.162  0.00  0.00    +0.000 C 
ATOM      3  C   UNL     1       1.417   7.772  20.836  0.00  0.00    +0.000 C 
ATOM      4  N   UNL     1       1.833   5.381  20.882  0.00  0.00    +0.000 N 
ATOM      5  C   UNL     1       2.006   4.110  20.356  0.00  0.00    +0.000 C 
ATOM      6  C   UNL     1       1.358   2.988  21.127  0.00  0.00    +0.000 C 
ATOM      7  C   UNL     1       2.660   3.963  19.181  0.00  0.00    +0.000 C 
ATOM      8  C   UNL     1       3.236   5.186  18.460  0.00  0.00    +0.000 C 
ATOM      9  H   UNL     1       1.266   5.451  21.723  0.00  0.00    +0.000 HD
ENDROOT
BRANCH   8  10
ATOM     10  C   UNL     1       4.754   5.212  18.575  0.00  0.00    +0.000 A 
ATOM     11  C   UNL     1       5.469   5.440  19.743  0.00  0.00    +0.000 A 
ATOM     12  N   UNL     1       6.783   5.383  19.416  0.00  0.00    +0.000 N 
ATOM     13  N   UNL     1       6.996   5.175  18.116  0.00  0.00    +0.000 NA
ATOM     14  C   UNL     1       5.778   4.996  17.578  0.00  0.00    +0.000 A 
ATOM     15  H   UNL     1       7.587   5.484  20.027  0.00  0.00    +0.000 HD
BRANCH  14  16
ATOM     16  C   UNL     1       5.640   4.617  16.161  0.00  0.00    +0.000 A 
ATOM     17  C   UNL     1       5.866   3.282  15.788  0.00  0.00    +0.000 A 
ATOM     18  C   UNL     1       5.926   2.900  14.445  0.00  0.00    +0.000 A 
ATOM     19  C   UNL     1       5.668   3.833  13.452  0.00  0.00    +0.000 A 
ATOM     20 CL   UNL     1       5.759   3.371  11.798  0.00  0.00    +0.000 Cl
ATOM     21  C   UNL     1       5.338   5.141  13.792  0.00  0.00    +0.000 A 
ATOM     22  C   UNL     1       5.339   5.540  15.137  0.00  0.00    +0.000 A 
ATOM     23 CL   UNL     1       4.999   7.219  15.411  0.00  0.00    +0.000 Cl
ENDBRANCH  14  16
ENDBRANCH   8  10
BRANCH   1  24
ATOM     24  C   UNL     1       2.890   7.738  18.148  0.00  0.00    +0.000 C 
ATOM     25  O   UNL     1       3.971   8.275  17.969  0.00  0.00    +0.000 OA
BRANCH  24  27
ATOM     26  C   UNL     1       1.481   9.589  17.841  0.00  0.00    +0.000 C 
ATOM     27  O   UNL     1       1.716   8.194  17.628  0.00  0.00    +0.000 OA
ENDBRANCH  24  27
ENDBRANCH   1  24
BRANCH   7  28
ATOM     28  C   UNL     1       2.725   2.687  18.427  0.00  0.00    +0.000 C 
ATOM     29  O   UNL     1       1.765   2.214  17.835  0.00  0.00    +0.000 OA
BRANCH  28  30
ATOM     30  O   UNL     1       3.954   2.120  18.477  0.00  0.00    +0.000 OA
ATOM     31  C   UNL     1       4.423   1.811  19.792  0.00  0.00    +0.000 C 
ENDBRANCH  28  30
ENDBRANCH   7  28
TORSDOF 6
ENDMDL
MODEL 8
REMARK VINA RESULT:      -5.5      1.854      2.419
REMARK  Name = 
REMARK  10 active torsions:
REMARK  status: ('A' for Active; 'I' for Inactive)
REMARK    1  A    between atoms: C_1  and  O_2
REMARK    2  A    between atoms: O_2  and  C_3
REMARK    3  A    between atoms: C_3  and  C_5
REMARK    4  A    between atoms: C_6  and  C_7
REMARK    5  A    between atoms: C_9  and  C_10
REMARK    6  A    between atoms: C_11  and  C_12
REMARK    7  A    between atoms: C_12  and  O_14
REMARK    8  A    between atoms: O_14  and  C_15
REMARK    9  A    between atoms: C_16  and  C_17
REMARK   10  A    between atoms: C_21  and  C_22
REMARK                            x       y       z     vdW  Elec       q    Type
REMARK                         _______ _______ _______ _____ _____    ______ ____
ROOT
ATOM      1  C   UNL     1      -0.112  11.120  19.880  0.00  0.00    +0.000 C 
ATOM      2  C   UNL     1       0.200  10.230  18.907  0.00  0.00    +0.000 C 
ATOM      3  C   UNL     1       1.402   9.314  18.865  0.00  0.00    +0.000 C 
ATOM      4  N   UNL     1      -0.645  10.088  17.812  0.00  0.00    +0.000 N 
ATOM      5  C   UNL     1      -1.941  10.575  17.757  0.00  0.00    +0.000 C 
ATOM      6  C   UNL     1      -2.828   9.961  16.703  0.00  0.00    +0.000 C 
ATOM      7  C   UNL     1      -2.345  11.488  18.670  0.00  0.00    +0.000 C 
ATOM      8  C   UNL     1      -1.365  12.006  19.728  0.00  0.00    +0.000 C 
ATOM      9  H   UNL     1      -0.410   9.345  17.158  0.00  0.00    +0.000 HD
ENDROOT
BRANCH   8  10
ATOM     10  C   UNL     1      -0.946  13.437  19.417  0.00  0.00    +0.000 A 
ATOM     11  C   UNL     1      -0.450  13.884  18.200  0.00  0.00    +0.000 A 
ATOM     12  N   UNL     1      -0.198  15.208  18.343  0.00  0.00    +0.000 N 
ATOM     13  N   UNL     1      -0.449  15.665  19.569  0.00  0.00    +0.000 NA
ATOM     14  C   UNL     1      -0.975  14.626  20.238  0.00  0.00    +0.000 A 
ATOM     15  H   UNL     1       0.153  15.859  17.647  0.00  0.00    +0.000 HD
BRANCH  14  16
ATOM     16  C   UNL     1      -1.490  14.806  21.607  0.00  0.00    +0.000 A 
ATOM     17  C   UNL     1      -0.665  14.474  22.694  0.00  0.00    +0.000 A 
ATOM     18  C   UNL     1      -1.155  14.452  24.002  0.00  0.00    +0.000 A 
ATOM     19  C   UNL     1      -2.459  14.854  24.255  0.00  0.00    +0.000 A 
ATOM     20 CL   UNL     1      -3.072  14.811  25.861  0.00  0.00    +0.000 Cl
ATOM     21  C   UNL     1      -3.270  15.289  23.212  0.00  0.00    +0.000 A 
ATOM     22  C   UNL     1      -2.799  15.251  21.891  0.00  0.00    +0.000 A 
ATOM     23 CL   UNL     1      -3.945  15.735  20.682  0.00  0.00    +0.000 Cl
ENDBRANCH  14  16
ENDBRANCH   8  10
BRANCH   1  24
ATOM     24  C   UNL     1       0.746  11.334  21.077  0.00  0.00    +0.000 C 
ATOM     25  O   UNL     1       1.597  12.200  21.194  0.00  0.00    +0.000 OA
BRANCH  24  27
ATOM     26  C   UNL     1      -0.678  10.713  22.837  0.00  0.00    +0.000 C 
ATOM     27  O   UNL     1       0.466  10.404  22.033  0.00  0.00    +0.000 OA
ENDBRANCH  24  27
ENDBRANCH   1  24
BRANCH   7  28
ATOM     28  C   UNL     1      -3.754  11.922  18.835  0.00  0.00    +0.000 C 
ATOM     29  O   UNL     1      -4.571  11.892  17.926  0.00  0.00    +0.000 OA
BRANCH  28  30
ATOM     30  O   UNL     1      -4.017  12.350  20.094  0.00  0.00    +0.000 OA
ATOM     31  C   UNL     1      -5.402  12.367  20.448  0.00  0.00    +0.000 C 
ENDBRANCH  28  30
ENDBRANCH   7  28
TORSDOF 6
ENDMDL
MODEL 9
REMARK VINA RESULT:      -5.5      2.756      6.530
REMARK  Name = 
REMARK  10 active torsions:
REMARK  status: ('A' for Active; 'I' for Inactive)
REMARK    1  A    between atoms: C_1  and  O_2
REMARK    2  A    between atoms: O_2  and  C_3
REMARK    3  A    between atoms: C_3  and  C_5
REMARK    4  A    between atoms: C_6  and  C_7
REMARK    5  A    between atoms: C_9  and  C_10
REMARK    6  A    between atoms: C_11  and  C_12
REMARK    7  A    between atoms: C_12  and  O_14
REMARK    8  A    between atoms: O_14  and  C_15
REMARK    9  A    between atoms: C_16  and  C_17
REMARK   10  A    between atoms: C_21  and  C_22
REMARK                            x       y       z     vdW  Elec       q    Type
REMARK                         _______ _______ _______ _____ _____    ______ ____
ROOT
ATOM      1  C   UNL     1      -4.374  12.475  20.534  0.00  0.00    +0.000 C 
ATOM      2  C   UNL     1      -5.335  12.905  21.387  0.00  0.00    +0.000 C 
ATOM      3  C   UNL     1      -6.810  13.053  21.094  0.00  0.00    +0.000 C 
ATOM      4  N   UNL     1      -4.991  13.246  22.691  0.00  0.00    +0.000 N 
ATOM      5  C   UNL     1      -3.787  12.915  23.292  0.00  0.00    +0.000 C 
ATOM      6  C   UNL     1      -3.769  12.975  24.799  0.00  0.00    +0.000 C 
ATOM      7  C   UNL     1      -2.754  12.499  22.524  0.00  0.00    +0.000 C 
ATOM      8  C   UNL     1      -2.905  12.431  21.000  0.00  0.00    +0.000 C 
ATOM      9  H   UNL     1      -5.762  13.476  23.313  0.00  0.00    +0.000 HD
ENDROOT
BRANCH   8  10
ATOM     10  C   UNL     1      -2.122  13.554  20.333  0.00  0.00    +0.000 A 
ATOM     11  C   UNL     1      -2.343  14.912  20.520  0.00  0.00    +0.000 A 
ATOM     12  N   UNL     1      -1.442  15.566  19.748  0.00  0.00    +0.000 N 
ATOM     13  N   UNL     1      -0.667  14.750  19.033  0.00  0.00    +0.000 NA
ATOM     14  C   UNL     1      -1.005  13.508  19.416  0.00  0.00    +0.000 A 
ATOM     15  H   UNL     1      -1.305  16.567  19.655  0.00  0.00    +0.000 HD
BRANCH  14  16
ATOM     16  C   UNL     1      -0.255  12.344  18.913  0.00  0.00    +0.000 A 
ATOM     17  C   UNL     1      -0.962  11.273  18.342  0.00  0.00    +0.000 A 
ATOM     18  C   UNL     1      -0.327  10.072  18.013  0.00  0.00    +0.000 A 
ATOM     19  C   UNL     1       1.047   9.957  18.164  0.00  0.00    +0.000 A 
ATOM     20 CL   UNL     1       1.829   8.475  17.778  0.00  0.00    +0.000 Cl
ATOM     21  C   UNL     1       1.792  11.035  18.630  0.00  0.00    +0.000 A 
ATOM     22  C   UNL     1       1.147  12.220  19.020  0.00  0.00    +0.000 A 
ATOM     23 CL   UNL     1       2.185  13.450  19.667  0.00  0.00    +0.000 Cl
ENDBRANCH  14  16
ENDBRANCH   8  10
BRANCH   1  24
ATOM     24  C   UNL     1      -4.663  12.101  19.123  0.00  0.00    +0.000 C 
ATOM     25  O   UNL     1      -4.307  11.070  18.575  0.00  0.00    +0.000 OA
BRANCH  24  27
ATOM     26  C   UNL     1      -6.127  12.650  17.372  0.00  0.00    +0.000 C 
ATOM     27  O   UNL     1      -5.371  13.088  18.505  0.00  0.00    +0.000 OA
ENDBRANCH  24  27
ENDBRANCH   1  24
BRANCH   7  28
ATOM     28  C   UNL     1      -1.498  11.927  23.068  0.00  0.00    +0.000 C 
ATOM     29  O   UNL     1      -0.492  12.595  23.262  0.00  0.00    +0.000 OA
BRANCH  28  30
ATOM     30  O   UNL     1      -1.602  10.599  23.317  0.00  0.00    +0.000 OA
ATOM     31  C   UNL     1      -0.392   9.856  23.142  0.00  0.00    +0.000 C 
ENDBRANCH  28  30
ENDBRANCH   7  28
TORSDOF 6
ENDMDL
