MODEL 1
REMARK VINA RESULT:      -6.0      0.000      0.000
REMARK  Name = 
REMARK  5 active torsions:
REMARK  status: ('A' for Active; 'I' for Inactive)
REMARK    1  A    between atoms: C_1  and  O_2
REMARK    2  A    between atoms: O_2  and  C_3
REMARK    3  A    between atoms: C_3  and  C_4
REMARK    4  A    between atoms: C_4  and  N_5
REMARK    5  A    between atoms: C_6  and  C_8
REMARK                            x       y       z     vdW  Elec       q    Type
REMARK                         _______ _______ _______ _____ _____    ______ ____
ROOT
ATOM      1  C   UNL     1       5.101   5.296  16.550  0.00  0.00    +0.000 A 
ATOM      2  C   UNL     1       4.932   6.652  16.790  0.00  0.00    +0.000 A 
ATOM      3  S   UNL     1       3.571   7.011  17.752  0.00  0.00    +0.000 S 
ATOM      4  C   UNL     1       3.179   5.365  17.887  0.00  0.00    +0.000 A 
ATOM      5  C   UNL     1       4.049   4.540  17.193  0.00  0.00    +0.000 A 
ATOM      6  C   UNL     1       3.887   3.045  17.225  0.00  0.00    +0.000 C 
ATOM      7  C   UNL     1       2.462   2.642  17.637  0.00  0.00    +0.000 C 
ATOM      8  C   UNL     1       2.011   3.398  18.892  0.00  0.00    +0.000 C 
ATOM      9  C   UNL     1       1.984   4.915  18.672  0.00  0.00    +0.000 C 
ENDROOT
BRANCH   1  11
ATOM     10  N   UNL     1       5.827   4.444  14.446  0.00  0.00    +0.000 N 
ATOM     11  C   UNL     1       6.205   4.768  15.734  0.00  0.00    +0.000 C 
ATOM     12  O   UNL     1       7.348   4.646  16.150  0.00  0.00    +0.000 OA
ATOM     13  H   UNL     1       4.969   4.848  14.089  0.00  0.00    +0.000 HD
BRANCH  10  14
ATOM     14  C   UNL     1       6.783   3.979  13.460  0.00  0.00    +0.000 C 
BRANCH  14  15
ATOM     15  C   UNL     1       6.086   3.414  12.221  0.00  0.00    +0.000 C 
BRANCH  15  17
ATOM     16  C   UNL     1       3.976   3.129  11.195  0.00  0.00    +0.000 C 
ATOM     17  O   UNL     1       4.667   3.557  12.365  0.00  0.00    +0.000 OA
ENDBRANCH  15  17
ENDBRANCH  14  15
ENDBRANCH  10  14
ENDBRANCH   1  11
TORSDOF 4
ENDMDL
MODEL 2
REMARK VINA RESULT:      -6.0      3.346      4.582
REMARK  Name = 
REMARK  5 active torsions:
REMARK  status: ('A' for Active; 'I' for Inactive)
REMARK    1  A    between atoms: C_1  and  O_2
REMARK    2  A    between atoms: O_2  and  C_3
REMARK    3  A    between atoms: C_3  and  C_4
REMARK    4  A    between atoms: C_4  and  N_5
REMARK    5  A    between atoms: C_6  and  C_8
REMARK                            x       y       z     vdW  Elec       q    Type
REMARK                         _______ _______ _______ _____ _____    ______ ____
ROOT
ATOM      1  C   UNL     1       4.086   3.626  17.996  0.00  0.00    +0.000 A 
ATOM      2  C   UNL     1       3.845   2.300  17.666  0.00  0.00    +0.000 A 
ATOM      3  S   UNL     1       2.475   1.643  18.438  0.00  0.00    +0.000 S 
ATOM      4  C   UNL     1       2.157   3.115  19.221  0.00  0.00    +0.000 A 
ATOM      5  C   UNL     1       3.088   4.098  18.930  0.00  0.00    +0.000 A 
ATOM      6  C   UNL     1       2.953   5.483  19.501  0.00  0.00    +0.000 C 
ATOM      7  C   UNL     1       2.049   5.494  20.744  0.00  0.00    +0.000 C 
ATOM      8  C   UNL     1       0.741   4.739  20.486  0.00  0.00    +0.000 C 
ATOM      9  C   UNL     1       0.985   3.264  20.143  0.00  0.00    +0.000 C 
ENDROOT
BRANCH   1  11
ATOM     10  N   UNL     1       6.369   4.274  18.216  0.00  0.00    +0.000 N 
ATOM     11  C   UNL     1       5.224   4.382  17.452  0.00  0.00    +0.000 C 
ATOM     12  O   UNL     1       5.167   5.029  16.417  0.00  0.00    +0.000 OA
ATOM     13  H   UNL     1       6.432   3.499  18.867  0.00  0.00    +0.000 HD
BRANCH  10  14
ATOM     14  C   UNL     1       7.622   4.882  17.812  0.00  0.00    +0.000 C 
BRANCH  14  15
ATOM     15  C   UNL     1       7.744   6.317  18.327  0.00  0.00    +0.000 C 
BRANCH  15  17
ATOM     16  C   UNL     1       7.850   8.577  17.644  0.00  0.00    +0.000 C 
ATOM     17  O   UNL     1       7.661   7.229  17.225  0.00  0.00    +0.000 OA
ENDBRANCH  15  17
ENDBRANCH  14  15
ENDBRANCH  10  14
ENDBRANCH   1  11
TORSDOF 4
ENDMDL
MODEL 3
REMARK VINA RESULT:      -5.9      1.816      2.314
REMARK  Name = 
REMARK  5 active torsions:
REMARK  status: ('A' for Active; 'I' for Inactive)
REMARK    1  A    between atoms: C_1  and  O_2
REMARK    2  A    between atoms: O_2  and  C_3
REMARK    3  A    between atoms: C_3  and  C_4
REMARK    4  A    between atoms: C_4  and  N_5
REMARK    5  A    between atoms: C_6  and  C_8
REMARK                            x       y       z     vdW  Elec       q    Type
REMARK                         _______ _______ _______ _____ _____    ______ ____
ROOT
ATOM      1  C   UNL     1       4.223   4.912  18.409  0.00  0.00    +0.000 A 
ATOM      2  C   UNL     1       3.910   6.263  18.455  0.00  0.00    +0.000 A 
ATOM      3  S   UNL     1       2.500   6.607  19.348  0.00  0.00    +0.000 S 
ATOM      4  C   UNL     1       2.276   4.964  19.711  0.00  0.00    +0.000 A 
ATOM      5  C   UNL     1       3.242   4.147  19.145  0.00  0.00    +0.000 A 
ATOM      6  C   UNL     1       3.233   2.662  19.385  0.00  0.00    +0.000 C 
ATOM      7  C   UNL     1       1.849   2.172  19.841  0.00  0.00    +0.000 C 
ATOM      8  C   UNL     1       1.297   3.044  20.975  0.00  0.00    +0.000 C 
ATOM      9  C   UNL     1       1.118   4.505  20.543  0.00  0.00    +0.000 C 
ENDROOT
BRANCH   1  11
ATOM     10  N   UNL     1       5.145   4.161  16.343  0.00  0.00    +0.000 N 
ATOM     11  C   UNL     1       5.392   4.395  17.682  0.00  0.00    +0.000 C 
ATOM     12  O   UNL     1       6.480   4.207  18.207  0.00  0.00    +0.000 OA
ATOM     13  H   UNL     1       4.343   4.617  15.924  0.00  0.00    +0.000 HD
BRANCH  10  14
ATOM     14  C   UNL     1       6.188   3.722  15.436  0.00  0.00    +0.000 C 
BRANCH  14  15
ATOM     15  C   UNL     1       6.938   4.908  14.824  0.00  0.00    +0.000 C 
BRANCH  15  17
ATOM     16  C   UNL     1       6.253   3.621  12.965  0.00  0.00    +0.000 C 
ATOM     17  O   UNL     1       7.007   4.747  13.402  0.00  0.00    +0.000 OA
ENDBRANCH  15  17
ENDBRANCH  14  15
ENDBRANCH  10  14
ENDBRANCH   1  11
TORSDOF 4
ENDMDL
MODEL 4
REMARK VINA RESULT:      -5.9      2.390      3.299
REMARK  Name = 
REMARK  5 active torsions:
REMARK  status: ('A' for Active; 'I' for Inactive)
REMARK    1  A    between atoms: C_1  and  O_2
REMARK    2  A    between atoms: O_2  and  C_3
REMARK    3  A    between atoms: C_3  and  C_4
REMARK    4  A    between atoms: C_4  and  N_5
REMARK    5  A    between atoms: C_6  and  C_8
REMARK                            x       y       z     vdW  Elec       q    Type
REMARK                         _______ _______ _______ _____ _____    ______ ____
ROOT
ATOM      1  C   UNL     1       3.444   5.831  18.645  0.00  0.00    +0.000 A 
ATOM      2  C   UNL     1       2.835   6.722  19.517  0.00  0.00    +0.000 A 
ATOM      3  S   UNL     1       1.564   6.034  20.419  0.00  0.00    +0.000 S 
ATOM      4  C   UNL     1       1.799   4.524  19.681  0.00  0.00    +0.000 A 
ATOM      5  C   UNL     1       2.815   4.533  18.738  0.00  0.00    +0.000 A 
ATOM      6  C   UNL     1       3.197   3.277  18.004  0.00  0.00    +0.000 C 
ATOM      7  C   UNL     1       2.069   2.234  18.045  0.00  0.00    +0.000 C 
ATOM      8  C   UNL     1       1.536   2.048  19.470  0.00  0.00    +0.000 C 
ATOM      9  C   UNL     1       0.946   3.345  20.038  0.00  0.00    +0.000 C 
ENDROOT
BRANCH   1  11
ATOM     10  N   UNL     1       5.784   5.768  18.200  0.00  0.00    +0.000 N 
ATOM     11  C   UNL     1       4.555   6.221  17.764  0.00  0.00    +0.000 C 
ATOM     12  O   UNL     1       4.403   6.868  16.738  0.00  0.00    +0.000 OA
ATOM     13  H   UNL     1       5.797   5.003  18.864  0.00  0.00    +0.000 HD
BRANCH  10  14
ATOM     14  C   UNL     1       6.996   5.981  17.433  0.00  0.00    +0.000 C 
BRANCH  14  15
ATOM     15  C   UNL     1       7.531   4.671  16.850  0.00  0.00    +0.000 C 
BRANCH  15  17
ATOM     16  C   UNL     1       6.412   4.349  14.794  0.00  0.00    +0.000 C 
ATOM     17  O   UNL     1       7.614   4.781  15.424  0.00  0.00    +0.000 OA
ENDBRANCH  15  17
ENDBRANCH  14  15
ENDBRANCH  10  14
ENDBRANCH   1  11
TORSDOF 4
ENDMDL
MODEL 5
REMARK VINA RESULT:      -5.8      1.586      1.911
REMARK  Name = 
REMARK  5 active torsions:
REMARK  status: ('A' for Active; 'I' for Inactive)
REMARK    1  A    between atoms: C_1  and  O_2
REMARK    2  A    between atoms: O_2  and  C_3
REMARK    3  A    between atoms: C_3  and  C_4
REMARK    4  A    between atoms: C_4  and  N_5
REMARK    5  A    between atoms: C_6  and  C_8
REMARK                            x       y       z     vdW  Elec       q    Type
REMARK                         _______ _______ _______ _____ _____    ______ ____
ROOT
ATOM      1  C   UNL     1       4.588   4.955  18.291  0.00  0.00    +0.000 A 
ATOM      2  C   UNL     1       4.169   6.180  18.792  0.00  0.00    +0.000 A 
ATOM      3  S   UNL     1       2.583   6.157  19.415  0.00  0.00    +0.000 S 
ATOM      4  C   UNL     1       2.417   4.508  19.048  0.00  0.00    +0.000 A 
ATOM      5  C   UNL     1       3.538   3.972  18.435  0.00  0.00    +0.000 A 
ATOM      6  C   UNL     1       3.594   2.515  18.068  0.00  0.00    +0.000 C 
ATOM      7  C   UNL     1       2.188   1.900  17.980  0.00  0.00    +0.000 C 
ATOM      8  C   UNL     1       1.349   2.255  19.213  0.00  0.00    +0.000 C 
ATOM      9  C   UNL     1       1.151   3.769  19.359  0.00  0.00    +0.000 C 
ENDROOT
BRANCH   1  11
ATOM     10  N   UNL     1       5.959   5.034  16.344  0.00  0.00    +0.000 N 
ATOM     11  C   UNL     1       5.918   4.757  17.696  0.00  0.00    +0.000 C 
ATOM     12  O   UNL     1       6.895   4.399  18.338  0.00  0.00    +0.000 OA
ATOM     13  H   UNL     1       5.217   5.604  15.955  0.00  0.00    +0.000 HD
BRANCH  10  14
ATOM     14  C   UNL     1       7.193   4.973  15.585  0.00  0.00    +0.000 C 
BRANCH  14  15
ATOM     15  C   UNL     1       6.927   4.822  14.086  0.00  0.00    +0.000 C 
BRANCH  15  17
ATOM     16  C   UNL     1       5.976   3.383  12.471  0.00  0.00    +0.000 C 
ATOM     17  O   UNL     1       6.108   3.669  13.860  0.00  0.00    +0.000 OA
ENDBRANCH  15  17
ENDBRANCH  14  15
ENDBRANCH  10  14
ENDBRANCH   1  11
TORSDOF 4
ENDMDL
MODEL 6
REMARK VINA RESULT:      -5.8      3.273      4.813
REMARK  Name = 
REMARK  5 active torsions:
REMARK  status: ('A' for Active; 'I' for Inactive)
REMARK    1  A    between atoms: C_1  and  O_2
REMARK    2  A    between atoms: O_2  and  C_3
REMARK    3  A    between atoms: C_3  and  C_4
REMARK    4  A    between atoms: C_4  and  N_5
REMARK    5  A    between atoms: C_6  and  C_8
REMARK                            x       y       z     vdW  Elec       q    Type
REMARK                         _______ _______ _______ _____ _____    ______ ____
ROOT
ATOM      1  C   UNL     1       4.161   4.552  17.712  0.00  0.00    +0.000 A 
ATOM      2  C   UNL     1       4.335   3.268  17.217  0.00  0.00    +0.000 A 
ATOM      3  S   UNL     1       3.309   2.113  17.937  0.00  0.00    +0.000 S 
ATOM      4  C   UNL     1       2.593   3.298  18.919  0.00  0.00    +0.000 A 
ATOM      5  C   UNL     1       3.135   4.559  18.731  0.00  0.00    +0.000 A 
ATOM      6  C   UNL     1       2.605   5.748  19.485  0.00  0.00    +0.000 C 
ATOM      7  C   UNL     1       1.839   5.319  20.747  0.00  0.00    +0.000 C 
ATOM      8  C   UNL     1       0.827   4.210  20.433  0.00  0.00    +0.000 C 
ATOM      9  C   UNL     1       1.506   2.947  19.890  0.00  0.00    +0.000 C 
ENDROOT
BRANCH   1  11
ATOM     10  N   UNL     1       6.313   5.527  17.401  0.00  0.00    +0.000 N 
ATOM     11  C   UNL     1       4.952   5.697  17.237  0.00  0.00    +0.000 C 
ATOM     12  O   UNL     1       4.456   6.694  16.733  0.00  0.00    +0.000 OA
ATOM     13  H   UNL     1       6.659   4.584  17.533  0.00  0.00    +0.000 HD
BRANCH  10  14
ATOM     14  C   UNL     1       7.270   6.508  16.928  0.00  0.00    +0.000 C 
BRANCH  14  15
ATOM     15  C   UNL     1       7.817   7.361  18.075  0.00  0.00    +0.000 C 
BRANCH  15  17
ATOM     16  C   UNL     1       8.696   9.500  18.560  0.00  0.00    +0.000 C 
ATOM     17  O   UNL     1       7.927   8.724  17.646  0.00  0.00    +0.000 OA
ENDBRANCH  15  17
ENDBRANCH  14  15
ENDBRANCH  10  14
ENDBRANCH   1  11
TORSDOF 4
ENDMDL
MODEL 7
REMARK VINA RESULT:      -5.7      4.743      7.263
REMARK  Name = 
REMARK  5 active torsions:
REMARK  status: ('A' for Active; 'I' for Inactive)
REMARK    1  A    between atoms: C_1  and  O_2
REMARK    2  A    between atoms: O_2  and  C_3
REMARK    3  A    between atoms: C_3  and  C_4
REMARK    4  A    between atoms: C_4  and  N_5
REMARK    5  A    between atoms: C_6  and  C_8
REMARK                            x       y       z     vdW  Elec       q    Type
REMARK                         _______ _______ _______ _____ _____    ______ ____
ROOT
ATOM      1  C   UNL     1       3.114   6.009  19.019  0.00  0.00    +0.000 A 
ATOM      2  C   UNL     1       4.440   5.948  18.614  0.00  0.00    +0.000 A 
ATOM      3  S   UNL     1       5.073   4.366  18.584  0.00  0.00    +0.000 S 
ATOM      4  C   UNL     1       3.590   3.717  19.097  0.00  0.00    +0.000 A 
ATOM      5  C   UNL     1       2.621   4.683  19.317  0.00  0.00    +0.000 A 
ATOM      6  C   UNL     1       1.230   4.299  19.739  0.00  0.00    +0.000 C 
ATOM      7  C   UNL     1       1.196   2.889  20.352  0.00  0.00    +0.000 C 
ATOM      8  C   UNL     1       1.937   1.881  19.466  0.00  0.00    +0.000 C 
ATOM      9  C   UNL     1       3.417   2.242  19.296  0.00  0.00    +0.000 C 
ENDROOT
BRANCH   1  11
ATOM     10  N   UNL     1       1.912   7.533  20.401  0.00  0.00    +0.000 N 
ATOM     11  C   UNL     1       2.378   7.278  19.127  0.00  0.00    +0.000 C 
ATOM     12  O   UNL     1       2.210   8.038  18.185  0.00  0.00    +0.000 OA
ATOM     13  H   UNL     1       2.339   7.032  21.171  0.00  0.00    +0.000 HD
BRANCH  10  14
ATOM     14  C   UNL     1       1.227   8.767  20.734  0.00  0.00    +0.000 C 
BRANCH  14  15
ATOM     15  C   UNL     1       1.331   9.085  22.227  0.00  0.00    +0.000 C 
BRANCH  15  17
ATOM     16  C   UNL     1      -0.634  10.054  23.111  0.00  0.00    +0.000 C 
ATOM     17  O   UNL     1       0.631  10.303  22.507  0.00  0.00    +0.000 OA
ENDBRANCH  15  17
ENDBRANCH  14  15
ENDBRANCH  10  14
ENDBRANCH   1  11
TORSDOF 4
ENDMDL
MODEL 8
REMARK VINA RESULT:      -5.7      2.263      2.702
REMARK  Name = 
REMARK  5 active torsions:
REMARK  status: ('A' for Active; 'I' for Inactive)
REMARK    1  A    between atoms: C_1  and  O_2
REMARK    2  A    between atoms: O_2  and  C_3
REMARK    3  A    between atoms: C_3  and  C_4
REMARK    4  A    between atoms: C_4  and  N_5
REMARK    5  A    between atoms: C_6  and  C_8
REMARK                            x       y       z     vdW  Elec       q    Type
REMARK                         _______ _______ _______ _____ _____    ______ ____
ROOT
ATOM      1  C   UNL     1       3.915   4.847  18.016  0.00  0.00    +0.000 A 
ATOM      2  C   UNL     1       3.746   6.217  18.151  0.00  0.00    +0.000 A 
ATOM      3  S   UNL     1       2.534   6.649  19.270  0.00  0.00    +0.000 S 
ATOM      4  C   UNL     1       2.212   5.018  19.616  0.00  0.00    +0.000 A 
ATOM      5  C   UNL     1       2.992   4.142  18.878  0.00  0.00    +0.000 A 
ATOM      6  C   UNL     1       2.878   2.655  19.073  0.00  0.00    +0.000 C 
ATOM      7  C   UNL     1       1.542   2.274  19.732  0.00  0.00    +0.000 C 
ATOM      8  C   UNL     1       1.263   3.142  20.965  0.00  0.00    +0.000 C 
ATOM      9  C   UNL     1       1.161   4.630  20.611  0.00  0.00    +0.000 C 
ENDROOT
BRANCH   1  11
ATOM     10  N   UNL     1       6.022   5.041  16.921  0.00  0.00    +0.000 N 
ATOM     11  C   UNL     1       4.899   4.258  17.095  0.00  0.00    +0.000 C 
ATOM     12  O   UNL     1       4.744   3.174  16.550  0.00  0.00    +0.000 OA
ATOM     13  H   UNL     1       6.216   5.751  17.617  0.00  0.00    +0.000 HD
BRANCH  10  14
ATOM     14  C   UNL     1       7.144   4.605  16.112  0.00  0.00    +0.000 C 
BRANCH  14  15
ATOM     15  C   UNL     1       6.902   4.870  14.624  0.00  0.00    +0.000 C 
BRANCH  15  17
ATOM     16  C   UNL     1       8.097   5.477  12.678  0.00  0.00    +0.000 C 
ATOM     17  O   UNL     1       7.994   5.628  14.090  0.00  0.00    +0.000 OA
ENDBRANCH  15  17
ENDBRANCH  14  15
ENDBRANCH  10  14
ENDBRANCH   1  11
TORSDOF 4
ENDMDL
MODEL 9
REMARK VINA RESULT:      -5.6      2.071      3.063
REMARK  Name = 
REMARK  5 active torsions:
REMARK  status: ('A' for Active; 'I' for Inactive)
REMARK    1  A    between atoms: C_1  and  O_2
REMARK    2  A    between atoms: O_2  and  C_3
REMARK    3  A    between atoms: C_3  and  C_4
REMARK    4  A    between atoms: C_4  and  N_5
REMARK    5  A    between atoms: C_6  and  C_8
REMARK                            x       y       z     vdW  Elec       q    Type
REMARK                         _______ _______ _______ _____ _____    ______ ____
ROOT
ATOM      1  C   UNL     1       4.008   4.091  17.692  0.00  0.00    +0.000 A 
ATOM      2  C   UNL     1       4.090   2.733  17.418  0.00  0.00    +0.000 A 
ATOM      3  S   UNL     1       3.034   1.782  18.358  0.00  0.00    +0.000 S 
ATOM      4  C   UNL     1       2.427   3.158  19.147  0.00  0.00    +0.000 A 
ATOM      5  C   UNL     1       3.029   4.333  18.728  0.00  0.00    +0.000 A 
ATOM      6  C   UNL     1       2.598   5.662  19.285  0.00  0.00    +0.000 C 
ATOM      7  C   UNL     1       1.864   5.500  20.626  0.00  0.00    +0.000 C 
ATOM      8  C   UNL     1       0.781   4.419  20.539  0.00  0.00    +0.000 C 
ATOM      9  C   UNL     1       1.366   3.043  20.198  0.00  0.00    +0.000 C 
ENDROOT
BRANCH   1  11
ATOM     10  N   UNL     1       6.083   4.609  16.640  0.00  0.00    +0.000 N 
ATOM     11  C   UNL     1       4.840   5.089  17.002  0.00  0.00    +0.000 C 
ATOM     12  O   UNL     1       4.462   6.226  16.759  0.00  0.00    +0.000 OA
ATOM     13  H   UNL     1       6.208   3.604  16.596  0.00  0.00    +0.000 HD
BRANCH  10  14
ATOM     14  C   UNL     1       7.025   5.411  15.884  0.00  0.00    +0.000 C 
BRANCH  14  15
ATOM     15  C   UNL     1       7.108   4.957  14.425  0.00  0.00    +0.000 C 
BRANCH  15  17
ATOM     16  C   UNL     1       5.905   3.565  12.943  0.00  0.00    +0.000 C 
ATOM     17  O   UNL     1       6.401   3.720  14.269  0.00  0.00    +0.000 OA
ENDBRANCH  15  17
ENDBRANCH  14  15
ENDBRANCH  10  14
ENDBRANCH   1  11
TORSDOF 4
ENDMDL
