MODEL 1
REMARK VINA RESULT:      -8.3      0.000      0.000
REMARK  Name = 
REMARK  7 active torsions:
REMARK  status: ('A' for Active; 'I' for Inactive)
REMARK    1  A    between atoms: C_1  and  O_2
REMARK    2  A    between atoms: O_2  and  C_3
REMARK    3  A    between atoms: C_7  and  C_8
REMARK    4  A    between atoms: N_9  and  N_10
REMARK    5  A    between atoms: C_11  and  C_13
REMARK    6  A    between atoms: C_15  and  C_16
REMARK    7  A    between atoms: C_25  and  O_26
REMARK                            x       y       z     vdW  Elec       q    Type
REMARK                         _______ _______ _______ _____ _____    ______ ____
ROOT
ATOM      1  N   UNL     1       7.385   8.065  17.235  0.00  0.00    +0.000 N 
ATOM      2  C   UNL     1       7.217   6.771  17.723  0.00  0.00    +0.000 C 
ATOM      3  O   UNL     1       7.730   6.384  18.769  0.00  0.00    +0.000 OA
ATOM      4  H   UNL     1       6.921   8.413  16.406  0.00  0.00    +0.000 HD
ENDROOT
BRANCH   2   5
ATOM      5  C   UNL     1       6.401   5.839  16.893  0.00  0.00    +0.000 A 
ATOM      6  C   UNL     1       6.939   5.400  15.679  0.00  0.00    +0.000 A 
ATOM      7  C   UNL     1       6.231   4.476  14.937  0.00  0.00    +0.000 A 
ATOM      8  C   UNL     1       6.774   3.951  13.642  0.00  0.00    +0.000 C 
ATOM      9  N   UNL     1       5.051   3.973  15.350  0.00  0.00    +0.000 NA
ATOM     10  C   UNL     1       4.542   4.360  16.531  0.00  0.00    +0.000 A 
ATOM     11  C   UNL     1       3.359   3.763  16.947  0.00  0.00    +0.000 A 
ATOM     12  C   UNL     1       2.758   4.072  18.168  0.00  0.00    +0.000 A 
ATOM     13  C   UNL     1       3.339   5.030  18.982  0.00  0.00    +0.000 A 
ATOM     14 BR   UNL     1       2.550   5.462  20.644  0.00  0.00    +0.000 Br
ATOM     15  C   UNL     1       4.515   5.660  18.582  0.00  0.00    +0.000 A 
ATOM     16  C   UNL     1       5.162   5.316  17.361  0.00  0.00    +0.000 A 
ENDBRANCH   2   5
BRANCH   1  18
ATOM     17  C   UNL     1       8.175  10.153  17.703  0.00  0.00    +0.000 C 
ATOM     18  N   UNL     1       8.144   8.894  17.980  0.00  0.00    +0.000 NA
BRANCH  17  23
ATOM     19  C   UNL     1      10.041  13.183  19.041  0.00  0.00    +0.000 A 
ATOM     20  C   UNL     1      10.586  12.615  20.201  0.00  0.00    +0.000 A 
ATOM     21  C   UNL     1      10.339  11.283  20.546  0.00  0.00    +0.000 A 
ATOM     22  C   UNL     1       9.543  10.489  19.726  0.00  0.00    +0.000 A 
ATOM     23  C   UNL     1       8.996  11.036  18.563  0.00  0.00    +0.000 A 
ATOM     24  C   UNL     1       9.236  12.386  18.219  0.00  0.00    +0.000 A 
BRANCH  19  26
ATOM     25  C   UNL     1      11.779  14.816  18.796  0.00  0.00    +0.000 C 
ATOM     26  O   UNL     1      10.395  14.495  18.869  0.00  0.00    +0.000 OA
ENDBRANCH  19  26
BRANCH  24  27
ATOM     27  O   UNL     1       8.691  12.931  17.083  0.00  0.00    +0.000 OA
ATOM     28  H   UNL     1       9.358  13.492  16.625  0.00  0.00    +0.000 HD
ENDBRANCH  24  27
ENDBRANCH  17  23
ENDBRANCH   1  18
TORSDOF 5
ENDMDL
MODEL 2
REMARK VINA RESULT:      -8.2      5.696      7.701
REMARK  Name = 
REMARK  7 active torsions:
REMARK  status: ('A' for Active; 'I' for Inactive)
REMARK    1  A    between atoms: C_1  and  O_2
REMARK    2  A    between atoms: O_2  and  C_3
REMARK    3  A    between atoms: C_7  and  C_8
REMARK    4  A    between atoms: N_9  and  N_10
REMARK    5  A    between atoms: C_11  and  C_13
REMARK    6  A    between atoms: C_15  and  C_16
REMARK    7  A    between atoms: C_25  and  O_26
REMARK                            x       y       z     vdW  Elec       q    Type
REMARK                         _______ _______ _______ _____ _____    ______ ____
ROOT
ATOM      1  N   UNL     1       2.284   7.160  20.054  0.00  0.00    +0.000 N 
ATOM      2  C   UNL     1       2.525   6.957  18.697  0.00  0.00    +0.000 C 
ATOM      3  O   UNL     1       2.145   7.739  17.831  0.00  0.00    +0.000 OA
ATOM      4  H   UNL     1       2.643   6.554  20.782  0.00  0.00    +0.000 HD
ENDROOT
BRANCH   2   5
ATOM      5  C   UNL     1       3.250   5.710  18.322  0.00  0.00    +0.000 A 
ATOM      6  C   UNL     1       2.509   4.528  18.214  0.00  0.00    +0.000 A 
ATOM      7  C   UNL     1       3.150   3.381  17.789  0.00  0.00    +0.000 A 
ATOM      8  C   UNL     1       2.398   2.094  17.630  0.00  0.00    +0.000 C 
ATOM      9  N   UNL     1       4.458   3.366  17.463  0.00  0.00    +0.000 NA
ATOM     10  C   UNL     1       5.170   4.502  17.528  0.00  0.00    +0.000 A 
ATOM     11  C   UNL     1       6.496   4.454  17.116  0.00  0.00    +0.000 A 
ATOM     12  C   UNL     1       7.319   5.581  17.118  0.00  0.00    +0.000 A 
ATOM     13  C   UNL     1       6.812   6.785  17.577  0.00  0.00    +0.000 A 
ATOM     14 BR   UNL     1       7.902   8.328  17.584  0.00  0.00    +0.000 Br
ATOM     15  C   UNL     1       5.491   6.859  18.017  0.00  0.00    +0.000 A 
ATOM     16  C   UNL     1       4.630   5.726  17.972  0.00  0.00    +0.000 A 
ENDBRANCH   2   5
BRANCH   1  18
ATOM     17  C   UNL     1       0.561   8.196  21.134  0.00  0.00    +0.000 C 
ATOM     18  N   UNL     1       1.607   8.279  20.383  0.00  0.00    +0.000 NA
BRANCH  17  23
ATOM     19  C   UNL     1      -1.080  11.617  20.916  0.00  0.00    +0.000 A 
ATOM     20  C   UNL     1      -1.404  11.796  22.268  0.00  0.00    +0.000 A 
ATOM     21  C   UNL     1      -1.109  10.820  23.224  0.00  0.00    +0.000 A 
ATOM     22  C   UNL     1      -0.473   9.642  22.841  0.00  0.00    +0.000 A 
ATOM     23  C   UNL     1      -0.137   9.449  21.499  0.00  0.00    +0.000 A 
ATOM     24  C   UNL     1      -0.445  10.431  20.530  0.00  0.00    +0.000 A 
BRANCH  19  26
ATOM     25  C   UNL     1      -0.897  13.959  20.434  0.00  0.00    +0.000 C 
ATOM     26  O   UNL     1      -1.443  12.680  20.132  0.00  0.00    +0.000 OA
ENDBRANCH  19  26
BRANCH  24  27
ATOM     27  O   UNL     1      -0.127  10.241  19.208  0.00  0.00    +0.000 OA
ATOM     28  H   UNL     1       0.802   9.928  19.127  0.00  0.00    +0.000 HD
ENDBRANCH  24  27
ENDBRANCH  17  23
ENDBRANCH   1  18
TORSDOF 5
ENDMDL
MODEL 3
REMARK VINA RESULT:      -8.1      2.202      3.247
REMARK  Name = 
REMARK  7 active torsions:
REMARK  status: ('A' for Active; 'I' for Inactive)
REMARK    1  A    between atoms: C_1  and  O_2
REMARK    2  A    between atoms: O_2  and  C_3
REMARK    3  A    between atoms: C_7  and  C_8
REMARK    4  A    between atoms: N_9  and  N_10
REMARK    5  A    between atoms: C_11  and  C_13
REMARK    6  A    between atoms: C_15  and  C_16
REMARK    7  A    between atoms: C_25  and  O_26
REMARK                            x       y       z     vdW  Elec       q    Type
REMARK                         _______ _______ _______ _____ _____    ______ ____
ROOT
ATOM      1  N   UNL     1       7.363   7.856  17.715  0.00  0.00    +0.000 N 
ATOM      2  C   UNL     1       7.516   6.626  18.352  0.00  0.00    +0.000 C 
ATOM      3  O   UNL     1       8.426   6.398  19.144  0.00  0.00    +0.000 OA
ATOM      4  H   UNL     1       6.584   8.076  17.107  0.00  0.00    +0.000 HD
ENDROOT
BRANCH   2   5
ATOM      5  C   UNL     1       6.533   5.561  18.005  0.00  0.00    +0.000 A 
ATOM      6  C   UNL     1       5.633   5.152  18.995  0.00  0.00    +0.000 A 
ATOM      7  C   UNL     1       4.665   4.224  18.666  0.00  0.00    +0.000 A 
ATOM      8  C   UNL     1       3.658   3.772  19.681  0.00  0.00    +0.000 C 
ATOM      9  N   UNL     1       4.549   3.713  17.425  0.00  0.00    +0.000 NA
ATOM     10  C   UNL     1       5.384   4.125  16.458  0.00  0.00    +0.000 A 
ATOM     11  C   UNL     1       5.184   3.624  15.178  0.00  0.00    +0.000 A 
ATOM     12  C   UNL     1       5.977   4.005  14.095  0.00  0.00    +0.000 A 
ATOM     13  C   UNL     1       7.023   4.888  14.304  0.00  0.00    +0.000 A 
ATOM     14 BR   UNL     1       8.108   5.426  12.854  0.00  0.00    +0.000 Br
ATOM     15  C   UNL     1       7.262   5.392  15.580  0.00  0.00    +0.000 A 
ATOM     16  C   UNL     1       6.427   5.047  16.682  0.00  0.00    +0.000 A 
ENDBRANCH   2   5
BRANCH   1  18
ATOM     17  C   UNL     1       7.968  10.051  17.863  0.00  0.00    +0.000 C 
ATOM     18  N   UNL     1       8.271   8.806  18.018  0.00  0.00    +0.000 NA
BRANCH  17  23
ATOM     19  C   UNL     1       9.903  13.314  18.096  0.00  0.00    +0.000 A 
ATOM     20  C   UNL     1      10.942  12.898  18.939  0.00  0.00    +0.000 A 
ATOM     21  C   UNL     1      11.003  11.592  19.432  0.00  0.00    +0.000 A 
ATOM     22  C   UNL     1      10.021  10.670  19.080  0.00  0.00    +0.000 A 
ATOM     23  C   UNL     1       8.980  11.066  18.236  0.00  0.00    +0.000 A 
ATOM     24  C   UNL     1       8.912  12.390  17.745  0.00  0.00    +0.000 A 
BRANCH  19  26
ATOM     25  C   UNL     1      11.194  15.030  17.028  0.00  0.00    +0.000 C 
ATOM     26  O   UNL     1      10.015  14.625  17.714  0.00  0.00    +0.000 OA
ENDBRANCH  19  26
BRANCH  24  27
ATOM     27  O   UNL     1       7.886  12.786  16.925  0.00  0.00    +0.000 OA
ATOM     28  H   UNL     1       7.117  13.078  17.465  0.00  0.00    +0.000 HD
ENDBRANCH  24  27
ENDBRANCH  17  23
ENDBRANCH   1  18
TORSDOF 5
ENDMDL
MODEL 4
REMARK VINA RESULT:      -8.0      6.033      8.020
REMARK  Name = 
REMARK  7 active torsions:
REMARK  status: ('A' for Active; 'I' for Inactive)
REMARK    1  A    between atoms: C_1  and  O_2
REMARK    2  A    between atoms: O_2  and  C_3
REMARK    3  A    between atoms: C_7  and  C_8
REMARK    4  A    between atoms: N_9  and  N_10
REMARK    5  A    between atoms: C_11  and  C_13
REMARK    6  A    between atoms: C_15  and  C_16
REMARK    7  A    between atoms: C_25  and  O_26
REMARK                            x       y       z     vdW  Elec       q    Type
REMARK                         _______ _______ _______ _____ _____    ______ ____
ROOT
ATOM      1  N   UNL     1       2.232   7.356  19.935  0.00  0.00    +0.000 N 
ATOM      2  C   UNL     1       2.482   7.042  18.600  0.00  0.00    +0.000 C 
ATOM      3  O   UNL     1       2.126   7.762  17.671  0.00  0.00    +0.000 OA
ATOM      4  H   UNL     1       2.571   6.802  20.711  0.00  0.00    +0.000 HD
ENDROOT
BRANCH   2   5
ATOM      5  C   UNL     1       3.184   5.755  18.332  0.00  0.00    +0.000 A 
ATOM      6  C   UNL     1       2.415   4.589  18.274  0.00  0.00    +0.000 A 
ATOM      7  C   UNL     1       3.037   3.400  17.947  0.00  0.00    +0.000 A 
ATOM      8  C   UNL     1       2.256   2.125  17.845  0.00  0.00    +0.000 C 
ATOM      9  N   UNL     1       4.354   3.331  17.668  0.00  0.00    +0.000 NA
ATOM     10  C   UNL     1       5.095   4.450  17.685  0.00  0.00    +0.000 A 
ATOM     11  C   UNL     1       6.432   4.341  17.324  0.00  0.00    +0.000 A 
ATOM     12  C   UNL     1       7.285   5.444  17.283  0.00  0.00    +0.000 A 
ATOM     13  C   UNL     1       6.797   6.688  17.645  0.00  0.00    +0.000 A 
ATOM     14 BR   UNL     1       7.928   8.200  17.591  0.00  0.00    +0.000 Br
ATOM     15  C   UNL     1       5.465   6.825  18.032  0.00  0.00    +0.000 A 
ATOM     16  C   UNL     1       4.574   5.714  18.030  0.00  0.00    +0.000 A 
ENDBRANCH   2   5
BRANCH   1  18
ATOM     17  C   UNL     1       1.068   8.733  21.332  0.00  0.00    +0.000 C 
ATOM     18  N   UNL     1       1.575   8.511  20.168  0.00  0.00    +0.000 NA
BRANCH  17  23
ATOM     19  C   UNL     1      -1.240  11.406  22.738  0.00  0.00    +0.000 A 
ATOM     20  C   UNL     1      -0.898  12.467  21.889  0.00  0.00    +0.000 A 
ATOM     21  C   UNL     1       0.072  12.319  20.893  0.00  0.00    +0.000 A 
ATOM     22  C   UNL     1       0.715  11.096  20.724  0.00  0.00    +0.000 A 
ATOM     23  C   UNL     1       0.381  10.026  21.558  0.00  0.00    +0.000 A 
ATOM     24  C   UNL     1      -0.591  10.177  22.573  0.00  0.00    +0.000 A 
BRANCH  19  26
ATOM     25  C   UNL     1      -3.302  12.538  23.206  0.00  0.00    +0.000 C 
ATOM     26  O   UNL     1      -2.210  11.739  23.647  0.00  0.00    +0.000 OA
ENDBRANCH  19  26
BRANCH  24  27
ATOM     27  O   UNL     1      -0.914   9.132  23.402  0.00  0.00    +0.000 OA
ATOM     28  H   UNL     1      -1.420   8.451  22.904  0.00  0.00    +0.000 HD
ENDBRANCH  24  27
ENDBRANCH  17  23
ENDBRANCH   1  18
TORSDOF 5
ENDMDL
MODEL 5
REMARK VINA RESULT:      -7.9      6.272      7.750
REMARK  Name = 
REMARK  7 active torsions:
REMARK  status: ('A' for Active; 'I' for Inactive)
REMARK    1  A    between atoms: C_1  and  O_2
REMARK    2  A    between atoms: O_2  and  C_3
REMARK    3  A    between atoms: C_7  and  C_8
REMARK    4  A    between atoms: N_9  and  N_10
REMARK    5  A    between atoms: C_11  and  C_13
REMARK    6  A    between atoms: C_15  and  C_16
REMARK    7  A    between atoms: C_25  and  O_26
REMARK                            x       y       z     vdW  Elec       q    Type
REMARK                         _______ _______ _______ _____ _____    ______ ____
ROOT
ATOM      1  N   UNL     1       1.710   7.662  21.358  0.00  0.00    +0.000 N 
ATOM      2  C   UNL     1       2.051   7.192  20.091  0.00  0.00    +0.000 C 
ATOM      3  O   UNL     1       2.054   7.909  19.095  0.00  0.00    +0.000 OA
ATOM      4  H   UNL     1       1.761   7.097  22.196  0.00  0.00    +0.000 HD
ENDROOT
BRANCH   2   5
ATOM      5  C   UNL     1       2.389   5.744  19.979  0.00  0.00    +0.000 A 
ATOM      6  C   UNL     1       1.798   4.862  20.889  0.00  0.00    +0.000 A 
ATOM      7  C   UNL     1       2.037   3.509  20.750  0.00  0.00    +0.000 A 
ATOM      8  C   UNL     1       1.407   2.517  21.681  0.00  0.00    +0.000 C 
ATOM      9  N   UNL     1       2.805   3.012  19.760  0.00  0.00    +0.000 NA
ATOM     10  C   UNL     1       3.347   3.846  18.860  0.00  0.00    +0.000 A 
ATOM     11  C   UNL     1       4.074   3.284  17.818  0.00  0.00    +0.000 A 
ATOM     12  C   UNL     1       4.658   4.057  16.814  0.00  0.00    +0.000 A 
ATOM     13  C   UNL     1       4.541   5.436  16.871  0.00  0.00    +0.000 A 
ATOM     14 BR   UNL     1       5.316   6.506  15.520  0.00  0.00    +0.000 Br
ATOM     15  C   UNL     1       3.836   6.030  17.915  0.00  0.00    +0.000 A 
ATOM     16  C   UNL     1       3.194   5.247  18.917  0.00  0.00    +0.000 A 
ENDBRANCH   2   5
BRANCH   1  18
ATOM     17  C   UNL     1       0.164   9.306  21.695  0.00  0.00    +0.000 C 
ATOM     18  N   UNL     1       1.384   8.968  21.446  0.00  0.00    +0.000 NA
BRANCH  17  23
ATOM     19  C   UNL     1       0.093  13.056  21.077  0.00  0.00    +0.000 A 
ATOM     20  C   UNL     1      -0.742  13.440  22.135  0.00  0.00    +0.000 A 
ATOM     21  C   UNL     1      -1.281  12.500  23.017  0.00  0.00    +0.000 A 
ATOM     22  C   UNL     1      -0.985  11.149  22.860  0.00  0.00    +0.000 A 
ATOM     23  C   UNL     1      -0.149  10.748  21.815  0.00  0.00    +0.000 A 
ATOM     24  C   UNL     1       0.387  11.697  20.915  0.00  0.00    +0.000 A 
BRANCH  19  26
ATOM     25  C   UNL     1      -0.263  14.513  19.206  0.00  0.00    +0.000 C 
ATOM     26  O   UNL     1       0.524  14.114  20.322  0.00  0.00    +0.000 OA
ENDBRANCH  19  26
BRANCH  24  27
ATOM     27  O   UNL     1       1.200  11.306  19.879  0.00  0.00    +0.000 OA
ATOM     28  H   UNL     1       2.113  11.643  20.023  0.00  0.00    +0.000 HD
ENDBRANCH  24  27
ENDBRANCH  17  23
ENDBRANCH   1  18
TORSDOF 5
ENDMDL
MODEL 6
REMARK VINA RESULT:      -7.9      5.754      7.436
REMARK  Name = 
REMARK  7 active torsions:
REMARK  status: ('A' for Active; 'I' for Inactive)
REMARK    1  A    between atoms: C_1  and  O_2
REMARK    2  A    between atoms: O_2  and  C_3
REMARK    3  A    between atoms: C_7  and  C_8
REMARK    4  A    between atoms: N_9  and  N_10
REMARK    5  A    between atoms: C_11  and  C_13
REMARK    6  A    between atoms: C_15  and  C_16
REMARK    7  A    between atoms: C_25  and  O_26
REMARK                            x       y       z     vdW  Elec       q    Type
REMARK                         _______ _______ _______ _____ _____    ______ ____
ROOT
ATOM      1  N   UNL     1       2.453   7.262  19.728  0.00  0.00    +0.000 N 
ATOM      2  C   UNL     1       2.753   7.241  18.367  0.00  0.00    +0.000 C 
ATOM      3  O   UNL     1       2.391   8.123  17.594  0.00  0.00    +0.000 OA
ATOM      4  H   UNL     1       2.795   6.574  20.386  0.00  0.00    +0.000 HD
ENDROOT
BRANCH   2   5
ATOM      5  C   UNL     1       3.519   6.065  17.865  0.00  0.00    +0.000 A 
ATOM      6  C   UNL     1       4.452   6.278  16.845  0.00  0.00    +0.000 A 
ATOM      7  C   UNL     1       5.227   5.215  16.424  0.00  0.00    +0.000 A 
ATOM      8  C   UNL     1       6.261   5.393  15.354  0.00  0.00    +0.000 C 
ATOM      9  N   UNL     1       5.124   3.988  16.973  0.00  0.00    +0.000 NA
ATOM     10  C   UNL     1       4.258   3.781  17.977  0.00  0.00    +0.000 A 
ATOM     11  C   UNL     1       4.236   2.519  18.557  0.00  0.00    +0.000 A 
ATOM     12  C   UNL     1       3.393   2.204  19.624  0.00  0.00    +0.000 A 
ATOM     13  C   UNL     1       2.523   3.168  20.103  0.00  0.00    +0.000 A 
ATOM     14 BR   UNL     1       1.376   2.770  21.551  0.00  0.00    +0.000 Br
ATOM     15  C   UNL     1       2.507   4.437  19.527  0.00  0.00    +0.000 A 
ATOM     16  C   UNL     1       3.398   4.783  18.471  0.00  0.00    +0.000 A 
ENDBRANCH   2   5
BRANCH   1  18
ATOM     17  C   UNL     1       0.776   8.134  21.007  0.00  0.00    +0.000 C 
ATOM     18  N   UNL     1       1.739   8.318  20.169  0.00  0.00    +0.000 NA
BRANCH  17  23
ATOM     19  C   UNL     1      -1.035  11.474  21.111  0.00  0.00    +0.000 A 
ATOM     20  C   UNL     1      -1.304  11.539  22.485  0.00  0.00    +0.000 A 
ATOM     21  C   UNL     1      -0.919  10.514  23.353  0.00  0.00    +0.000 A 
ATOM     22  C   UNL     1      -0.245   9.400  22.859  0.00  0.00    +0.000 A 
ATOM     23  C   UNL     1       0.036   9.321  21.492  0.00  0.00    +0.000 A 
ATOM     24  C   UNL     1      -0.362  10.352  20.612  0.00  0.00    +0.000 A 
BRANCH  19  26
ATOM     25  C   UNL     1      -2.797  12.531  19.875  0.00  0.00    +0.000 C 
ATOM     26  O   UNL     1      -1.485  12.570  20.424  0.00  0.00    +0.000 OA
ENDBRANCH  19  26
BRANCH  24  27
ATOM     27  O   UNL     1      -0.097  10.273  19.267  0.00  0.00    +0.000 OA
ATOM     28  H   UNL     1       0.756   9.805  19.119  0.00  0.00    +0.000 HD
ENDBRANCH  24  27
ENDBRANCH  17  23
ENDBRANCH   1  18
TORSDOF 5
ENDMDL
MODEL 7
REMARK VINA RESULT:      -7.9      6.479      8.260
REMARK  Name = 
REMARK  7 active torsions:
REMARK  status: ('A' for Active; 'I' for Inactive)
REMARK    1  A    between atoms: C_1  and  O_2
REMARK    2  A    between atoms: O_2  and  C_3
REMARK    3  A    between atoms: C_7  and  C_8
REMARK    4  A    between atoms: N_9  and  N_10
REMARK    5  A    between atoms: C_11  and  C_13
REMARK    6  A    between atoms: C_15  and  C_16
REMARK    7  A    between atoms: C_25  and  O_26
REMARK                            x       y       z     vdW  Elec       q    Type
REMARK                         _______ _______ _______ _____ _____    ______ ____
ROOT
ATOM      1  N   UNL     1       1.497   7.612  21.197  0.00  0.00    +0.000 N 
ATOM      2  C   UNL     1       2.052   7.160  20.002  0.00  0.00    +0.000 C 
ATOM      3  O   UNL     1       2.209   7.887  19.025  0.00  0.00    +0.000 OA
ATOM      4  H   UNL     1       1.416   7.039  22.027  0.00  0.00    +0.000 HD
ENDROOT
BRANCH   2   5
ATOM      5  C   UNL     1       2.426   5.718  19.937  0.00  0.00    +0.000 A 
ATOM      6  C   UNL     1       1.851   4.850  20.870  0.00  0.00    +0.000 A 
ATOM      7  C   UNL     1       2.125   3.500  20.775  0.00  0.00    +0.000 A 
ATOM      8  C   UNL     1       1.514   2.521  21.731  0.00  0.00    +0.000 C 
ATOM      9  N   UNL     1       2.913   2.992  19.806  0.00  0.00    +0.000 NA
ATOM     10  C   UNL     1       3.441   3.812  18.884  0.00  0.00    +0.000 A 
ATOM     11  C   UNL     1       4.190   3.236  17.865  0.00  0.00    +0.000 A 
ATOM     12  C   UNL     1       4.762   3.993  16.842  0.00  0.00    +0.000 A 
ATOM     13  C   UNL     1       4.610   5.369  16.855  0.00  0.00    +0.000 A 
ATOM     14 BR   UNL     1       5.368   6.416  15.477  0.00  0.00    +0.000 Br
ATOM     15  C   UNL     1       3.882   5.977  17.875  0.00  0.00    +0.000 A 
ATOM     16  C   UNL     1       3.252   5.209  18.896  0.00  0.00    +0.000 A 
ENDBRANCH   2   5
BRANCH   1  18
ATOM     17  C   UNL     1      -0.066   9.253  20.930  0.00  0.00    +0.000 C 
ATOM     18  N   UNL     1       1.139   8.912  21.239  0.00  0.00    +0.000 NA
BRANCH  17  23
ATOM     19  C   UNL     1      -0.932  12.687  22.310  0.00  0.00    +0.000 A 
ATOM     20  C   UNL     1      -1.163  13.361  21.103  0.00  0.00    +0.000 A 
ATOM     21  C   UNL     1      -1.025  12.717  19.870  0.00  0.00    +0.000 A 
ATOM     22  C   UNL     1      -0.659  11.375  19.824  0.00  0.00    +0.000 A 
ATOM     23  C   UNL     1      -0.430  10.686  21.018  0.00  0.00    +0.000 A 
ATOM     24  C   UNL     1      -0.558  11.339  22.265  0.00  0.00    +0.000 A 
BRANCH  19  26
ATOM     25  C   UNL     1      -1.952  14.627  23.284  0.00  0.00    +0.000 C 
ATOM     26  O   UNL     1      -1.119  13.480  23.411  0.00  0.00    +0.000 OA
ENDBRANCH  19  26
BRANCH  24  27
ATOM     27  O   UNL     1      -0.323  10.669  23.440  0.00  0.00    +0.000 OA
ATOM     28  H   UNL     1       0.628  10.424  23.502  0.00  0.00    +0.000 HD
ENDBRANCH  24  27
ENDBRANCH  17  23
ENDBRANCH   1  18
TORSDOF 5
ENDMDL
MODEL 8
REMARK VINA RESULT:      -7.8      5.620      7.383
REMARK  Name = 
REMARK  7 active torsions:
REMARK  status: ('A' for Active; 'I' for Inactive)
REMARK    1  A    between atoms: C_1  and  O_2
REMARK    2  A    between atoms: O_2  and  C_3
REMARK    3  A    between atoms: C_7  and  C_8
REMARK    4  A    between atoms: N_9  and  N_10
REMARK    5  A    between atoms: C_11  and  C_13
REMARK    6  A    between atoms: C_15  and  C_16
REMARK    7  A    between atoms: C_25  and  O_26
REMARK                            x       y       z     vdW  Elec       q    Type
REMARK                         _______ _______ _______ _____ _____    ______ ____
ROOT
ATOM      1  N   UNL     1       2.417   7.492  19.724  0.00  0.00    +0.000 N 
ATOM      2  C   UNL     1       2.679   7.434  18.357  0.00  0.00    +0.000 C 
ATOM      3  O   UNL     1       2.093   8.136  17.538  0.00  0.00    +0.000 OA
ATOM      4  H   UNL     1       2.933   6.963  20.415  0.00  0.00    +0.000 HD
ENDROOT
BRANCH   2   5
ATOM      5  C   UNL     1       3.697   6.441  17.909  0.00  0.00    +0.000 A 
ATOM      6  C   UNL     1       4.965   6.916  17.559  0.00  0.00    +0.000 A 
ATOM      7  C   UNL     1       5.943   6.003  17.219  0.00  0.00    +0.000 A 
ATOM      8  C   UNL     1       7.327   6.455  16.862  0.00  0.00    +0.000 C 
ATOM      9  N   UNL     1       5.721   4.674  17.227  0.00  0.00    +0.000 NA
ATOM     10  C   UNL     1       4.518   4.205  17.595  0.00  0.00    +0.000 A 
ATOM     11  C   UNL     1       4.356   2.827  17.656  0.00  0.00    +0.000 A 
ATOM     12  C   UNL     1       3.156   2.234  18.051  0.00  0.00    +0.000 A 
ATOM     13  C   UNL     1       2.076   3.042  18.364  0.00  0.00    +0.000 A 
ATOM     14 BR   UNL     1       0.442   2.265  18.910  0.00  0.00    +0.000 Br
ATOM     15  C   UNL     1       2.202   4.427  18.293  0.00  0.00    +0.000 A 
ATOM     16  C   UNL     1       3.437   5.042  17.938  0.00  0.00    +0.000 A 
ENDBRANCH   2   5
BRANCH   1  18
ATOM     17  C   UNL     1       1.454   8.781  21.343  0.00  0.00    +0.000 C 
ATOM     18  N   UNL     1       1.477   8.377  20.118  0.00  0.00    +0.000 NA
BRANCH  17  23
ATOM     19  C   UNL     1      -0.827  11.821  21.318  0.00  0.00    +0.000 A 
ATOM     20  C   UNL     1      -1.473  11.625  22.547  0.00  0.00    +0.000 A 
ATOM     21  C   UNL     1      -1.184  10.523  23.356  0.00  0.00    +0.000 A 
ATOM     22  C   UNL     1      -0.230   9.594  22.949  0.00  0.00    +0.000 A 
ATOM     23  C   UNL     1       0.428   9.776  21.730  0.00  0.00    +0.000 A 
ATOM     24  C   UNL     1       0.128  10.885  20.906  0.00  0.00    +0.000 A 
BRANCH  19  26
ATOM     25  C   UNL     1      -2.633  13.243  20.634  0.00  0.00    +0.000 C 
ATOM     26  O   UNL     1      -1.240  12.955  20.671  0.00  0.00    +0.000 OA
ENDBRANCH  19  26
BRANCH  24  27
ATOM     27  O   UNL     1       0.764  11.061  19.702  0.00  0.00    +0.000 OA
ATOM     28  H   UNL     1       0.651  10.261  19.142  0.00  0.00    +0.000 HD
ENDBRANCH  24  27
ENDBRANCH  17  23
ENDBRANCH   1  18
TORSDOF 5
ENDMDL
MODEL 9
REMARK VINA RESULT:      -7.6      6.013      7.877
REMARK  Name = 
REMARK  7 active torsions:
REMARK  status: ('A' for Active; 'I' for Inactive)
REMARK    1  A    between atoms: C_1  and  O_2
REMARK    2  A    between atoms: O_2  and  C_3
REMARK    3  A    between atoms: C_7  and  C_8
REMARK    4  A    between atoms: N_9  and  N_10
REMARK    5  A    between atoms: C_11  and  C_13
REMARK    6  A    between atoms: C_15  and  C_16
REMARK    7  A    between atoms: C_25  and  O_26
REMARK                            x       y       z     vdW  Elec       q    Type
REMARK                         _______ _______ _______ _____ _____    ______ ____
ROOT
ATOM      1  N   UNL     1       2.168   7.937  19.373  0.00  0.00    +0.000 N 
ATOM      2  C   UNL     1       2.694   7.861  18.084  0.00  0.00    +0.000 C 
ATOM      3  O   UNL     1       2.319   8.589  17.170  0.00  0.00    +0.000 OA
ATOM      4  H   UNL     1       2.510   7.384  20.148  0.00  0.00    +0.000 HD
ENDROOT
BRANCH   2   5
ATOM      5  C   UNL     1       3.729   6.816  17.841  0.00  0.00    +0.000 A 
ATOM      6  C   UNL     1       5.028   7.239  17.540  0.00  0.00    +0.000 A 
ATOM      7  C   UNL     1       6.017   6.287  17.390  0.00  0.00    +0.000 A 
ATOM      8  C   UNL     1       7.431   6.686  17.095  0.00  0.00    +0.000 C 
ATOM      9  N   UNL     1       5.775   4.969  17.539  0.00  0.00    +0.000 NA
ATOM     10  C   UNL     1       4.540   4.555  17.863  0.00  0.00    +0.000 A 
ATOM     11  C   UNL     1       4.353   3.194  18.074  0.00  0.00    +0.000 A 
ATOM     12  C   UNL     1       3.117   2.659  18.440  0.00  0.00    +0.000 A 
ATOM     13  C   UNL     1       2.028   3.504  18.566  0.00  0.00    +0.000 A 
ATOM     14 BR   UNL     1       0.345   2.807  19.068  0.00  0.00    +0.000 Br
ATOM     15  C   UNL     1       2.180   4.871  18.341  0.00  0.00    +0.000 A 
ATOM     16  C   UNL     1       3.447   5.432  18.016  0.00  0.00    +0.000 A 
ENDBRANCH   2   5
BRANCH   1  18
ATOM     17  C   UNL     1       0.956   9.264  20.778  0.00  0.00    +0.000 C 
ATOM     18  N   UNL     1       1.215   8.869  19.578  0.00  0.00    +0.000 NA
BRANCH  17  23
ATOM     19  C   UNL     1      -1.477  11.704  22.382  0.00  0.00    +0.000 A 
ATOM     20  C   UNL     1      -2.049  12.244  21.223  0.00  0.00    +0.000 A 
ATOM     21  C   UNL     1      -1.642  11.835  19.950  0.00  0.00    +0.000 A 
ATOM     22  C   UNL     1      -0.652  10.864  19.815  0.00  0.00    +0.000 A 
ATOM     23  C   UNL     1      -0.075  10.311  20.961  0.00  0.00    +0.000 A 
ATOM     24  C   UNL     1      -0.479  10.732  22.248  0.00  0.00    +0.000 A 
BRANCH  19  26
ATOM     25  C   UNL     1      -3.421  12.252  23.675  0.00  0.00    +0.000 C 
ATOM     26  O   UNL     1      -2.006  12.225  23.534  0.00  0.00    +0.000 OA
ENDBRANCH  19  26
BRANCH  24  27
ATOM     27  O   UNL     1       0.094  10.199  23.377  0.00  0.00    +0.000 OA
ATOM     28  H   UNL     1      -0.436  10.442  24.169  0.00  0.00    +0.000 HD
ENDBRANCH  24  27
ENDBRANCH  17  23
ENDBRANCH   1  18
TORSDOF 5
ENDMDL
