MODEL 1
REMARK VINA RESULT:      -7.6      0.000      0.000
REMARK  Name = 
REMARK  9 active torsions:
REMARK  status: ('A' for Active; 'I' for Inactive)
REMARK    1  A    between atoms: C_1  and  O_2
REMARK    2  A    between atoms: O_2  and  C_3
REMARK    3  A    between atoms: C_8  and  C_9
REMARK    4  A    between atoms: C_9  and  N_10
REMARK    5  A    between atoms: C_11  and  C_13
REMARK    6  A    between atoms: C_18  and  N_19
REMARK    7  A    between atoms: N_19  and  C_20
REMARK    8  A    between atoms: N_19  and  S_21
REMARK    9  A    between atoms: S_21  and  C_22
REMARK                            x       y       z     vdW  Elec       q    Type
REMARK                         _______ _______ _______ _____ _____    ______ ____
ROOT
ATOM      1  N   UNL     1       2.007   7.530  20.259  0.00  0.00    +0.000 N 
ATOM      2  C   UNL     1       2.441   6.587  19.337  0.00  0.00    +0.000 C 
ATOM      3  O   UNL     1       2.533   6.853  18.142  0.00  0.00    +0.000 OA
ATOM      4  H   UNL     1       1.584   7.136  21.087  0.00  0.00    +0.000 HD
ENDROOT
BRANCH   2   5
ATOM      5  C   UNL     1       2.840   5.180  19.796  0.00  0.00    +0.000 A 
ATOM      6  C   UNL     1       2.020   4.617  20.808  0.00  0.00    +0.000 A 
ATOM      7  C   UNL     1       2.210   3.315  21.307  0.00  0.00    +0.000 A 
ATOM      8  C   UNL     1       3.260   2.542  20.847  0.00  0.00    +0.000 A 
ATOM      9  C   UNL     1       4.089   3.062  19.860  0.00  0.00    +0.000 A 
ATOM     10  C   UNL     1       3.867   4.348  19.302  0.00  0.00    +0.000 A 
BRANCH  10  11
ATOM     11  N   UNL     1       4.643   4.659  18.138  0.00  0.00    +0.000 N 
ATOM     12  C   UNL     1       4.528   3.697  17.014  0.00  0.00    +0.000 C 
BRANCH  11  13
ATOM     13  S   UNL     1       6.128   5.439  18.332  0.00  0.00    +0.000 S 
ATOM     14  C   UNL     1       7.302   4.532  17.348  0.00  0.00    +0.000 C 
ATOM     15  O   UNL     1       5.973   6.747  17.725  0.00  0.00    +0.000 OA
ATOM     16  O   UNL     1       6.527   5.342  19.741  0.00  0.00    +0.000 OA
ENDBRANCH  11  13
ENDBRANCH  10  11
ENDBRANCH   2   5
BRANCH   1  17
ATOM     17  C   UNL     1       1.590   8.939  19.957  0.00  0.00    +0.000 C 
BRANCH  17  23
ATOM     18  C   UNL     1      -0.124  10.761  20.765  0.00  0.00    +0.000 A 
ATOM     19  C   UNL     1      -0.955  11.249  21.797  0.00  0.00    +0.000 A 
ATOM     20  C   UNL     1      -0.953  10.648  23.063  0.00  0.00    +0.000 A 
ATOM     21  C   UNL     1      -0.127   9.562  23.302  0.00  0.00    +0.000 A 
ATOM     22  C   UNL     1       0.625   9.030  22.260  0.00  0.00    +0.000 A 
ATOM     23  C   UNL     1       0.626   9.571  20.961  0.00  0.00    +0.000 A 
BRANCH  18  25
ATOM     24  C   UNL     1      -0.567  12.077  18.773  0.00  0.00    +0.000 C 
ATOM     25  O   UNL     1       0.294  11.694  19.840  0.00  0.00    +0.000 OA
ENDBRANCH  18  25
ENDBRANCH  17  23
ENDBRANCH   1  17
TORSDOF 6
ENDMDL
MODEL 2
REMARK VINA RESULT:      -7.5      0.988      1.122
REMARK  Name = 
REMARK  9 active torsions:
REMARK  status: ('A' for Active; 'I' for Inactive)
REMARK    1  A    between atoms: C_1  and  O_2
REMARK    2  A    between atoms: O_2  and  C_3
REMARK    3  A    between atoms: C_8  and  C_9
REMARK    4  A    between atoms: C_9  and  N_10
REMARK    5  A    between atoms: C_11  and  C_13
REMARK    6  A    between atoms: C_18  and  N_19
REMARK    7  A    between atoms: N_19  and  C_20
REMARK    8  A    between atoms: N_19  and  S_21
REMARK    9  A    between atoms: S_21  and  C_22
REMARK                            x       y       z     vdW  Elec       q    Type
REMARK                         _______ _______ _______ _____ _____    ______ ____
ROOT
ATOM      1  N   UNL     1       2.031   7.405  19.873  0.00  0.00    +0.000 N 
ATOM      2  C   UNL     1       2.874   6.640  19.078  0.00  0.00    +0.000 C 
ATOM      3  O   UNL     1       3.352   7.083  18.037  0.00  0.00    +0.000 OA
ATOM      4  H   UNL     1       1.392   6.865  20.439  0.00  0.00    +0.000 HD
ENDROOT
BRANCH   2   5
ATOM      5  C   UNL     1       3.250   5.213  19.495  0.00  0.00    +0.000 A 
ATOM      6  C   UNL     1       2.334   4.576  20.372  0.00  0.00    +0.000 A 
ATOM      7  C   UNL     1       2.496   3.250  20.811  0.00  0.00    +0.000 A 
ATOM      8  C   UNL     1       3.608   2.522  20.428  0.00  0.00    +0.000 A 
ATOM      9  C   UNL     1       4.530   3.115  19.574  0.00  0.00    +0.000 A 
ATOM     10  C   UNL     1       4.344   4.429  19.072  0.00  0.00    +0.000 A 
BRANCH  10  11
ATOM     11  N   UNL     1       5.240   4.823  18.024  0.00  0.00    +0.000 N 
ATOM     12  C   UNL     1       5.038   4.146  16.719  0.00  0.00    +0.000 C 
BRANCH  11  13
ATOM     13  S   UNL     1       6.819   5.264  18.424  0.00  0.00    +0.000 S 
ATOM     14  C   UNL     1       7.109   6.842  17.653  0.00  0.00    +0.000 C 
ATOM     15  O   UNL     1       6.822   5.476  19.859  0.00  0.00    +0.000 OA
ATOM     16  O   UNL     1       7.741   4.284  17.840  0.00  0.00    +0.000 OA
ENDBRANCH  11  13
ENDBRANCH  10  11
ENDBRANCH   2   5
BRANCH   1  17
ATOM     17  C   UNL     1       1.583   8.809  19.594  0.00  0.00    +0.000 C 
BRANCH  17  23
ATOM     18  C   UNL     1       0.058  10.706  20.585  0.00  0.00    +0.000 A 
ATOM     19  C   UNL     1      -0.692  11.192  21.680  0.00  0.00    +0.000 A 
ATOM     20  C   UNL     1      -0.693  10.511  22.904  0.00  0.00    +0.000 A 
ATOM     21  C   UNL     1       0.048   9.349  23.041  0.00  0.00    +0.000 A 
ATOM     22  C   UNL     1       0.715   8.827  21.938  0.00  0.00    +0.000 A 
ATOM     23  C   UNL     1       0.713   9.450  20.676  0.00  0.00    +0.000 A 
BRANCH  18  25
ATOM     24  C   UNL     1       1.510  12.594  20.114  0.00  0.00    +0.000 C 
ATOM     25  O   UNL     1       0.517  11.661  19.703  0.00  0.00    +0.000 OA
ENDBRANCH  18  25
ENDBRANCH  17  23
ENDBRANCH   1  17
TORSDOF 6
ENDMDL
MODEL 3
REMARK VINA RESULT:      -7.4      3.498      5.676
REMARK  Name = 
REMARK  9 active torsions:
REMARK  status: ('A' for Active; 'I' for Inactive)
REMARK    1  A    between atoms: C_1  and  O_2
REMARK    2  A    between atoms: O_2  and  C_3
REMARK    3  A    between atoms: C_8  and  C_9
REMARK    4  A    between atoms: C_9  and  N_10
REMARK    5  A    between atoms: C_11  and  C_13
REMARK    6  A    between atoms: C_18  and  N_19
REMARK    7  A    between atoms: N_19  and  C_20
REMARK    8  A    between atoms: N_19  and  S_21
REMARK    9  A    between atoms: S_21  and  C_22
REMARK                            x       y       z     vdW  Elec       q    Type
REMARK                         _______ _______ _______ _____ _____    ______ ____
ROOT
ATOM      1  N   UNL     1       2.717   4.271  16.837  0.00  0.00    +0.000 N 
ATOM      2  C   UNL     1       3.910   3.561  16.807  0.00  0.00    +0.000 C 
ATOM      3  O   UNL     1       4.058   2.526  17.452  0.00  0.00    +0.000 OA
ATOM      4  H   UNL     1       2.816   5.256  16.637  0.00  0.00    +0.000 HD
ENDROOT
BRANCH   2   5
ATOM      5  C   UNL     1       5.080   4.046  15.942  0.00  0.00    +0.000 A 
ATOM      6  C   UNL     1       5.116   3.521  14.623  0.00  0.00    +0.000 A 
ATOM      7  C   UNL     1       6.088   3.900  13.680  0.00  0.00    +0.000 A 
ATOM      8  C   UNL     1       7.092   4.783  14.033  0.00  0.00    +0.000 A 
ATOM      9  C   UNL     1       7.093   5.312  15.318  0.00  0.00    +0.000 A 
ATOM     10  C   UNL     1       6.080   4.989  16.258  0.00  0.00    +0.000 A 
BRANCH  10  11
ATOM     11  N   UNL     1       6.069   5.781  17.452  0.00  0.00    +0.000 N 
ATOM     12  C   UNL     1       5.642   7.193  17.281  0.00  0.00    +0.000 C 
BRANCH  11  13
ATOM     13  S   UNL     1       7.214   5.465  18.652  0.00  0.00    +0.000 S 
ATOM     14  C   UNL     1       8.210   6.934  18.792  0.00  0.00    +0.000 C 
ATOM     15  O   UNL     1       6.468   5.329  19.888  0.00  0.00    +0.000 OA
ATOM     16  O   UNL     1       8.070   4.362  18.203  0.00  0.00    +0.000 OA
ENDBRANCH  11  13
ENDBRANCH  10  11
ENDBRANCH   2   5
BRANCH   1  17
ATOM     17  C   UNL     1       1.495   3.916  17.630  0.00  0.00    +0.000 C 
BRANCH  17  23
ATOM     18  C   UNL     1       2.220   4.870  19.970  0.00  0.00    +0.000 A 
ATOM     19  C   UNL     1       2.373   4.652  21.357  0.00  0.00    +0.000 A 
ATOM     20  C   UNL     1       2.130   3.389  21.914  0.00  0.00    +0.000 A 
ATOM     21  C   UNL     1       1.734   2.345  21.095  0.00  0.00    +0.000 A 
ATOM     22  C   UNL     1       1.500   2.584  19.745  0.00  0.00    +0.000 A 
ATOM     23  C   UNL     1       1.689   3.843  19.145  0.00  0.00    +0.000 A 
BRANCH  18  25
ATOM     24  C   UNL     1       2.499   7.136  19.145  0.00  0.00    +0.000 C 
ATOM     25  O   UNL     1       3.028   5.845  19.423  0.00  0.00    +0.000 OA
ENDBRANCH  18  25
ENDBRANCH  17  23
ENDBRANCH   1  17
TORSDOF 6
ENDMDL
MODEL 4
REMARK VINA RESULT:      -7.4      1.567      2.482
REMARK  Name = 
REMARK  9 active torsions:
REMARK  status: ('A' for Active; 'I' for Inactive)
REMARK    1  A    between atoms: C_1  and  O_2
REMARK    2  A    between atoms: O_2  and  C_3
REMARK    3  A    between atoms: C_8  and  C_9
REMARK    4  A    between atoms: C_9  and  N_10
REMARK    5  A    between atoms: C_11  and  C_13
REMARK    6  A    between atoms: C_18  and  N_19
REMARK    7  A    between atoms: N_19  and  C_20
REMARK    8  A    between atoms: N_19  and  S_21
REMARK    9  A    between atoms: S_21  and  C_22
REMARK                            x       y       z     vdW  Elec       q    Type
REMARK                         _______ _______ _______ _____ _____    ______ ____
ROOT
ATOM      1  N   UNL     1       2.172   7.610  18.433  0.00  0.00    +0.000 N 
ATOM      2  C   UNL     1       3.265   6.827  18.089  0.00  0.00    +0.000 C 
ATOM      3  O   UNL     1       4.095   7.208  17.267  0.00  0.00    +0.000 OA
ATOM      4  H   UNL     1       1.375   7.086  18.766  0.00  0.00    +0.000 HD
ENDROOT
BRANCH   2   5
ATOM      5  C   UNL     1       3.479   5.460  18.750  0.00  0.00    +0.000 A 
ATOM      6  C   UNL     1       2.384   4.979  19.514  0.00  0.00    +0.000 A 
ATOM      7  C   UNL     1       2.389   3.721  20.143  0.00  0.00    +0.000 A 
ATOM      8  C   UNL     1       3.510   2.914  20.073  0.00  0.00    +0.000 A 
ATOM      9  C   UNL     1       4.604   3.355  19.339  0.00  0.00    +0.000 A 
ATOM     10  C   UNL     1       4.586   4.592  18.645  0.00  0.00    +0.000 A 
BRANCH  10  11
ATOM     11  N   UNL     1       5.678   4.811  17.742  0.00  0.00    +0.000 N 
ATOM     12  C   UNL     1       5.678   3.970  16.520  0.00  0.00    +0.000 C 
BRANCH  11  13
ATOM     13  S   UNL     1       7.181   5.251  18.372  0.00  0.00    +0.000 S 
ATOM     14  C   UNL     1       7.548   6.863  17.712  0.00  0.00    +0.000 C 
ATOM     15  O   UNL     1       6.985   5.402  19.801  0.00  0.00    +0.000 OA
ATOM     16  O   UNL     1       8.190   4.306  17.880  0.00  0.00    +0.000 OA
ENDBRANCH  11  13
ENDBRANCH  10  11
ENDBRANCH   2   5
BRANCH   1  17
ATOM     17  C   UNL     1       1.840   8.962  17.875  0.00  0.00    +0.000 C 
BRANCH  17  23
ATOM     18  C   UNL     1       0.692   9.857  20.064  0.00  0.00    +0.000 A 
ATOM     19  C   UNL     1      -0.356  10.603  20.649  0.00  0.00    +0.000 A 
ATOM     20  C   UNL     1      -1.380  11.139  19.857  0.00  0.00    +0.000 A 
ATOM     21  C   UNL     1      -1.364  10.936  18.487  0.00  0.00    +0.000 A 
ATOM     22  C   UNL     1      -0.286  10.276  17.905  0.00  0.00    +0.000 A 
ATOM     23  C   UNL     1       0.788   9.756  18.651  0.00  0.00    +0.000 A 
BRANCH  18  25
ATOM     24  C   UNL     1       1.351   9.087  22.270  0.00  0.00    +0.000 C 
ATOM     25  O   UNL     1       1.255   8.886  20.865  0.00  0.00    +0.000 OA
ENDBRANCH  18  25
ENDBRANCH  17  23
ENDBRANCH   1  17
TORSDOF 6
ENDMDL
MODEL 5
REMARK VINA RESULT:      -7.4      1.997      2.907
REMARK  Name = 
REMARK  9 active torsions:
REMARK  status: ('A' for Active; 'I' for Inactive)
REMARK    1  A    between atoms: C_1  and  O_2
REMARK    2  A    between atoms: O_2  and  C_3
REMARK    3  A    between atoms: C_8  and  C_9
REMARK    4  A    between atoms: C_9  and  N_10
REMARK    5  A    between atoms: C_11  and  C_13
REMARK    6  A    between atoms: C_18  and  N_19
REMARK    7  A    between atoms: N_19  and  C_20
REMARK    8  A    between atoms: N_19  and  S_21
REMARK    9  A    between atoms: S_21  and  C_22
REMARK                            x       y       z     vdW  Elec       q    Type
REMARK                         _______ _______ _______ _____ _____    ______ ____
ROOT
ATOM      1  N   UNL     1       2.433   8.129  17.715  0.00  0.00    +0.000 N 
ATOM      2  C   UNL     1       2.590   7.113  18.647  0.00  0.00    +0.000 C 
ATOM      3  O   UNL     1       2.568   7.340  19.854  0.00  0.00    +0.000 OA
ATOM      4  H   UNL     1       2.859   7.939  16.818  0.00  0.00    +0.000 HD
ENDROOT
BRANCH   2   5
ATOM      5  C   UNL     1       2.777   5.662  18.189  0.00  0.00    +0.000 A 
ATOM      6  C   UNL     1       1.615   4.850  18.260  0.00  0.00    +0.000 A 
ATOM      7  C   UNL     1       1.595   3.511  17.829  0.00  0.00    +0.000 A 
ATOM      8  C   UNL     1       2.749   2.915  17.356  0.00  0.00    +0.000 A 
ATOM      9  C   UNL     1       3.909   3.678  17.278  0.00  0.00    +0.000 A 
ATOM     10  C   UNL     1       3.926   5.048  17.647  0.00  0.00    +0.000 A 
BRANCH  10  11
ATOM     11  N   UNL     1       5.115   5.768  17.296  0.00  0.00    +0.000 N 
ATOM     12  C   UNL     1       5.172   6.270  15.900  0.00  0.00    +0.000 C 
BRANCH  11  13
ATOM     13  S   UNL     1       6.577   5.329  18.014  0.00  0.00    +0.000 S 
ATOM     14  C   UNL     1       7.563   6.809  18.090  0.00  0.00    +0.000 C 
ATOM     15  O   UNL     1       6.254   4.953  19.377  0.00  0.00    +0.000 OA
ATOM     16  O   UNL     1       7.255   4.362  17.143  0.00  0.00    +0.000 OA
ENDBRANCH  11  13
ENDBRANCH  10  11
ENDBRANCH   2   5
BRANCH   1  17
ATOM     17  C   UNL     1       2.238   9.586  18.016  0.00  0.00    +0.000 C 
BRANCH  17  23
ATOM     18  C   UNL     1       0.356  10.540  19.583  0.00  0.00    +0.000 A 
ATOM     19  C   UNL     1      -1.010  10.854  19.761  0.00  0.00    +0.000 A 
ATOM     20  C   UNL     1      -1.954  10.524  18.780  0.00  0.00    +0.000 A 
ATOM     21  C   UNL     1      -1.542   9.884  17.623  0.00  0.00    +0.000 A 
ATOM     22  C   UNL     1      -0.186   9.654  17.412  0.00  0.00    +0.000 A 
ATOM     23  C   UNL     1       0.805  10.004  18.347  0.00  0.00    +0.000 A 
BRANCH  18  25
ATOM     24  C   UNL     1       0.513   9.502  21.773  0.00  0.00    +0.000 C 
ATOM     25  O   UNL     1       1.072  10.304  20.738  0.00  0.00    +0.000 OA
ENDBRANCH  18  25
ENDBRANCH  17  23
ENDBRANCH   1  17
TORSDOF 6
ENDMDL
MODEL 6
REMARK VINA RESULT:      -7.4      1.840      2.112
REMARK  Name = 
REMARK  9 active torsions:
REMARK  status: ('A' for Active; 'I' for Inactive)
REMARK    1  A    between atoms: C_1  and  O_2
REMARK    2  A    between atoms: O_2  and  C_3
REMARK    3  A    between atoms: C_8  and  C_9
REMARK    4  A    between atoms: C_9  and  N_10
REMARK    5  A    between atoms: C_11  and  C_13
REMARK    6  A    between atoms: C_18  and  N_19
REMARK    7  A    between atoms: N_19  and  C_20
REMARK    8  A    between atoms: N_19  and  S_21
REMARK    9  A    between atoms: S_21  and  C_22
REMARK                            x       y       z     vdW  Elec       q    Type
REMARK                         _______ _______ _______ _____ _____    ______ ____
ROOT
ATOM      1  N   UNL     1       1.974   7.592  18.156  0.00  0.00    +0.000 N 
ATOM      2  C   UNL     1       3.175   6.966  17.850  0.00  0.00    +0.000 C 
ATOM      3  O   UNL     1       4.205   7.608  17.661  0.00  0.00    +0.000 OA
ATOM      4  H   UNL     1       1.153   7.065  17.893  0.00  0.00    +0.000 HD
ENDROOT
BRANCH   2   5
ATOM      5  C   UNL     1       3.252   5.437  17.759  0.00  0.00    +0.000 A 
ATOM      6  C   UNL     1       2.044   4.751  18.052  0.00  0.00    +0.000 A 
ATOM      7  C   UNL     1       1.922   3.352  17.965  0.00  0.00    +0.000 A 
ATOM      8  C   UNL     1       3.018   2.579  17.629  0.00  0.00    +0.000 A 
ATOM      9  C   UNL     1       4.220   3.215  17.342  0.00  0.00    +0.000 A 
ATOM     10  C   UNL     1       4.338   4.629  17.361  0.00  0.00    +0.000 A 
BRANCH  10  11
ATOM     11  N   UNL     1       5.556   5.156  16.819  0.00  0.00    +0.000 N 
ATOM     12  C   UNL     1       5.735   4.980  15.356  0.00  0.00    +0.000 C 
BRANCH  11  13
ATOM     13  S   UNL     1       6.949   5.133  17.771  0.00  0.00    +0.000 S 
ATOM     14  C   UNL     1       7.529   6.815  17.850  0.00  0.00    +0.000 C 
ATOM     15  O   UNL     1       6.515   4.762  19.104  0.00  0.00    +0.000 OA
ATOM     16  O   UNL     1       7.966   4.321  17.094  0.00  0.00    +0.000 OA
ENDBRANCH  11  13
ENDBRANCH  10  11
ENDBRANCH   2   5
BRANCH   1  17
ATOM     17  C   UNL     1       1.753   9.070  18.281  0.00  0.00    +0.000 C 
BRANCH  17  23
ATOM     18  C   UNL     1       0.577  10.829  19.841  0.00  0.00    +0.000 A 
ATOM     19  C   UNL     1       0.007  11.122  21.100  0.00  0.00    +0.000 A 
ATOM     20  C   UNL     1       0.048  10.183  22.140  0.00  0.00    +0.000 A 
ATOM     21  C   UNL     1       0.653   8.955  21.929  0.00  0.00    +0.000 A 
ATOM     22  C   UNL     1       1.136   8.637  20.664  0.00  0.00    +0.000 A 
ATOM     23  C   UNL     1       1.081   9.528  19.576  0.00  0.00    +0.000 A 
BRANCH  18  25
ATOM     24  C   UNL     1       0.756  13.234  19.564  0.00  0.00    +0.000 C 
ATOM     25  O   UNL     1       1.057  11.911  19.134  0.00  0.00    +0.000 OA
ENDBRANCH  18  25
ENDBRANCH  17  23
ENDBRANCH   1  17
TORSDOF 6
ENDMDL
MODEL 7
REMARK VINA RESULT:      -7.3      2.136      2.884
REMARK  Name = 
REMARK  9 active torsions:
REMARK  status: ('A' for Active; 'I' for Inactive)
REMARK    1  A    between atoms: C_1  and  O_2
REMARK    2  A    between atoms: O_2  and  C_3
REMARK    3  A    between atoms: C_8  and  C_9
REMARK    4  A    between atoms: C_9  and  N_10
REMARK    5  A    between atoms: C_11  and  C_13
REMARK    6  A    between atoms: C_18  and  N_19
REMARK    7  A    between atoms: N_19  and  C_20
REMARK    8  A    between atoms: N_19  and  S_21
REMARK    9  A    between atoms: S_21  and  C_22
REMARK                            x       y       z     vdW  Elec       q    Type
REMARK                         _______ _______ _______ _____ _____    ______ ____
ROOT
ATOM      1  N   UNL     1       2.101   7.849  17.742  0.00  0.00    +0.000 N 
ATOM      2  C   UNL     1       3.333   7.210  17.708  0.00  0.00    +0.000 C 
ATOM      3  O   UNL     1       4.385   7.843  17.734  0.00  0.00    +0.000 OA
ATOM      4  H   UNL     1       1.349   7.324  17.318  0.00  0.00    +0.000 HD
ENDROOT
BRANCH   2   5
ATOM      5  C   UNL     1       3.411   5.680  17.658  0.00  0.00    +0.000 A 
ATOM      6  C   UNL     1       2.278   4.997  18.172  0.00  0.00    +0.000 A 
ATOM      7  C   UNL     1       2.160   3.596  18.155  0.00  0.00    +0.000 A 
ATOM      8  C   UNL     1       3.194   2.818  17.667  0.00  0.00    +0.000 A 
ATOM      9  C   UNL     1       4.323   3.450  17.161  0.00  0.00    +0.000 A 
ATOM     10  C   UNL     1       4.426   4.865  17.112  0.00  0.00    +0.000 A 
BRANCH  10  11
ATOM     11  N   UNL     1       5.529   5.379  16.355  0.00  0.00    +0.000 N 
ATOM     12  C   UNL     1       5.546   5.014  14.916  0.00  0.00    +0.000 C 
BRANCH  11  13
ATOM     13  S   UNL     1       7.023   5.567  17.117  0.00  0.00    +0.000 S 
ATOM     14  C   UNL     1       6.718   5.411  18.864  0.00  0.00    +0.000 C 
ATOM     15  O   UNL     1       7.822   4.425  16.713  0.00  0.00    +0.000 OA
ATOM     16  O   UNL     1       7.519   6.921  16.850  0.00  0.00    +0.000 OA
ENDBRANCH  11  13
ENDBRANCH  10  11
ENDBRANCH   2   5
BRANCH   1  17
ATOM     17  C   UNL     1       1.872   9.331  17.796  0.00  0.00    +0.000 C 
BRANCH  17  23
ATOM     18  C   UNL     1       1.193   9.441  20.333  0.00  0.00    +0.000 A 
ATOM     19  C   UNL     1       0.322   9.957  21.319  0.00  0.00    +0.000 A 
ATOM     20  C   UNL     1      -0.780  10.744  20.959  0.00  0.00    +0.000 A 
ATOM     21  C   UNL     1      -1.016  11.020  19.622  0.00  0.00    +0.000 A 
ATOM     22  C   UNL     1      -0.109  10.584  18.661  0.00  0.00    +0.000 A 
ATOM     23  C   UNL     1       1.034   9.826  18.975  0.00  0.00    +0.000 A 
BRANCH  18  25
ATOM     24  C   UNL     1       1.041   7.150  21.122  0.00  0.00    +0.000 C 
ATOM     25  O   UNL     1       1.810   8.248  20.644  0.00  0.00    +0.000 OA
ENDBRANCH  18  25
ENDBRANCH  17  23
ENDBRANCH   1  17
TORSDOF 6
ENDMDL
MODEL 8
REMARK VINA RESULT:      -7.2      2.106      2.905
REMARK  Name = 
REMARK  9 active torsions:
REMARK  status: ('A' for Active; 'I' for Inactive)
REMARK    1  A    between atoms: C_1  and  O_2
REMARK    2  A    between atoms: O_2  and  C_3
REMARK    3  A    between atoms: C_8  and  C_9
REMARK    4  A    between atoms: C_9  and  N_10
REMARK    5  A    between atoms: C_11  and  C_13
REMARK    6  A    between atoms: C_18  and  N_19
REMARK    7  A    between atoms: N_19  and  C_20
REMARK    8  A    between atoms: N_19  and  S_21
REMARK    9  A    between atoms: S_21  and  C_22
REMARK                            x       y       z     vdW  Elec       q    Type
REMARK                         _______ _______ _______ _____ _____    ______ ____
ROOT
ATOM      1  N   UNL     1       2.455   7.415  17.651  0.00  0.00    +0.000 N 
ATOM      2  C   UNL     1       3.246   6.525  18.365  0.00  0.00    +0.000 C 
ATOM      3  O   UNL     1       4.014   6.911  19.243  0.00  0.00    +0.000 OA
ATOM      4  H   UNL     1       2.191   7.089  16.732  0.00  0.00    +0.000 HD
ENDROOT
BRANCH   2   5
ATOM      5  C   UNL     1       3.164   5.019  18.089  0.00  0.00    +0.000 A 
ATOM      6  C   UNL     1       1.950   4.397  18.478  0.00  0.00    +0.000 A 
ATOM      7  C   UNL     1       1.685   3.034  18.250  0.00  0.00    +0.000 A 
ATOM      8  C   UNL     1       2.645   2.228  17.666  0.00  0.00    +0.000 A 
ATOM      9  C   UNL     1       3.850   2.802  17.277  0.00  0.00    +0.000 A 
ATOM     10  C   UNL     1       4.103   4.188  17.442  0.00  0.00    +0.000 A 
BRANCH  10  11
ATOM     11  N   UNL     1       5.278   4.685  16.787  0.00  0.00    +0.000 N 
ATOM     12  C   UNL     1       5.421   4.312  15.357  0.00  0.00    +0.000 C 
BRANCH  11  13
ATOM     13  S   UNL     1       6.698   4.858  17.682  0.00  0.00    +0.000 S 
ATOM     14  C   UNL     1       7.046   6.602  17.737  0.00  0.00    +0.000 C 
ATOM     15  O   UNL     1       6.372   4.438  19.031  0.00  0.00    +0.000 OA
ATOM     16  O   UNL     1       7.788   4.188  16.964  0.00  0.00    +0.000 OA
ENDBRANCH  11  13
ENDBRANCH  10  11
ENDBRANCH   2   5
BRANCH   1  17
ATOM     17  C   UNL     1       2.426   8.905  17.816  0.00  0.00    +0.000 C 
BRANCH  17  23
ATOM     18  C   UNL     1       0.989   9.462  19.946  0.00  0.00    +0.000 A 
ATOM     19  C   UNL     1      -0.210   9.987  20.479  0.00  0.00    +0.000 A 
ATOM     20  C   UNL     1      -1.250  10.393  19.634  0.00  0.00    +0.000 A 
ATOM     21  C   UNL     1      -1.101  10.281  18.262  0.00  0.00    +0.000 A 
ATOM     22  C   UNL     1       0.112   9.845  17.738  0.00  0.00    +0.000 A 
ATOM     23  C   UNL     1       1.202   9.465  18.542  0.00  0.00    +0.000 A 
BRANCH  18  25
ATOM     24  C   UNL     1       0.950   7.435  21.282  0.00  0.00    +0.000 C 
ATOM     25  O   UNL     1       1.650   8.550  20.742  0.00  0.00    +0.000 OA
ENDBRANCH  18  25
ENDBRANCH  17  23
ENDBRANCH   1  17
TORSDOF 6
ENDMDL
MODEL 9
REMARK VINA RESULT:      -7.2      2.014      3.838
REMARK  Name = 
REMARK  9 active torsions:
REMARK  status: ('A' for Active; 'I' for Inactive)
REMARK    1  A    between atoms: C_1  and  O_2
REMARK    2  A    between atoms: O_2  and  C_3
REMARK    3  A    between atoms: C_8  and  C_9
REMARK    4  A    between atoms: C_9  and  N_10
REMARK    5  A    between atoms: C_11  and  C_13
REMARK    6  A    between atoms: C_18  and  N_19
REMARK    7  A    between atoms: N_19  and  C_20
REMARK    8  A    between atoms: N_19  and  S_21
REMARK    9  A    between atoms: S_21  and  C_22
REMARK                            x       y       z     vdW  Elec       q    Type
REMARK                         _______ _______ _______ _____ _____    ______ ____
ROOT
ATOM      1  N   UNL     1       2.991   6.463  19.299  0.00  0.00    +0.000 N 
ATOM      2  C   UNL     1       2.736   5.679  18.182  0.00  0.00    +0.000 C 
ATOM      3  O   UNL     1       1.592   5.368  17.863  0.00  0.00    +0.000 OA
ATOM      4  H   UNL     1       3.907   6.325  19.702  0.00  0.00    +0.000 HD
ENDROOT
BRANCH   2   5
ATOM      5  C   UNL     1       3.889   5.194  17.295  0.00  0.00    +0.000 A 
ATOM      6  C   UNL     1       4.546   6.206  16.547  0.00  0.00    +0.000 A 
ATOM      7  C   UNL     1       5.657   5.945  15.725  0.00  0.00    +0.000 A 
ATOM      8  C   UNL     1       6.126   4.653  15.580  0.00  0.00    +0.000 A 
ATOM      9  C   UNL     1       5.504   3.634  16.292  0.00  0.00    +0.000 A 
ATOM     10  C   UNL     1       4.425   3.894  17.176  0.00  0.00    +0.000 A 
BRANCH  10  11
ATOM     11  N   UNL     1       4.037   2.801  18.018  0.00  0.00    +0.000 N 
ATOM     12  C   UNL     1       2.764   2.130  17.653  0.00  0.00    +0.000 C 
BRANCH  11  13
ATOM     13  S   UNL     1       4.435   2.853  19.658  0.00  0.00    +0.000 S 
ATOM     14  C   UNL     1       2.898   3.019  20.540  0.00  0.00    +0.000 C 
ATOM     15  O   UNL     1       4.978   1.546  19.977  0.00  0.00    +0.000 OA
ATOM     16  O   UNL     1       5.246   4.050  19.905  0.00  0.00    +0.000 OA
ENDBRANCH  11  13
ENDBRANCH  10  11
ENDBRANCH   2   5
BRANCH   1  17
ATOM     17  C   UNL     1       1.968   7.009  20.250  0.00  0.00    +0.000 C 
BRANCH  17  23
ATOM     18  C   UNL     1       0.948   9.322  20.974  0.00  0.00    +0.000 A 
ATOM     19  C   UNL     1       0.610  10.647  20.617  0.00  0.00    +0.000 A 
ATOM     20  C   UNL     1       0.765  11.094  19.299  0.00  0.00    +0.000 A 
ATOM     21  C   UNL     1       1.256  10.229  18.336  0.00  0.00    +0.000 A 
ATOM     22  C   UNL     1       1.669   8.953  18.707  0.00  0.00    +0.000 A 
ATOM     23  C   UNL     1       1.573   8.470  20.025  0.00  0.00    +0.000 A 
BRANCH  18  25
ATOM     24  C   UNL     1      -0.189   9.605  23.101  0.00  0.00    +0.000 C 
ATOM     25  O   UNL     1       0.229   8.780  22.019  0.00  0.00    +0.000 OA
ENDBRANCH  18  25
ENDBRANCH  17  23
ENDBRANCH   1  17
TORSDOF 6
ENDMDL
