MODEL 1
REMARK VINA RESULT:      -8.8      0.000      0.000
REMARK  Name = 
REMARK  10 active torsions:
REMARK  status: ('A' for Active; 'I' for Inactive)
REMARK    1  A    between atoms: C_1  and  C_2
REMARK    2  A    between atoms: C_2  and  S_3
REMARK    3  A    between atoms: S_3  and  C_6
REMARK    4  A    between atoms: C_9  and  C_10
REMARK    5  A    between atoms: C_10  and  C_11
REMARK    6  A    between atoms: N_13  and  C_14
REMARK    7  A    between atoms: C_17  and  C_18
REMARK    8  A    between atoms: C_18  and  C_19
REMARK    9  A    between atoms: C_19  and  N_20
REMARK   10  A    between atoms: C_25  and  C_26
REMARK                            x       y       z     vdW  Elec       q    Type
REMARK                         _______ _______ _______ _____ _____    ______ ____
ROOT
ATOM      1  C   UNL     1       0.141   9.610  20.487  0.00  0.00    +0.000 A 
ATOM      2  C   UNL     1       0.192  10.033  19.155  0.00  0.00    +0.000 A 
ATOM      3  C   UNL     1       1.096   9.487  18.216  0.00  0.00    +0.000 A 
ATOM      4  C   UNL     1       2.002   8.492  18.572  0.00  0.00    +0.000 A 
ATOM      5  C   UNL     1       1.885   7.986  19.889  0.00  0.00    +0.000 A 
ATOM      6  C   UNL     1       0.982   8.545  20.836  0.00  0.00    +0.000 A 
ENDROOT
BRANCH   1   9
ATOM      7  C   UNL     1      -0.433  11.486  22.069  0.00  0.00    +0.000 C 
ATOM      8  O   UNL     1       0.413  12.298  21.687  0.00  0.00    +0.000 OA
ATOM      9  N   UNL     1      -0.676  10.246  21.480  0.00  0.00    +0.000 N 
ATOM     10  H   UNL     1      -1.499   9.735  21.780  0.00  0.00    +0.000 HD
BRANCH   7  11
ATOM     11  C   UNL     1      -1.284  11.855  23.287  0.00  0.00    +0.000 C 
BRANCH  11  15
ATOM     12  C   UNL     1      -5.363  12.984  22.309  0.00  0.00    +0.000 A 
ATOM     13  C   UNL     1      -5.006  12.786  23.640  0.00  0.00    +0.000 A 
ATOM     14  C   UNL     1      -3.692  12.428  23.972  0.00  0.00    +0.000 A 
ATOM     15  C   UNL     1      -2.724  12.230  22.987  0.00  0.00    +0.000 A 
ATOM     16  C   UNL     1      -3.099  12.473  21.636  0.00  0.00    +0.000 A 
ATOM     17  C   UNL     1      -4.411  12.839  21.301  0.00  0.00    +0.000 A 
BRANCH  12  18
ATOM     18  S   UNL     1      -7.052  13.310  21.890  0.00  0.00    +0.000 S 
ATOM     19  O   UNL     1      -7.216  14.751  21.812  0.00  0.00    +0.000 OA
ATOM     20  O   UNL     1      -7.892  12.514  22.772  0.00  0.00    +0.000 OA
BRANCH  18  22
ATOM     21  C   UNL     1      -7.520  13.766  19.218  0.00  0.00    +0.000 C 
ATOM     22  C   UNL     1      -7.244  12.662  20.229  0.00  0.00    +0.000 C 
ENDBRANCH  18  22
ENDBRANCH  12  18
ENDBRANCH  11  15
ENDBRANCH   7  11
ENDBRANCH   1   9
BRANCH   4  23
ATOM     23  C   UNL     1       3.042   7.938  17.589  0.00  0.00    +0.000 C 
BRANCH  23  24
ATOM     24  C   UNL     1       4.048   6.745  17.918  0.00  0.00    +0.000 C 
BRANCH  24  25
ATOM     25  N   UNL     1       3.691   5.336  17.514  0.00  0.00    +0.000 N 
ATOM     26  C   UNL     1       4.815   4.419  17.293  0.00  0.00    +0.000 C 
ATOM     27  C   UNL     1       5.376   3.896  18.616  0.00  0.00    +0.000 C 
ATOM     28  C   UNL     1       4.292   3.106  19.316  0.00  0.00    +0.000 C 
ATOM     29  C   UNL     1       3.062   4.016  19.526  0.00  0.00    +0.000 A 
ATOM     30  C   UNL     1       2.085   3.449  20.370  0.00  0.00    +0.000 A 
ATOM     31  C   UNL     1       2.250   3.442  21.859  0.00  0.00    +0.000 C 
ATOM     32  C   UNL     1       0.987   2.869  19.755  0.00  0.00    +0.000 A 
ATOM     33  C   UNL     1       0.741   3.179  18.418  0.00  0.00    +0.000 A 
ATOM     34  C   UNL     1       1.531   4.143  17.742  0.00  0.00    +0.000 A 
ATOM     35  C   UNL     1       2.706   4.652  18.315  0.00  0.00    +0.000 A 
ENDBRANCH  24  25
ENDBRANCH  23  24
ENDBRANCH   4  23
TORSDOF 8
ENDMDL
MODEL 2
REMARK VINA RESULT:      -8.5      1.764      3.306
REMARK  Name = 
REMARK  10 active torsions:
REMARK  status: ('A' for Active; 'I' for Inactive)
REMARK    1  A    between atoms: C_1  and  C_2
REMARK    2  A    between atoms: C_2  and  S_3
REMARK    3  A    between atoms: S_3  and  C_6
REMARK    4  A    between atoms: C_9  and  C_10
REMARK    5  A    between atoms: C_10  and  C_11
REMARK    6  A    between atoms: N_13  and  C_14
REMARK    7  A    between atoms: C_17  and  C_18
REMARK    8  A    between atoms: C_18  and  C_19
REMARK    9  A    between atoms: C_19  and  N_20
REMARK   10  A    between atoms: C_25  and  C_26
REMARK                            x       y       z     vdW  Elec       q    Type
REMARK                         _______ _______ _______ _____ _____    ______ ____
ROOT
ATOM      1  C   UNL     1      -0.107  10.948  20.882  0.00  0.00    +0.000 A 
ATOM      2  C   UNL     1       0.614   9.822  21.293  0.00  0.00    +0.000 A 
ATOM      3  C   UNL     1       1.210   8.923  20.380  0.00  0.00    +0.000 A 
ATOM      4  C   UNL     1       1.105   9.106  19.004  0.00  0.00    +0.000 A 
ATOM      5  C   UNL     1       0.467  10.298  18.582  0.00  0.00    +0.000 A 
ATOM      6  C   UNL     1      -0.142  11.196  19.503  0.00  0.00    +0.000 A 
ENDROOT
BRANCH   1   9
ATOM      7  C   UNL     1      -0.512  13.112  22.106  0.00  0.00    +0.000 C 
ATOM      8  O   UNL     1       0.316  13.805  21.510  0.00  0.00    +0.000 OA
ATOM      9  N   UNL     1      -0.828  11.792  21.790  0.00  0.00    +0.000 N 
ATOM     10  H   UNL     1      -1.634  11.378  22.244  0.00  0.00    +0.000 HD
BRANCH   7  11
ATOM     11  C   UNL     1      -1.255  13.740  23.288  0.00  0.00    +0.000 C 
BRANCH  11  15
ATOM     12  C   UNL     1      -5.528  12.970  23.430  0.00  0.00    +0.000 A 
ATOM     13  C   UNL     1      -5.002  13.731  22.390  0.00  0.00    +0.000 A 
ATOM     14  C   UNL     1      -3.624  13.982  22.327  0.00  0.00    +0.000 A 
ATOM     15  C   UNL     1      -2.756  13.510  23.312  0.00  0.00    +0.000 A 
ATOM     16  C   UNL     1      -3.307  12.703  24.345  0.00  0.00    +0.000 A 
ATOM     17  C   UNL     1      -4.684  12.443  24.407  0.00  0.00    +0.000 A 
BRANCH  12  18
ATOM     18  S   UNL     1      -7.281  12.765  23.572  0.00  0.00    +0.000 S 
ATOM     19  O   UNL     1      -7.789  13.865  24.372  0.00  0.00    +0.000 OA
ATOM     20  O   UNL     1      -7.539  11.385  23.958  0.00  0.00    +0.000 OA
BRANCH  18  22
ATOM     21  C   UNL     1      -7.805  11.705  21.089  0.00  0.00    +0.000 C 
ATOM     22  C   UNL     1      -7.904  12.986  21.905  0.00  0.00    +0.000 C 
ENDBRANCH  18  22
ENDBRANCH  12  18
ENDBRANCH  11  15
ENDBRANCH   7  11
ENDBRANCH   1   9
BRANCH   4  23
ATOM     23  C   UNL     1       1.679   8.103  17.995  0.00  0.00    +0.000 C 
BRANCH  23  24
ATOM     24  C   UNL     1       3.237   7.858  17.755  0.00  0.00    +0.000 C 
BRANCH  24  25
ATOM     25  N   UNL     1       3.914   6.674  18.400  0.00  0.00    +0.000 N 
ATOM     26  C   UNL     1       3.035   5.597  18.868  0.00  0.00    +0.000 C 
ATOM     27  C   UNL     1       2.580   4.706  17.712  0.00  0.00    +0.000 C 
ATOM     28  C   UNL     1       3.800   4.048  17.107  0.00  0.00    +0.000 C 
ATOM     29  C   UNL     1       4.785   5.143  16.644  0.00  0.00    +0.000 A 
ATOM     30  C   UNL     1       5.848   4.645  15.863  0.00  0.00    +0.000 A 
ATOM     31  C   UNL     1       5.657   4.298  14.417  0.00  0.00    +0.000 C 
ATOM     32  C   UNL     1       7.063   4.457  16.503  0.00  0.00    +0.000 A 
ATOM     33  C   UNL     1       7.259   5.079  17.736  0.00  0.00    +0.000 A 
ATOM     34  C   UNL     1       6.284   5.963  18.264  0.00  0.00    +0.000 A 
ATOM     35  C   UNL     1       5.012   6.074  17.683  0.00  0.00    +0.000 A 
ENDBRANCH  24  25
ENDBRANCH  23  24
ENDBRANCH   4  23
TORSDOF 8
ENDMDL
MODEL 3
REMARK VINA RESULT:      -8.4      1.654      3.237
REMARK  Name = 
REMARK  10 active torsions:
REMARK  status: ('A' for Active; 'I' for Inactive)
REMARK    1  A    between atoms: C_1  and  C_2
REMARK    2  A    between atoms: C_2  and  S_3
REMARK    3  A    between atoms: S_3  and  C_6
REMARK    4  A    between atoms: C_9  and  C_10
REMARK    5  A    between atoms: C_10  and  C_11
REMARK    6  A    between atoms: N_13  and  C_14
REMARK    7  A    between atoms: C_17  and  C_18
REMARK    8  A    between atoms: C_18  and  C_19
REMARK    9  A    between atoms: C_19  and  N_20
REMARK   10  A    between atoms: C_25  and  C_26
REMARK                            x       y       z     vdW  Elec       q    Type
REMARK                         _______ _______ _______ _____ _____    ______ ____
ROOT
ATOM      1  C   UNL     1       0.435  10.258  20.591  0.00  0.00    +0.000 A 
ATOM      2  C   UNL     1       0.792   9.203  21.436  0.00  0.00    +0.000 A 
ATOM      3  C   UNL     1       1.476   8.054  20.976  0.00  0.00    +0.000 A 
ATOM      4  C   UNL     1       1.829   7.906  19.638  0.00  0.00    +0.000 A 
ATOM      5  C   UNL     1       1.565   9.014  18.798  0.00  0.00    +0.000 A 
ATOM      6  C   UNL     1       0.866  10.165  19.261  0.00  0.00    +0.000 A 
ENDROOT
BRANCH   1   9
ATOM      7  C   UNL     1       0.097  12.587  21.492  0.00  0.00    +0.000 C 
ATOM      8  O   UNL     1       1.269  12.964  21.439  0.00  0.00    +0.000 OA
ATOM      9  N   UNL     1      -0.373  11.364  21.017  0.00  0.00    +0.000 N 
ATOM     10  H   UNL     1      -1.377  11.230  20.970  0.00  0.00    +0.000 HD
BRANCH   7  11
ATOM     11  C   UNL     1      -0.930  13.524  22.133  0.00  0.00    +0.000 C 
BRANCH  11  15
ATOM     12  C   UNL     1      -5.078  12.649  21.181  0.00  0.00    +0.000 A 
ATOM     13  C   UNL     1      -4.668  12.671  22.511  0.00  0.00    +0.000 A 
ATOM     14  C   UNL     1      -3.335  12.958  22.835  0.00  0.00    +0.000 A 
ATOM     15  C   UNL     1      -2.384  13.194  21.842  0.00  0.00    +0.000 A 
ATOM     16  C   UNL     1      -2.829  13.205  20.491  0.00  0.00    +0.000 A 
ATOM     17  C   UNL     1      -4.164  12.926  20.164  0.00  0.00    +0.000 A 
BRANCH  12  18
ATOM     18  S   UNL     1      -6.731  12.161  20.775  0.00  0.00    +0.000 S 
ATOM     19  O   UNL     1      -7.506  13.370  20.562  0.00  0.00    +0.000 OA
ATOM     20  O   UNL     1      -7.155  11.169  21.752  0.00  0.00    +0.000 OA
BRANCH  18  22
ATOM     21  C   UNL     1      -6.943   9.857  19.289  0.00  0.00    +0.000 C 
ATOM     22  C   UNL     1      -6.587  11.334  19.191  0.00  0.00    +0.000 C 
ENDBRANCH  18  22
ENDBRANCH  12  18
ENDBRANCH  11  15
ENDBRANCH   7  11
ENDBRANCH   1   9
BRANCH   4  23
ATOM     23  C   UNL     1       2.505   6.636  19.102  0.00  0.00    +0.000 C 
BRANCH  23  24
ATOM     24  C   UNL     1       2.915   5.386  20.003  0.00  0.00    +0.000 C 
BRANCH  24  25
ATOM     25  N   UNL     1       4.164   4.606  19.672  0.00  0.00    +0.000 N 
ATOM     26  C   UNL     1       3.967   3.229  19.208  0.00  0.00    +0.000 C 
ATOM     27  C   UNL     1       3.554   3.189  17.736  0.00  0.00    +0.000 C 
ATOM     28  C   UNL     1       4.676   3.777  16.909  0.00  0.00    +0.000 C 
ATOM     29  C   UNL     1       4.959   5.215  17.395  0.00  0.00    +0.000 A 
ATOM     30  C   UNL     1       5.827   5.931  16.546  0.00  0.00    +0.000 A 
ATOM     31  C   UNL     1       5.341   6.532  15.261  0.00  0.00    +0.000 C 
ATOM     32  C   UNL     1       7.154   6.021  16.936  0.00  0.00    +0.000 A 
ATOM     33  C   UNL     1       7.471   5.722  18.260  0.00  0.00    +0.000 A 
ATOM     34  C   UNL     1       6.450   5.440  19.203  0.00  0.00    +0.000 A 
ATOM     35  C   UNL     1       5.122   5.239  18.799  0.00  0.00    +0.000 A 
ENDBRANCH  24  25
ENDBRANCH  23  24
ENDBRANCH   4  23
TORSDOF 8
ENDMDL
MODEL 4
REMARK VINA RESULT:      -8.4      8.231     12.219
REMARK  Name = 
REMARK  10 active torsions:
REMARK  status: ('A' for Active; 'I' for Inactive)
REMARK    1  A    between atoms: C_1  and  C_2
REMARK    2  A    between atoms: C_2  and  S_3
REMARK    3  A    between atoms: S_3  and  C_6
REMARK    4  A    between atoms: C_9  and  C_10
REMARK    5  A    between atoms: C_10  and  C_11
REMARK    6  A    between atoms: N_13  and  C_14
REMARK    7  A    between atoms: C_17  and  C_18
REMARK    8  A    between atoms: C_18  and  C_19
REMARK    9  A    between atoms: C_19  and  N_20
REMARK   10  A    between atoms: C_25  and  C_26
REMARK                            x       y       z     vdW  Elec       q    Type
REMARK                         _______ _______ _______ _____ _____    ______ ____
ROOT
ATOM      1  C   UNL     1       8.721   9.844  18.260  0.00  0.00    +0.000 A 
ATOM      2  C   UNL     1       9.549  10.670  17.494  0.00  0.00    +0.000 A 
ATOM      3  C   UNL     1      10.506  11.536  18.071  0.00  0.00    +0.000 A 
ATOM      4  C   UNL     1      10.673  11.621  19.450  0.00  0.00    +0.000 A 
ATOM      5  C   UNL     1       9.914  10.712  20.225  0.00  0.00    +0.000 A 
ATOM      6  C   UNL     1       8.943   9.849  19.644  0.00  0.00    +0.000 A 
ENDROOT
BRANCH   1   9
ATOM      7  C   UNL     1       7.542   7.674  17.758  0.00  0.00    +0.000 C 
ATOM      8  O   UNL     1       8.234   6.935  18.461  0.00  0.00    +0.000 OA
ATOM      9  N   UNL     1       7.658   9.062  17.698  0.00  0.00    +0.000 N 
ATOM     10  H   UNL     1       6.933   9.575  17.209  0.00  0.00    +0.000 HD
BRANCH   7  11
ATOM     11  C   UNL     1       6.473   7.028  16.873  0.00  0.00    +0.000 C 
BRANCH  11  15
ATOM     12  C   UNL     1       4.161   3.780  18.598  0.00  0.00    +0.000 A 
ATOM     13  C   UNL     1       4.597   4.820  19.413  0.00  0.00    +0.000 A 
ATOM     14  C   UNL     1       5.338   5.879  18.870  0.00  0.00    +0.000 A 
ATOM     15  C   UNL     1       5.685   5.902  17.519  0.00  0.00    +0.000 A 
ATOM     16  C   UNL     1       5.198   4.849  16.695  0.00  0.00    +0.000 A 
ATOM     17  C   UNL     1       4.450   3.793  17.233  0.00  0.00    +0.000 A 
BRANCH  12  18
ATOM     18  S   UNL     1       3.337   2.385  19.314  0.00  0.00    +0.000 S 
ATOM     19  O   UNL     1       3.554   2.436  20.749  0.00  0.00    +0.000 OA
ATOM     20  O   UNL     1       3.710   1.206  18.547  0.00  0.00    +0.000 OA
BRANCH  18  22
ATOM     21  C   UNL     1       1.057   3.798  19.920  0.00  0.00    +0.000 C 
ATOM     22  C   UNL     1       1.593   2.688  19.027  0.00  0.00    +0.000 C 
ENDBRANCH  18  22
ENDBRANCH  12  18
ENDBRANCH  11  15
ENDBRANCH   7  11
ENDBRANCH   1   9
BRANCH   4  23
ATOM     23  C   UNL     1      11.653  12.607  20.100  0.00  0.00    +0.000 C 
BRANCH  23  24
ATOM     24  C   UNL     1      11.764  14.151  19.717  0.00  0.00    +0.000 C 
BRANCH  24  25
ATOM     25  N   UNL     1      10.771  15.135  20.285  0.00  0.00    +0.000 N 
ATOM     26  C   UNL     1       9.690  15.558  19.389  0.00  0.00    +0.000 C 
ATOM     27  C   UNL     1       8.590  14.500  19.303  0.00  0.00    +0.000 C 
ATOM     28  C   UNL     1       7.982  14.329  20.678  0.00  0.00    +0.000 C 
ATOM     29  C   UNL     1       9.095  13.932  21.673  0.00  0.00    +0.000 A 
ATOM     30  C   UNL     1       8.601  13.527  22.931  0.00  0.00    +0.000 A 
ATOM     31  C   UNL     1       8.021  12.161  23.137  0.00  0.00    +0.000 C 
ATOM     32  C   UNL     1       8.644  14.463  23.952  0.00  0.00    +0.000 A 
ATOM     33  C   UNL     1       9.463  15.579  23.787  0.00  0.00    +0.000 A 
ATOM     34  C   UNL     1      10.307  15.696  22.654  0.00  0.00    +0.000 A 
ATOM     35  C   UNL     1      10.191  14.817  21.567  0.00  0.00    +0.000 A 
ENDBRANCH  24  25
ENDBRANCH  23  24
ENDBRANCH   4  23
TORSDOF 8
ENDMDL
MODEL 5
REMARK VINA RESULT:      -8.2      4.136     10.923
REMARK  Name = 
REMARK  10 active torsions:
REMARK  status: ('A' for Active; 'I' for Inactive)
REMARK    1  A    between atoms: C_1  and  C_2
REMARK    2  A    between atoms: C_2  and  S_3
REMARK    3  A    between atoms: S_3  and  C_6
REMARK    4  A    between atoms: C_9  and  C_10
REMARK    5  A    between atoms: C_10  and  C_11
REMARK    6  A    between atoms: N_13  and  C_14
REMARK    7  A    between atoms: C_17  and  C_18
REMARK    8  A    between atoms: C_18  and  C_19
REMARK    9  A    between atoms: C_19  and  N_20
REMARK   10  A    between atoms: C_25  and  C_26
REMARK                            x       y       z     vdW  Elec       q    Type
REMARK                         _______ _______ _______ _____ _____    ______ ____
ROOT
ATOM      1  C   UNL     1      -1.354  10.574  18.266  0.00  0.00    +0.000 A 
ATOM      2  C   UNL     1      -1.339  11.748  19.025  0.00  0.00    +0.000 A 
ATOM      3  C   UNL     1      -2.516  12.454  19.362  0.00  0.00    +0.000 A 
ATOM      4  C   UNL     1      -3.770  12.019  18.944  0.00  0.00    +0.000 A 
ATOM      5  C   UNL     1      -3.803  10.776  18.266  0.00  0.00    +0.000 A 
ATOM      6  C   UNL     1      -2.616  10.073  17.918  0.00  0.00    +0.000 A 
ENDROOT
BRANCH   1   9
ATOM      7  C   UNL     1       0.966   9.640  18.574  0.00  0.00    +0.000 C 
ATOM      8  O   UNL     1       1.029   9.739  19.802  0.00  0.00    +0.000 OA
ATOM      9  N   UNL     1      -0.162   9.922  17.805  0.00  0.00    +0.000 N 
ATOM     10  H   UNL     1      -0.146   9.653  16.828  0.00  0.00    +0.000 HD
BRANCH   7  11
ATOM     11  C   UNL     1       2.219   9.179  17.825  0.00  0.00    +0.000 C 
BRANCH  11  15
ATOM     12  C   UNL     1       3.705   5.199  18.736  0.00  0.00    +0.000 A 
ATOM     13  C   UNL     1       2.675   5.739  19.501  0.00  0.00    +0.000 A 
ATOM     14  C   UNL     1       2.180   7.019  19.215  0.00  0.00    +0.000 A 
ATOM     15  C   UNL     1       2.722   7.793  18.189  0.00  0.00    +0.000 A 
ATOM     16  C   UNL     1       3.748   7.209  17.394  0.00  0.00    +0.000 A 
ATOM     17  C   UNL     1       4.241   5.926  17.673  0.00  0.00    +0.000 A 
BRANCH  12  18
ATOM     18  S   UNL     1       4.409   3.637  19.183  0.00  0.00    +0.000 S 
ATOM     19  O   UNL     1       3.666   3.130  20.322  0.00  0.00    +0.000 OA
ATOM     20  O   UNL     1       5.853   3.804  19.253  0.00  0.00    +0.000 OA
BRANCH  18  22
ATOM     21  C   UNL     1       2.566   2.508  17.482  0.00  0.00    +0.000 C 
ATOM     22  C   UNL     1       4.055   2.561  17.792  0.00  0.00    +0.000 C 
ENDBRANCH  18  22
ENDBRANCH  12  18
ENDBRANCH  11  15
ENDBRANCH   7  11
ENDBRANCH   1   9
BRANCH   4  23
ATOM     23  C   UNL     1      -5.053  12.809  19.234  0.00  0.00    +0.000 C 
BRANCH  23  24
ATOM     24  C   UNL     1      -5.776  12.865  20.654  0.00  0.00    +0.000 C 
BRANCH  24  25
ATOM     25  N   UNL     1      -5.216  13.748  21.742  0.00  0.00    +0.000 N 
ATOM     26  C   UNL     1      -5.927  13.730  23.025  0.00  0.00    +0.000 C 
ATOM     27  C   UNL     1      -5.565  12.492  23.846  0.00  0.00    +0.000 C 
ATOM     28  C   UNL     1      -4.087  12.543  24.161  0.00  0.00    +0.000 C 
ATOM     29  C   UNL     1      -3.292  12.616  22.839  0.00  0.00    +0.000 A 
ATOM     30  C   UNL     1      -1.904  12.438  23.011  0.00  0.00    +0.000 A 
ATOM     31  C   UNL     1      -1.312  11.076  23.213  0.00  0.00    +0.000 C 
ATOM     32  C   UNL     1      -1.121  13.582  23.019  0.00  0.00    +0.000 A 
ATOM     33  C   UNL     1      -1.675  14.761  22.522  0.00  0.00    +0.000 A 
ATOM     34  C   UNL     1      -2.962  14.762  21.928  0.00  0.00    +0.000 A 
ATOM     35  C   UNL     1      -3.803  13.642  22.012  0.00  0.00    +0.000 A 
ENDBRANCH  24  25
ENDBRANCH  23  24
ENDBRANCH   4  23
TORSDOF 8
ENDMDL
MODEL 6
REMARK VINA RESULT:      -8.2      1.449      1.920
REMARK  Name = 
REMARK  10 active torsions:
REMARK  status: ('A' for Active; 'I' for Inactive)
REMARK    1  A    between atoms: C_1  and  C_2
REMARK    2  A    between atoms: C_2  and  S_3
REMARK    3  A    between atoms: S_3  and  C_6
REMARK    4  A    between atoms: C_9  and  C_10
REMARK    5  A    between atoms: C_10  and  C_11
REMARK    6  A    between atoms: N_13  and  C_14
REMARK    7  A    between atoms: C_17  and  C_18
REMARK    8  A    between atoms: C_18  and  C_19
REMARK    9  A    between atoms: C_19  and  N_20
REMARK   10  A    between atoms: C_25  and  C_26
REMARK                            x       y       z     vdW  Elec       q    Type
REMARK                         _______ _______ _______ _____ _____    ______ ____
ROOT
ATOM      1  C   UNL     1       0.602   9.301  20.225  0.00  0.00    +0.000 A 
ATOM      2  C   UNL     1       1.381   8.163  20.457  0.00  0.00    +0.000 A 
ATOM      3  C   UNL     1       2.266   7.635  19.489  0.00  0.00    +0.000 A 
ATOM      4  C   UNL     1       2.406   8.220  18.234  0.00  0.00    +0.000 A 
ATOM      5  C   UNL     1       1.701   9.431  18.031  0.00  0.00    +0.000 A 
ATOM      6  C   UNL     1       0.802   9.955  19.002  0.00  0.00    +0.000 A 
ENDROOT
BRANCH   1   9
ATOM      7  C   UNL     1      -0.285  10.883  21.974  0.00  0.00    +0.000 C 
ATOM      8  O   UNL     1       0.604  11.734  21.904  0.00  0.00    +0.000 OA
ATOM      9  N   UNL     1      -0.395   9.768  21.144  0.00  0.00    +0.000 N 
ATOM     10  H   UNL     1      -1.251   9.228  21.191  0.00  0.00    +0.000 HD
BRANCH   7  11
ATOM     11  C   UNL     1      -1.354  11.049  23.058  0.00  0.00    +0.000 C 
BRANCH  11  15
ATOM     12  C   UNL     1      -4.278  14.212  22.496  0.00  0.00    +0.000 A 
ATOM     13  C   UNL     1      -3.781  13.532  21.388  0.00  0.00    +0.000 A 
ATOM     14  C   UNL     1      -2.843  12.505  21.554  0.00  0.00    +0.000 A 
ATOM     15  C   UNL     1      -2.360  12.161  22.816  0.00  0.00    +0.000 A 
ATOM     16  C   UNL     1      -2.907  12.842  23.939  0.00  0.00    +0.000 A 
ATOM     17  C   UNL     1      -3.852  13.865  23.778  0.00  0.00    +0.000 A 
BRANCH  12  18
ATOM     18  S   UNL     1      -5.366  15.591  22.269  0.00  0.00    +0.000 S 
ATOM     19  O   UNL     1      -5.097  16.151  20.956  0.00  0.00    +0.000 OA
ATOM     20  O   UNL     1      -5.286  16.422  23.461  0.00  0.00    +0.000 OA
BRANCH  18  22
ATOM     21  C   UNL     1      -7.903  15.429  23.318  0.00  0.00    +0.000 C 
ATOM     22  C   UNL     1      -7.009  14.875  22.217  0.00  0.00    +0.000 C 
ENDBRANCH  18  22
ENDBRANCH  12  18
ENDBRANCH  11  15
ENDBRANCH   7  11
ENDBRANCH   1   9
BRANCH   4  23
ATOM     23  C   UNL     1       3.304   7.622  17.144  0.00  0.00    +0.000 C 
BRANCH  23  24
ATOM     24  C   UNL     1       4.420   6.514  17.403  0.00  0.00    +0.000 C 
BRANCH  24  25
ATOM     25  N   UNL     1       4.076   5.054  17.239  0.00  0.00    +0.000 N 
ATOM     26  C   UNL     1       5.199   4.111  17.290  0.00  0.00    +0.000 C 
ATOM     27  C   UNL     1       5.637   3.844  18.730  0.00  0.00    +0.000 C 
ATOM     28  C   UNL     1       4.485   3.199  19.469  0.00  0.00    +0.000 C 
ATOM     29  C   UNL     1       3.257   4.133  19.399  0.00  0.00    +0.000 A 
ATOM     30  C   UNL     1       2.203   3.734  20.246  0.00  0.00    +0.000 A 
ATOM     31  C   UNL     1       2.241   4.005  21.719  0.00  0.00    +0.000 C 
ATOM     32  C   UNL     1       1.151   3.050  19.657  0.00  0.00    +0.000 A 
ATOM     33  C   UNL     1       1.024   3.105  18.270  0.00  0.00    +0.000 A 
ATOM     34  C   UNL     1       1.885   3.925  17.497  0.00  0.00    +0.000 A 
ATOM     35  C   UNL     1       3.015   4.532  18.065  0.00  0.00    +0.000 A 
ENDBRANCH  24  25
ENDBRANCH  23  24
ENDBRANCH   4  23
TORSDOF 8
ENDMDL
MODEL 7
REMARK VINA RESULT:      -8.1      2.035      2.620
REMARK  Name = 
REMARK  10 active torsions:
REMARK  status: ('A' for Active; 'I' for Inactive)
REMARK    1  A    between atoms: C_1  and  C_2
REMARK    2  A    between atoms: C_2  and  S_3
REMARK    3  A    between atoms: S_3  and  C_6
REMARK    4  A    between atoms: C_9  and  C_10
REMARK    5  A    between atoms: C_10  and  C_11
REMARK    6  A    between atoms: N_13  and  C_14
REMARK    7  A    between atoms: C_17  and  C_18
REMARK    8  A    between atoms: C_18  and  C_19
REMARK    9  A    between atoms: C_19  and  N_20
REMARK   10  A    between atoms: C_25  and  C_26
REMARK                            x       y       z     vdW  Elec       q    Type
REMARK                         _______ _______ _______ _____ _____    ______ ____
ROOT
ATOM      1  C   UNL     1       0.261   9.655  20.128  0.00  0.00    +0.000 A 
ATOM      2  C   UNL     1       0.385  10.050  18.792  0.00  0.00    +0.000 A 
ATOM      3  C   UNL     1       1.305   9.451  17.901  0.00  0.00    +0.000 A 
ATOM      4  C   UNL     1       2.153   8.427  18.312  0.00  0.00    +0.000 A 
ATOM      5  C   UNL     1       1.960   7.950  19.631  0.00  0.00    +0.000 A 
ATOM      6  C   UNL     1       1.042   8.563  20.529  0.00  0.00    +0.000 A 
ENDROOT
BRANCH   1   9
ATOM      7  C   UNL     1      -0.350  10.424  22.448  0.00  0.00    +0.000 C 
ATOM      8  O   UNL     1       0.687  10.080  23.021  0.00  0.00    +0.000 OA
ATOM      9  N   UNL     1      -0.570  10.341  21.074  0.00  0.00    +0.000 N 
ATOM     10  H   UNL     1      -1.394  10.799  20.701  0.00  0.00    +0.000 HD
BRANCH   7  11
ATOM     11  C   UNL     1      -1.492  10.980  23.302  0.00  0.00    +0.000 C 
BRANCH  11  15
ATOM     12  C   UNL     1      -2.799  14.995  22.283  0.00  0.00    +0.000 A 
ATOM     13  C   UNL     1      -3.672  13.925  22.113  0.00  0.00    +0.000 A 
ATOM     14  C   UNL     1      -3.268  12.624  22.443  0.00  0.00    +0.000 A 
ATOM     15  C   UNL     1      -1.981  12.364  22.915  0.00  0.00    +0.000 A 
ATOM     16  C   UNL     1      -1.116  13.475  23.118  0.00  0.00    +0.000 A 
ATOM     17  C   UNL     1      -1.520  14.779  22.795  0.00  0.00    +0.000 A 
BRANCH  12  18
ATOM     18  S   UNL     1      -3.273  16.614  21.744  0.00  0.00    +0.000 S 
ATOM     19  O   UNL     1      -4.055  16.461  20.530  0.00  0.00    +0.000 OA
ATOM     20  O   UNL     1      -2.086  17.455  21.762  0.00  0.00    +0.000 OA
BRANCH  18  22
ATOM     21  C   UNL     1      -4.041  16.634  24.385  0.00  0.00    +0.000 C 
ATOM     22  C   UNL     1      -4.381  17.215  23.019  0.00  0.00    +0.000 C 
ENDBRANCH  18  22
ENDBRANCH  12  18
ENDBRANCH  11  15
ENDBRANCH   7  11
ENDBRANCH   1   9
BRANCH   4  23
ATOM     23  C   UNL     1       3.210   7.813  17.384  0.00  0.00    +0.000 C 
BRANCH  23  24
ATOM     24  C   UNL     1       4.203   6.637  17.802  0.00  0.00    +0.000 C 
BRANCH  24  25
ATOM     25  N   UNL     1       3.855   5.210  17.459  0.00  0.00    +0.000 N 
ATOM     26  C   UNL     1       4.981   4.277  17.338  0.00  0.00    +0.000 C 
ATOM     27  C   UNL     1       5.480   3.824  18.710  0.00  0.00    +0.000 C 
ATOM     28  C   UNL     1       4.361   3.078  19.403  0.00  0.00    +0.000 C 
ATOM     29  C   UNL     1       3.129   4.003  19.509  0.00  0.00    +0.000 A 
ATOM     30  C   UNL     1       2.112   3.487  20.337  0.00  0.00    +0.000 A 
ATOM     31  C   UNL     1       2.212   3.559  21.831  0.00  0.00    +0.000 C 
ATOM     32  C   UNL     1       1.038   2.879  19.707  0.00  0.00    +0.000 A 
ATOM     33  C   UNL     1       0.854   3.117  18.346  0.00  0.00    +0.000 A 
ATOM     34  C   UNL     1       1.679   4.039  17.654  0.00  0.00    +0.000 A 
ATOM     35  C   UNL     1       2.831   4.574  18.250  0.00  0.00    +0.000 A 
ENDBRANCH  24  25
ENDBRANCH  23  24
ENDBRANCH   4  23
TORSDOF 8
ENDMDL
MODEL 8
REMARK VINA RESULT:      -8.1      2.232      2.781
REMARK  Name = 
REMARK  10 active torsions:
REMARK  status: ('A' for Active; 'I' for Inactive)
REMARK    1  A    between atoms: C_1  and  C_2
REMARK    2  A    between atoms: C_2  and  S_3
REMARK    3  A    between atoms: S_3  and  C_6
REMARK    4  A    between atoms: C_9  and  C_10
REMARK    5  A    between atoms: C_10  and  C_11
REMARK    6  A    between atoms: N_13  and  C_14
REMARK    7  A    between atoms: C_17  and  C_18
REMARK    8  A    between atoms: C_18  and  C_19
REMARK    9  A    between atoms: C_19  and  N_20
REMARK   10  A    between atoms: C_25  and  C_26
REMARK                            x       y       z     vdW  Elec       q    Type
REMARK                         _______ _______ _______ _____ _____    ______ ____
ROOT
ATOM      1  C   UNL     1       0.819   9.343  20.113  0.00  0.00    +0.000 A 
ATOM      2  C   UNL     1       1.481   8.128  20.319  0.00  0.00    +0.000 A 
ATOM      3  C   UNL     1       2.295   7.526  19.332  0.00  0.00    +0.000 A 
ATOM      4  C   UNL     1       2.479   8.113  18.083  0.00  0.00    +0.000 A 
ATOM      5  C   UNL     1       1.898   9.391  17.905  0.00  0.00    +0.000 A 
ATOM      6  C   UNL     1       1.070   9.990  18.896  0.00  0.00    +0.000 A 
ENDROOT
BRANCH   1   9
ATOM      7  C   UNL     1       0.082  10.013  22.427  0.00  0.00    +0.000 C 
ATOM      8  O   UNL     1       1.154   9.833  23.008  0.00  0.00    +0.000 OA
ATOM      9  N   UNL     1      -0.113   9.896  21.052  0.00  0.00    +0.000 N 
ATOM     10  H   UNL     1      -0.994  10.222  20.671  0.00  0.00    +0.000 HD
BRANCH   7  11
ATOM     11  C   UNL     1      -1.138  10.390  23.271  0.00  0.00    +0.000 C 
BRANCH  11  15
ATOM     12  C   UNL     1      -2.512  14.471  22.695  0.00  0.00    +0.000 A 
ATOM     13  C   UNL     1      -3.399  13.508  23.168  0.00  0.00    +0.000 A 
ATOM     14  C   UNL     1      -2.969  12.189  23.365  0.00  0.00    +0.000 A 
ATOM     15  C   UNL     1      -1.664  11.800  23.065  0.00  0.00    +0.000 A 
ATOM     16  C   UNL     1      -0.762  12.806  22.619  0.00  0.00    +0.000 A 
ATOM     17  C   UNL     1      -1.187  14.129  22.428  0.00  0.00    +0.000 A 
BRANCH  12  18
ATOM     18  S   UNL     1      -3.095  16.102  22.328  0.00  0.00    +0.000 S 
ATOM     19  O   UNL     1      -3.323  16.782  23.590  0.00  0.00    +0.000 OA
ATOM     20  O   UNL     1      -4.163  15.983  21.346  0.00  0.00    +0.000 OA
BRANCH  18  22
ATOM     21  C   UNL     1      -1.807  16.832  20.010  0.00  0.00    +0.000 C 
ATOM     22  C   UNL     1      -1.711  16.913  21.527  0.00  0.00    +0.000 C 
ENDBRANCH  18  22
ENDBRANCH  12  18
ENDBRANCH  11  15
ENDBRANCH   7  11
ENDBRANCH   1   9
BRANCH   4  23
ATOM     23  C   UNL     1       3.297   7.441  16.972  0.00  0.00    +0.000 C 
BRANCH  23  24
ATOM     24  C   UNL     1       4.727   6.769  17.187  0.00  0.00    +0.000 C 
BRANCH  24  25
ATOM     25  N   UNL     1       4.850   5.265  17.203  0.00  0.00    +0.000 N 
ATOM     26  C   UNL     1       6.086   4.720  17.775  0.00  0.00    +0.000 C 
ATOM     27  C   UNL     1       6.045   4.731  19.303  0.00  0.00    +0.000 C 
ATOM     28  C   UNL     1       4.915   3.834  19.758  0.00  0.00    +0.000 C 
ATOM     29  C   UNL     1       3.593   4.337  19.137  0.00  0.00    +0.000 A 
ATOM     30  C   UNL     1       2.450   3.713  19.677  0.00  0.00    +0.000 A 
ATOM     31  C   UNL     1       1.898   4.114  21.011  0.00  0.00    +0.000 C 
ATOM     32  C   UNL     1       1.885   2.689  18.932  0.00  0.00    +0.000 A 
ATOM     33  C   UNL     1       2.243   2.577  17.590  0.00  0.00    +0.000 A 
ATOM     34  C   UNL     1       3.077   3.548  16.980  0.00  0.00    +0.000 A 
ATOM     35  C   UNL     1       3.740   4.520  17.744  0.00  0.00    +0.000 A 
ENDBRANCH  24  25
ENDBRANCH  23  24
ENDBRANCH   4  23
TORSDOF 8
ENDMDL
MODEL 9
REMARK VINA RESULT:      -8.0      1.821      3.500
REMARK  Name = 
REMARK  10 active torsions:
REMARK  status: ('A' for Active; 'I' for Inactive)
REMARK    1  A    between atoms: C_1  and  C_2
REMARK    2  A    between atoms: C_2  and  S_3
REMARK    3  A    between atoms: S_3  and  C_6
REMARK    4  A    between atoms: C_9  and  C_10
REMARK    5  A    between atoms: C_10  and  C_11
REMARK    6  A    between atoms: N_13  and  C_14
REMARK    7  A    between atoms: C_17  and  C_18
REMARK    8  A    between atoms: C_18  and  C_19
REMARK    9  A    between atoms: C_19  and  N_20
REMARK   10  A    between atoms: C_25  and  C_26
REMARK                            x       y       z     vdW  Elec       q    Type
REMARK                         _______ _______ _______ _____ _____    ______ ____
ROOT
ATOM      1  C   UNL     1       0.760  10.103  19.713  0.00  0.00    +0.000 A 
ATOM      2  C   UNL     1       1.016   9.076  20.626  0.00  0.00    +0.000 A 
ATOM      3  C   UNL     1       1.741   7.912  20.282  0.00  0.00    +0.000 A 
ATOM      4  C   UNL     1       2.238   7.719  18.997  0.00  0.00    +0.000 A 
ATOM      5  C   UNL     1       2.074   8.799  18.097  0.00  0.00    +0.000 A 
ATOM      6  C   UNL     1       1.335   9.965  18.442  0.00  0.00    +0.000 A 
ENDROOT
BRANCH   1   9
ATOM      7  C   UNL     1      -1.355  11.454  19.482  0.00  0.00    +0.000 C 
ATOM      8  O   UNL     1      -2.010  10.637  18.832  0.00  0.00    +0.000 OA
ATOM      9  N   UNL     1      -0.085  11.224  20.010  0.00  0.00    +0.000 N 
ATOM     10  H   UNL     1       0.287  11.908  20.658  0.00  0.00    +0.000 HD
BRANCH   7  11
ATOM     11  C   UNL     1      -1.970  12.834  19.730  0.00  0.00    +0.000 C 
BRANCH  11  15
ATOM     12  C   UNL     1      -5.471  12.969  22.298  0.00  0.00    +0.000 A 
ATOM     13  C   UNL     1      -4.212  12.786  22.862  0.00  0.00    +0.000 A 
ATOM     14  C   UNL     1      -3.072  12.747  22.048  0.00  0.00    +0.000 A 
ATOM     15  C   UNL     1      -3.169  12.855  20.661  0.00  0.00    +0.000 A 
ATOM     16  C   UNL     1      -4.460  13.080  20.105  0.00  0.00    +0.000 A 
ATOM     17  C   UNL     1      -5.602  13.127  20.918  0.00  0.00    +0.000 A 
BRANCH  12  18
ATOM     18  S   UNL     1      -6.916  12.890  23.319  0.00  0.00    +0.000 S 
ATOM     19  O   UNL     1      -6.487  12.534  24.660  0.00  0.00    +0.000 OA
ATOM     20  O   UNL     1      -7.911  12.090  22.621  0.00  0.00    +0.000 OA
BRANCH  18  22
ATOM     21  C   UNL     1      -6.437  15.553  23.810  0.00  0.00    +0.000 C 
ATOM     22  C   UNL     1      -7.523  14.576  23.384  0.00  0.00    +0.000 C 
ENDBRANCH  18  22
ENDBRANCH  12  18
ENDBRANCH  11  15
ENDBRANCH   7  11
ENDBRANCH   1   9
BRANCH   4  23
ATOM     23  C   UNL     1       2.962   6.431  18.581  0.00  0.00    +0.000 C 
BRANCH  23  24
ATOM     24  C   UNL     1       3.008   5.100  19.457  0.00  0.00    +0.000 C 
BRANCH  24  25
ATOM     25  N   UNL     1       4.217   4.200  19.386  0.00  0.00    +0.000 N 
ATOM     26  C   UNL     1       3.955   2.757  19.392  0.00  0.00    +0.000 C 
ATOM     27  C   UNL     1       3.510   2.265  18.014  0.00  0.00    +0.000 C 
ATOM     28  C   UNL     1       4.637   2.505  17.034  0.00  0.00    +0.000 C 
ATOM     29  C   UNL     1       4.987   4.009  17.029  0.00  0.00    +0.000 A 
ATOM     30  C   UNL     1       5.865   4.375  15.988  0.00  0.00    +0.000 A 
ATOM     31  C   UNL     1       5.376   4.553  14.582  0.00  0.00    +0.000 C 
ATOM     32  C   UNL     1       7.202   4.526  16.319  0.00  0.00    +0.000 A 
ATOM     33  C   UNL     1       7.535   4.655  17.667  0.00  0.00    +0.000 A 
ATOM     34  C   UNL     1       6.524   4.737  18.657  0.00  0.00    +0.000 A 
ATOM     35  C   UNL     1       5.181   4.476  18.349  0.00  0.00    +0.000 A 
ENDBRANCH  24  25
ENDBRANCH  23  24
ENDBRANCH   4  23
TORSDOF 8
ENDMDL
