MODEL 1
REMARK VINA RESULT:      -8.8      0.000      0.000
REMARK  Name = 
REMARK  5 active torsions:
REMARK  status: ('A' for Active; 'I' for Inactive)
REMARK    1  A    between atoms: C_2  and  C_13
REMARK    2  A    between atoms: N_3  and  C_4
REMARK    3  A    between atoms: C_4  and  C_5
REMARK    4  A    between atoms: C_5  and  C_6
REMARK    5  A    between atoms: C_6  and  C_7
REMARK                            x       y       z     vdW  Elec       q    Type
REMARK                         _______ _______ _______ _____ _____    ______ ____
ROOT
ATOM      1  O   UNL     1       6.082   4.606  19.237  0.00  0.00    +0.000 OA
ATOM      2  C   UNL     1       5.666   4.067  18.215  0.00  0.00    +0.000 C 
ATOM      3  N   UNL     1       4.725   3.068  18.237  0.00  0.00    +0.000 N 
ATOM      4  H   UNL     1       4.425   2.652  17.352  0.00  0.00    +0.000 HD
ENDROOT
BRANCH   2   5
ATOM      5  C   UNL     1       6.154   4.478  16.857  0.00  0.00    +0.000 A 
ATOM      6  C   UNL     1       5.782   3.729  15.808  0.00  0.00    +0.000 A 
ATOM      7  C   UNL     1       6.257   4.045  14.468  0.00  0.00    +0.000 A 
ATOM      8  C   UNL     1       5.789   3.393  13.326  0.00  0.00    +0.000 A 
ATOM      9  C   UNL     1       6.326   3.707  12.072  0.00  0.00    +0.000 A 
ATOM     10  C   UNL     1       7.349   4.651  11.958  0.00  0.00    +0.000 A 
ATOM     11  C   UNL     1       7.815   5.311  13.092  0.00  0.00    +0.000 A 
ATOM     12  C   UNL     1       7.245   5.014  14.327  0.00  0.00    +0.000 A 
ATOM     13  O   UNL     1       7.667   5.775  15.429  0.00  0.00    +0.000 OA
ATOM     14  C   UNL     1       7.017   5.666  16.652  0.00  0.00    +0.000 A 
ATOM     15  O   UNL     1       7.190   6.507  17.530  0.00  0.00    +0.000 OA
ENDBRANCH   2   5
BRANCH   3  16
ATOM     16  C   UNL     1       4.117   2.574  19.454  0.00  0.00    +0.000 C 
BRANCH  16  17
ATOM     17  C   UNL     1       2.631   2.270  19.271  0.00  0.00    +0.000 C 
BRANCH  17  18
ATOM     18  C   UNL     1       1.977   3.286  18.332  0.00  0.00    +0.000 C 
BRANCH  18  19
ATOM     19  C   UNL     1       2.043   4.689  18.882  0.00  0.00    +0.000 A 
ATOM     20  C   UNL     1       1.640   4.962  20.196  0.00  0.00    +0.000 A 
ATOM     21  C   UNL     1       1.688   6.265  20.696  0.00  0.00    +0.000 A 
ATOM     22  C   UNL     1       2.133   7.308  19.888  0.00  0.00    +0.000 A 
ATOM     23  C   UNL     1       2.536   7.049  18.579  0.00  0.00    +0.000 A 
ATOM     24  C   UNL     1       2.490   5.747  18.076  0.00  0.00    +0.000 A 
ENDBRANCH  18  19
ENDBRANCH  17  18
ENDBRANCH  16  17
ENDBRANCH   3  16
TORSDOF 5
ENDMDL
MODEL 2
REMARK VINA RESULT:      -8.7      4.329      7.725
REMARK  Name = 
REMARK  5 active torsions:
REMARK  status: ('A' for Active; 'I' for Inactive)
REMARK    1  A    between atoms: C_2  and  C_13
REMARK    2  A    between atoms: N_3  and  C_4
REMARK    3  A    between atoms: C_4  and  C_5
REMARK    4  A    between atoms: C_5  and  C_6
REMARK    5  A    between atoms: C_6  and  C_7
REMARK                            x       y       z     vdW  Elec       q    Type
REMARK                         _______ _______ _______ _____ _____    ______ ____
ROOT
ATOM      1  O   UNL     1       5.584   6.833  15.732  0.00  0.00    +0.000 OA
ATOM      2  C   UNL     1       5.747   6.394  16.867  0.00  0.00    +0.000 C 
ATOM      3  N   UNL     1       6.806   6.765  17.657  0.00  0.00    +0.000 N 
ATOM      4  H   UNL     1       6.893   6.357  18.591  0.00  0.00    +0.000 HD
ENDROOT
BRANCH   2   5
ATOM      5  C   UNL     1       4.781   5.423  17.479  0.00  0.00    +0.000 A 
ATOM      6  C   UNL     1       3.920   5.894  18.394  0.00  0.00    +0.000 A 
ATOM      7  C   UNL     1       2.986   4.998  19.061  0.00  0.00    +0.000 A 
ATOM      8  C   UNL     1       1.975   5.453  19.909  0.00  0.00    +0.000 A 
ATOM      9  C   UNL     1       1.143   4.535  20.562  0.00  0.00    +0.000 A 
ATOM     10  C   UNL     1       1.336   3.162  20.392  0.00  0.00    +0.000 A 
ATOM     11  C   UNL     1       2.337   2.702  19.541  0.00  0.00    +0.000 A 
ATOM     12  C   UNL     1       3.132   3.627  18.870  0.00  0.00    +0.000 A 
ATOM     13  O   UNL     1       4.058   3.127  17.943  0.00  0.00    +0.000 OA
ATOM     14  C   UNL     1       4.754   3.989  17.104  0.00  0.00    +0.000 A 
ATOM     15  O   UNL     1       5.349   3.560  16.119  0.00  0.00    +0.000 OA
ENDBRANCH   2   5
BRANCH   3  16
ATOM     16  C   UNL     1       7.812   7.720  17.243  0.00  0.00    +0.000 C 
BRANCH  16  17
ATOM     17  C   UNL     1       8.261   8.617  18.395  0.00  0.00    +0.000 C 
BRANCH  17  18
ATOM     18  C   UNL     1       8.364  10.076  17.942  0.00  0.00    +0.000 C 
BRANCH  18  19
ATOM     19  C   UNL     1       9.491  10.804  18.631  0.00  0.00    +0.000 A 
ATOM     20  C   UNL     1      10.577  11.301  17.899  0.00  0.00    +0.000 A 
ATOM     21  C   UNL     1      11.625  11.960  18.543  0.00  0.00    +0.000 A 
ATOM     22  C   UNL     1      11.602  12.125  19.926  0.00  0.00    +0.000 A 
ATOM     23  C   UNL     1      10.528  11.634  20.666  0.00  0.00    +0.000 A 
ATOM     24  C   UNL     1       9.478  10.975  20.024  0.00  0.00    +0.000 A 
ENDBRANCH  18  19
ENDBRANCH  17  18
ENDBRANCH  16  17
ENDBRANCH   3  16
TORSDOF 5
ENDMDL
MODEL 3
REMARK VINA RESULT:      -8.7      4.285      7.496
REMARK  Name = 
REMARK  5 active torsions:
REMARK  status: ('A' for Active; 'I' for Inactive)
REMARK    1  A    between atoms: C_2  and  C_13
REMARK    2  A    between atoms: N_3  and  C_4
REMARK    3  A    between atoms: C_4  and  C_5
REMARK    4  A    between atoms: C_5  and  C_6
REMARK    5  A    between atoms: C_6  and  C_7
REMARK                            x       y       z     vdW  Elec       q    Type
REMARK                         _______ _______ _______ _____ _____    ______ ____
ROOT
ATOM      1  O   UNL     1       5.319   6.619  15.808  0.00  0.00    +0.000 OA
ATOM      2  C   UNL     1       5.672   6.317  16.945  0.00  0.00    +0.000 C 
ATOM      3  N   UNL     1       6.706   6.948  17.590  0.00  0.00    +0.000 N 
ATOM      4  H   UNL     1       6.958   6.645  18.534  0.00  0.00    +0.000 HD
ENDROOT
BRANCH   2   5
ATOM      5  C   UNL     1       4.978   5.235  17.720  0.00  0.00    +0.000 A 
ATOM      6  C   UNL     1       3.651   5.111  17.565  0.00  0.00    +0.000 A 
ATOM      7  C   UNL     1       2.909   4.112  18.321  0.00  0.00    +0.000 A 
ATOM      8  C   UNL     1       1.559   3.841  18.095  0.00  0.00    +0.000 A 
ATOM      9  C   UNL     1       0.889   2.906  18.893  0.00  0.00    +0.000 A 
ATOM     10  C   UNL     1       1.558   2.260  19.936  0.00  0.00    +0.000 A 
ATOM     11  C   UNL     1       2.907   2.520  20.162  0.00  0.00    +0.000 A 
ATOM     12  C   UNL     1       3.568   3.424  19.336  0.00  0.00    +0.000 A 
ATOM     13  O   UNL     1       4.949   3.580  19.528  0.00  0.00    +0.000 OA
ATOM     14  C   UNL     1       5.708   4.321  18.630  0.00  0.00    +0.000 A 
ATOM     15  O   UNL     1       6.933   4.238  18.629  0.00  0.00    +0.000 OA
ENDBRANCH   2   5
BRANCH   3  16
ATOM     16  C   UNL     1       7.459   8.038  17.009  0.00  0.00    +0.000 C 
BRANCH  16  17
ATOM     17  C   UNL     1       8.335   8.746  18.042  0.00  0.00    +0.000 C 
BRANCH  17  18
ATOM     18  C   UNL     1       8.563  10.209  17.654  0.00  0.00    +0.000 C 
BRANCH  18  19
ATOM     19  C   UNL     1       9.559  10.887  18.561  0.00  0.00    +0.000 A 
ATOM     20  C   UNL     1       9.375  10.892  19.950  0.00  0.00    +0.000 A 
ATOM     21  C   UNL     1      10.292  11.534  20.784  0.00  0.00    +0.000 A 
ATOM     22  C   UNL     1      11.399  12.182  20.240  0.00  0.00    +0.000 A 
ATOM     23  C   UNL     1      11.592  12.184  18.860  0.00  0.00    +0.000 A 
ATOM     24  C   UNL     1      10.677  11.542  18.023  0.00  0.00    +0.000 A 
ENDBRANCH  18  19
ENDBRANCH  17  18
ENDBRANCH  16  17
ENDBRANCH   3  16
TORSDOF 5
ENDMDL
MODEL 4
REMARK VINA RESULT:      -8.7      0.240      1.034
REMARK  Name = 
REMARK  5 active torsions:
REMARK  status: ('A' for Active; 'I' for Inactive)
REMARK    1  A    between atoms: C_2  and  C_13
REMARK    2  A    between atoms: N_3  and  C_4
REMARK    3  A    between atoms: C_4  and  C_5
REMARK    4  A    between atoms: C_5  and  C_6
REMARK    5  A    between atoms: C_6  and  C_7
REMARK                            x       y       z     vdW  Elec       q    Type
REMARK                         _______ _______ _______ _____ _____    ______ ____
ROOT
ATOM      1  O   UNL     1       5.636   5.011  19.016  0.00  0.00    +0.000 OA
ATOM      2  C   UNL     1       5.457   4.265  18.057  0.00  0.00    +0.000 C 
ATOM      3  N   UNL     1       4.727   3.107  18.147  0.00  0.00    +0.000 N 
ATOM      4  H   UNL     1       4.622   2.522  17.315  0.00  0.00    +0.000 HD
ENDROOT
BRANCH   2   5
ATOM      5  C   UNL     1       6.020   4.581  16.702  0.00  0.00    +0.000 A 
ATOM      6  C   UNL     1       5.597   3.843  15.664  0.00  0.00    +0.000 A 
ATOM      7  C   UNL     1       6.137   4.067  14.330  0.00  0.00    +0.000 A 
ATOM      8  C   UNL     1       5.632   3.433  13.194  0.00  0.00    +0.000 A 
ATOM      9  C   UNL     1       6.230   3.650  11.947  0.00  0.00    +0.000 A 
ATOM     10  C   UNL     1       7.349   4.478  11.835  0.00  0.00    +0.000 A 
ATOM     11  C   UNL     1       7.853   5.120  12.964  0.00  0.00    +0.000 A 
ATOM     12  C   UNL     1       7.225   4.923  14.190  0.00  0.00    +0.000 A 
ATOM     13  O   UNL     1       7.696   5.669  15.281  0.00  0.00    +0.000 OA
ATOM     14  C   UNL     1       7.008   5.666  16.488  0.00  0.00    +0.000 A 
ATOM     15  O   UNL     1       7.247   6.511  17.347  0.00  0.00    +0.000 OA
ENDBRANCH   2   5
BRANCH   3  16
ATOM     16  C   UNL     1       4.080   2.667  19.365  0.00  0.00    +0.000 C 
BRANCH  16  17
ATOM     17  C   UNL     1       2.673   2.131  19.106  0.00  0.00    +0.000 C 
BRANCH  17  18
ATOM     18  C   UNL     1       1.852   3.127  18.284  0.00  0.00    +0.000 C 
BRANCH  18  19
ATOM     19  C   UNL     1       1.932   4.525  18.845  0.00  0.00    +0.000 A 
ATOM     20  C   UNL     1       2.354   5.595  18.045  0.00  0.00    +0.000 A 
ATOM     21  C   UNL     1       2.441   6.884  18.573  0.00  0.00    +0.000 A 
ATOM     22  C   UNL     1       2.113   7.118  19.906  0.00  0.00    +0.000 A 
ATOM     23  C   UNL     1       1.692   6.061  20.712  0.00  0.00    +0.000 A 
ATOM     24  C   UNL     1       1.603   4.771  20.186  0.00  0.00    +0.000 A 
ENDBRANCH  18  19
ENDBRANCH  17  18
ENDBRANCH  16  17
ENDBRANCH   3  16
TORSDOF 5
ENDMDL
MODEL 5
REMARK VINA RESULT:      -8.7      4.258      7.497
REMARK  Name = 
REMARK  5 active torsions:
REMARK  status: ('A' for Active; 'I' for Inactive)
REMARK    1  A    between atoms: C_2  and  C_13
REMARK    2  A    between atoms: N_3  and  C_4
REMARK    3  A    between atoms: C_4  and  C_5
REMARK    4  A    between atoms: C_5  and  C_6
REMARK    5  A    between atoms: C_6  and  C_7
REMARK                            x       y       z     vdW  Elec       q    Type
REMARK                         _______ _______ _______ _____ _____    ______ ____
ROOT
ATOM      1  O   UNL     1       7.512   4.907  18.557  0.00  0.00    +0.000 OA
ATOM      2  C   UNL     1       6.534   5.497  18.108  0.00  0.00    +0.000 C 
ATOM      3  N   UNL     1       6.627   6.726  17.502  0.00  0.00    +0.000 N 
ATOM      4  H   UNL     1       5.774   7.172  17.156  0.00  0.00    +0.000 HD
ENDROOT
BRANCH   2   5
ATOM      5  C   UNL     1       5.158   4.903  18.177  0.00  0.00    +0.000 A 
ATOM      6  C   UNL     1       4.539   4.902  19.368  0.00  0.00    +0.000 A 
ATOM      7  C   UNL     1       3.221   4.300  19.515  0.00  0.00    +0.000 A 
ATOM      8  C   UNL     1       2.471   4.398  20.688  0.00  0.00    +0.000 A 
ATOM      9  C   UNL     1       1.234   3.751  20.784  0.00  0.00    +0.000 A 
ATOM     10  C   UNL     1       0.754   2.982  19.721  0.00  0.00    +0.000 A 
ATOM     11  C   UNL     1       1.494   2.887  18.545  0.00  0.00    +0.000 A 
ATOM     12  C   UNL     1       2.705   3.566  18.451  0.00  0.00    +0.000 A 
ATOM     13  O   UNL     1       3.368   3.532  17.215  0.00  0.00    +0.000 OA
ATOM     14  C   UNL     1       4.481   4.332  16.988  0.00  0.00    +0.000 A 
ATOM     15  O   UNL     1       4.897   4.516  15.847  0.00  0.00    +0.000 OA
ENDBRANCH   2   5
BRANCH   3  16
ATOM     16  C   UNL     1       7.878   7.428  17.314  0.00  0.00    +0.000 C 
BRANCH  16  17
ATOM     17  C   UNL     1       8.088   8.518  18.364  0.00  0.00    +0.000 C 
BRANCH  17  18
ATOM     18  C   UNL     1       8.461   9.848  17.703  0.00  0.00    +0.000 C 
BRANCH  18  19
ATOM     19  C   UNL     1       9.404  10.658  18.555  0.00  0.00    +0.000 A 
ATOM     20  C   UNL     1       9.297  10.647  19.952  0.00  0.00    +0.000 A 
ATOM     21  C   UNL     1      10.163  11.411  20.736  0.00  0.00    +0.000 A 
ATOM     22  C   UNL     1      11.141  12.199  20.133  0.00  0.00    +0.000 A 
ATOM     23  C   UNL     1      11.257  12.219  18.744  0.00  0.00    +0.000 A 
ATOM     24  C   UNL     1      10.392  11.455  17.957  0.00  0.00    +0.000 A 
ENDBRANCH  18  19
ENDBRANCH  17  18
ENDBRANCH  16  17
ENDBRANCH   3  16
TORSDOF 5
ENDMDL
MODEL 6
REMARK VINA RESULT:      -8.6      4.315      7.619
REMARK  Name = 
REMARK  5 active torsions:
REMARK  status: ('A' for Active; 'I' for Inactive)
REMARK    1  A    between atoms: C_2  and  C_13
REMARK    2  A    between atoms: N_3  and  C_4
REMARK    3  A    between atoms: C_4  and  C_5
REMARK    4  A    between atoms: C_5  and  C_6
REMARK    5  A    between atoms: C_6  and  C_7
REMARK                            x       y       z     vdW  Elec       q    Type
REMARK                         _______ _______ _______ _____ _____    ______ ____
ROOT
ATOM      1  O   UNL     1       7.253   5.451  19.552  0.00  0.00    +0.000 OA
ATOM      2  C   UNL     1       6.473   5.809  18.674  0.00  0.00    +0.000 C 
ATOM      3  N   UNL     1       6.784   6.790  17.766  0.00  0.00    +0.000 N 
ATOM      4  H   UNL     1       6.089   7.051  17.062  0.00  0.00    +0.000 HD
ENDROOT
BRANCH   2   5
ATOM      5  C   UNL     1       5.120   5.180  18.522  0.00  0.00    +0.000 A 
ATOM      6  C   UNL     1       4.391   4.993  19.633  0.00  0.00    +0.000 A 
ATOM      7  C   UNL     1       3.088   4.347  19.563  0.00  0.00    +0.000 A 
ATOM      8  C   UNL     1       2.228   4.258  20.658  0.00  0.00    +0.000 A 
ATOM      9  C   UNL     1       1.011   3.576  20.539  0.00  0.00    +0.000 A 
ATOM     10  C   UNL     1       0.663   2.958  19.336  0.00  0.00    +0.000 A 
ATOM     11  C   UNL     1       1.513   3.049  18.237  0.00  0.00    +0.000 A 
ATOM     12  C   UNL     1       2.702   3.762  18.361  0.00  0.00    +0.000 A 
ATOM     13  O   UNL     1       3.480   3.921  17.203  0.00  0.00    +0.000 OA
ATOM     14  C   UNL     1       4.580   4.770  17.204  0.00  0.00    +0.000 A 
ATOM     15  O   UNL     1       5.095   5.127  16.147  0.00  0.00    +0.000 OA
ENDBRANCH   2   5
BRANCH   3  16
ATOM     16  C   UNL     1       8.058   7.477  17.740  0.00  0.00    +0.000 C 
BRANCH  16  17
ATOM     17  C   UNL     1       7.894   8.994  17.816  0.00  0.00    +0.000 C 
BRANCH  17  18
ATOM     18  C   UNL     1       8.903   9.604  18.791  0.00  0.00    +0.000 C 
BRANCH  18  19
ATOM     19  C   UNL     1       9.446  10.920  18.295  0.00  0.00    +0.000 A 
ATOM     20  C   UNL     1      10.827  11.147  18.232  0.00  0.00    +0.000 A 
ATOM     21  C   UNL     1      11.325  12.373  17.786  0.00  0.00    +0.000 A 
ATOM     22  C   UNL     1      10.449  13.386  17.404  0.00  0.00    +0.000 A 
ATOM     23  C   UNL     1       9.073  13.172  17.463  0.00  0.00    +0.000 A 
ATOM     24  C   UNL     1       8.572  11.947  17.908  0.00  0.00    +0.000 A 
ENDBRANCH  18  19
ENDBRANCH  17  18
ENDBRANCH  16  17
ENDBRANCH   3  16
TORSDOF 5
ENDMDL
MODEL 7
REMARK VINA RESULT:      -8.6      1.089      2.711
REMARK  Name = 
REMARK  5 active torsions:
REMARK  status: ('A' for Active; 'I' for Inactive)
REMARK    1  A    between atoms: C_2  and  C_13
REMARK    2  A    between atoms: N_3  and  C_4
REMARK    3  A    between atoms: C_4  and  C_5
REMARK    4  A    between atoms: C_5  and  C_6
REMARK    5  A    between atoms: C_6  and  C_7
REMARK                            x       y       z     vdW  Elec       q    Type
REMARK                         _______ _______ _______ _____ _____    ______ ____
ROOT
ATOM      1  O   UNL     1       5.749   4.408  19.038  0.00  0.00    +0.000 OA
ATOM      2  C   UNL     1       5.302   5.153  18.171  0.00  0.00    +0.000 C 
ATOM      3  N   UNL     1       4.266   6.023  18.406  0.00  0.00    +0.000 N 
ATOM      4  H   UNL     1       3.931   6.611  17.640  0.00  0.00    +0.000 HD
ENDROOT
BRANCH   2   5
ATOM      5  C   UNL     1       5.872   5.173  16.783  0.00  0.00    +0.000 A 
ATOM      6  C   UNL     1       5.346   4.331  15.881  0.00  0.00    +0.000 A 
ATOM      7  C   UNL     1       5.883   4.267  14.529  0.00  0.00    +0.000 A 
ATOM      8  C   UNL     1       5.285   3.520  13.512  0.00  0.00    +0.000 A 
ATOM      9  C   UNL     1       5.882   3.457  12.247  0.00  0.00    +0.000 A 
ATOM     10  C   UNL     1       7.089   4.115  12.002  0.00  0.00    +0.000 A 
ATOM     11  C   UNL     1       7.686   4.869  13.009  0.00  0.00    +0.000 A 
ATOM     12  C   UNL     1       7.062   4.952  14.250  0.00  0.00    +0.000 A 
ATOM     13  O   UNL     1       7.639   5.804  15.204  0.00  0.00    +0.000 OA
ATOM     14  C   UNL     1       6.977   6.081  16.394  0.00  0.00    +0.000 A 
ATOM     15  O   UNL     1       7.331   7.021  17.102  0.00  0.00    +0.000 OA
ENDBRANCH   2   5
BRANCH   3  16
ATOM     16  C   UNL     1       3.623   6.164  19.695  0.00  0.00    +0.000 C 
BRANCH  16  17
ATOM     17  C   UNL     1       2.101   6.082  19.588  0.00  0.00    +0.000 C 
BRANCH  17  18
ATOM     18  C   UNL     1       1.591   4.731  20.096  0.00  0.00    +0.000 C 
BRANCH  18  19
ATOM     19  C   UNL     1       2.274   3.574  19.411  0.00  0.00    +0.000 A 
ATOM     20  C   UNL     1       2.023   3.290  18.062  0.00  0.00    +0.000 A 
ATOM     21  C   UNL     1       2.646   2.209  17.437  0.00  0.00    +0.000 A 
ATOM     22  C   UNL     1       3.523   1.397  18.152  0.00  0.00    +0.000 A 
ATOM     23  C   UNL     1       3.780   1.669  19.495  0.00  0.00    +0.000 A 
ATOM     24  C   UNL     1       3.159   2.751  20.123  0.00  0.00    +0.000 A 
ENDBRANCH  18  19
ENDBRANCH  17  18
ENDBRANCH  16  17
ENDBRANCH   3  16
TORSDOF 5
ENDMDL
MODEL 8
REMARK VINA RESULT:      -8.5      4.304      7.480
REMARK  Name = 
REMARK  5 active torsions:
REMARK  status: ('A' for Active; 'I' for Inactive)
REMARK    1  A    between atoms: C_2  and  C_13
REMARK    2  A    between atoms: N_3  and  C_4
REMARK    3  A    between atoms: C_4  and  C_5
REMARK    4  A    between atoms: C_5  and  C_6
REMARK    5  A    between atoms: C_6  and  C_7
REMARK                            x       y       z     vdW  Elec       q    Type
REMARK                         _______ _______ _______ _____ _____    ______ ____
ROOT
ATOM      1  O   UNL     1       7.494   5.146  18.661  0.00  0.00    +0.000 OA
ATOM      2  C   UNL     1       6.525   5.659  18.109  0.00  0.00    +0.000 C 
ATOM      3  N   UNL     1       6.614   6.832  17.400  0.00  0.00    +0.000 N 
ATOM      4  H   UNL     1       5.769   7.214  16.970  0.00  0.00    +0.000 HD
ENDROOT
BRANCH   2   5
ATOM      5  C   UNL     1       5.166   5.025  18.159  0.00  0.00    +0.000 A 
ATOM      6  C   UNL     1       4.514   5.041  19.332  0.00  0.00    +0.000 A 
ATOM      7  C   UNL     1       3.212   4.403  19.462  0.00  0.00    +0.000 A 
ATOM      8  C   UNL     1       2.427   4.514  20.611  0.00  0.00    +0.000 A 
ATOM      9  C   UNL     1       1.207   3.831  20.694  0.00  0.00    +0.000 A 
ATOM     10  C   UNL     1       0.781   3.016  19.642  0.00  0.00    +0.000 A 
ATOM     11  C   UNL     1       1.556   2.908  18.490  0.00  0.00    +0.000 A 
ATOM     12  C   UNL     1       2.748   3.622  18.409  0.00  0.00    +0.000 A 
ATOM     13  O   UNL     1       3.446   3.570  17.192  0.00  0.00    +0.000 OA
ATOM     14  C   UNL     1       4.541   4.397  16.971  0.00  0.00    +0.000 A 
ATOM     15  O   UNL     1       4.983   4.559  15.837  0.00  0.00    +0.000 OA
ENDBRANCH   2   5
BRANCH   3  16
ATOM     16  C   UNL     1       7.852   7.558  17.215  0.00  0.00    +0.000 C 
BRANCH  16  17
ATOM     17  C   UNL     1       7.813   8.935  17.876  0.00  0.00    +0.000 C 
BRANCH  17  18
ATOM     18  C   UNL     1       8.927   9.073  18.916  0.00  0.00    +0.000 C 
BRANCH  18  19
ATOM     19  C   UNL     1       9.349  10.509  19.107  0.00  0.00    +0.000 A 
ATOM     20  C   UNL     1       9.718  11.299  18.010  0.00  0.00    +0.000 A 
ATOM     21  C   UNL     1      10.122  12.622  18.193  0.00  0.00    +0.000 A 
ATOM     22  C   UNL     1      10.168  13.169  19.474  0.00  0.00    +0.000 A 
ATOM     23  C   UNL     1       9.805  12.392  20.573  0.00  0.00    +0.000 A 
ATOM     24  C   UNL     1       9.399  11.068  20.392  0.00  0.00    +0.000 A 
ENDBRANCH  18  19
ENDBRANCH  17  18
ENDBRANCH  16  17
ENDBRANCH   3  16
TORSDOF 5
ENDMDL
MODEL 9
REMARK VINA RESULT:      -8.5      1.122      1.749
REMARK  Name = 
REMARK  5 active torsions:
REMARK  status: ('A' for Active; 'I' for Inactive)
REMARK    1  A    between atoms: C_2  and  C_13
REMARK    2  A    between atoms: N_3  and  C_4
REMARK    3  A    between atoms: C_4  and  C_5
REMARK    4  A    between atoms: C_5  and  C_6
REMARK    5  A    between atoms: C_6  and  C_7
REMARK                            x       y       z     vdW  Elec       q    Type
REMARK                         _______ _______ _______ _____ _____    ______ ____
ROOT
ATOM      1  O   UNL     1       5.521   3.678  19.080  0.00  0.00    +0.000 OA
ATOM      2  C   UNL     1       4.890   3.984  18.072  0.00  0.00    +0.000 C 
ATOM      3  N   UNL     1       3.519   3.955  18.021  0.00  0.00    +0.000 N 
ATOM      4  H   UNL     1       3.050   4.212  17.149  0.00  0.00    +0.000 HD
ENDROOT
BRANCH   2   5
ATOM      5  C   UNL     1       5.583   4.431  16.818  0.00  0.00    +0.000 A 
ATOM      6  C   UNL     1       5.395   3.700  15.708  0.00  0.00    +0.000 A 
ATOM      7  C   UNL     1       6.074   4.052  14.469  0.00  0.00    +0.000 A 
ATOM      8  C   UNL     1       5.805   3.419  13.254  0.00  0.00    +0.000 A 
ATOM      9  C   UNL     1       6.531   3.766  12.108  0.00  0.00    +0.000 A 
ATOM     10  C   UNL     1       7.544   4.725  12.178  0.00  0.00    +0.000 A 
ATOM     11  C   UNL     1       7.812   5.366  13.385  0.00  0.00    +0.000 A 
ATOM     12  C   UNL     1       7.056   5.036  14.506  0.00  0.00    +0.000 A 
ATOM     13  O   UNL     1       7.284   5.778  15.676  0.00  0.00    +0.000 OA
ATOM     14  C   UNL     1       6.448   5.634  16.777  0.00  0.00    +0.000 A 
ATOM     15  O   UNL     1       6.466   6.458  17.687  0.00  0.00    +0.000 OA
ENDBRANCH   2   5
BRANCH   3  16
ATOM     16  C   UNL     1       2.688   3.586  19.148  0.00  0.00    +0.000 C 
BRANCH  16  17
ATOM     17  C   UNL     1       1.869   4.767  19.668  0.00  0.00    +0.000 C 
BRANCH  17  18
ATOM     18  C   UNL     1       2.779   5.936  20.051  0.00  0.00    +0.000 C 
BRANCH  18  19
ATOM     19  C   UNL     1       2.260   7.252  19.528  0.00  0.00    +0.000 A 
ATOM     20  C   UNL     1       1.548   8.124  20.362  0.00  0.00    +0.000 A 
ATOM     21  C   UNL     1       1.056   9.334  19.869  0.00  0.00    +0.000 A 
ATOM     22  C   UNL     1       1.265   9.683  18.537  0.00  0.00    +0.000 A 
ATOM     23  C   UNL     1       1.971   8.824  17.697  0.00  0.00    +0.000 A 
ATOM     24  C   UNL     1       2.465   7.613  18.188  0.00  0.00    +0.000 A 
ENDBRANCH  18  19
ENDBRANCH  17  18
ENDBRANCH  16  17
ENDBRANCH   3  16
TORSDOF 5
ENDMDL
