MODEL 1
REMARK VINA RESULT:      -7.5      0.000      0.000
REMARK  Name = 
REMARK  14 active torsions:
REMARK  status: ('A' for Active; 'I' for Inactive)
REMARK    1  A    between atoms: N_1  and  C_2
REMARK    2  A    between atoms: C_2  and  C_3
REMARK    3  A    between atoms: C_3  and  C_4
REMARK    4  A    between atoms: C_10  and  O_11
REMARK    5  A    between atoms: O_11  and  C_12
REMARK    6  A    between atoms: C_12  and  C_13
REMARK    7  A    between atoms: C_13  and  N_14
REMARK    8  A    between atoms: N_17  and  C_18
REMARK    9  A    between atoms: C_18  and  C_19
REMARK   10  A    between atoms: C_19  and  O_20
REMARK   11  A    between atoms: O_20  and  C_21
REMARK   12  A    between atoms: C_27  and  C_28
REMARK   13  A    between atoms: C_28  and  C_29
REMARK   14  A    between atoms: C_29  and  N_30
REMARK                            x       y       z     vdW  Elec       q    Type
REMARK                         _______ _______ _______ _____ _____    ______ ____
ROOT
ATOM      1  N   UNL     1       0.190   8.514  20.942  0.00  0.00    +0.000 NA
ATOM      2  C   UNL     1      -0.538   8.535  22.227  0.00  0.00    +0.000 C 
ATOM      3  C   UNL     1       0.078   9.542  23.216  0.00  0.00    +0.000 C 
ATOM      4  N   UNL     1      -0.055  10.934  22.746  0.00  0.00    +0.000 NA
ATOM      5  C   UNL     1       0.521  11.038  21.383  0.00  0.00    +0.000 C 
ATOM      6  C   UNL     1       0.165   9.891  20.389  0.00  0.00    +0.000 C 
ENDROOT
BRANCH   1   7
ATOM      7  C   UNL     1       1.577   8.019  21.103  0.00  0.00    +0.000 C 
BRANCH   7   8
ATOM      8  C   UNL     1       2.152   7.406  19.811  0.00  0.00    +0.000 C 
BRANCH   8   9
ATOM      9  O   UNL     1       1.902   6.010  19.743  0.00  0.00    +0.000 OA
BRANCH   9  16
ATOM     10  C   UNL     1       6.204   5.377  17.490  0.00  0.00    +0.000 A 
ATOM     11  C   UNL     1       6.528   4.446  16.523  0.00  0.00    +0.000 A 
ATOM     12  N   UNL     1       5.441   3.637  16.327  0.00  0.00    +0.000 N 
ATOM     13  C   UNL     1       4.404   4.028  17.138  0.00  0.00    +0.000 A 
ATOM     14  C   UNL     1       3.113   3.506  17.279  0.00  0.00    +0.000 A 
ATOM     15  C   UNL     1       2.248   4.151  18.170  0.00  0.00    +0.000 A 
ATOM     16  C   UNL     1       2.663   5.266  18.895  0.00  0.00    +0.000 A 
ATOM     17  C   UNL     1       3.967   5.747  18.763  0.00  0.00    +0.000 A 
ATOM     18  C   UNL     1       4.851   5.129  17.865  0.00  0.00    +0.000 A 
ATOM     19  H   UNL     1       5.395   2.869  15.672  0.00  0.00    +0.000 HD
BRANCH  10  20
ATOM     20  C   UNL     1       7.090   6.446  18.046  0.00  0.00    +0.000 C 
BRANCH  20  21
ATOM     21  C   UNL     1       8.166   5.871  18.975  0.00  0.00    +0.000 C 
BRANCH  21  22
ATOM     22  N   UNL     1       7.606   5.462  20.264  0.00  0.00    +0.000 NA
ATOM     23  H   UNL     1       7.894   6.132  20.977  0.00  0.00    +0.000 HD
ATOM     24  H   UNL     1       8.005   4.566  20.539  0.00  0.00    +0.000 HD
ENDBRANCH  21  22
ENDBRANCH  20  21
ENDBRANCH  10  20
ENDBRANCH   9  16
ENDBRANCH   8   9
ENDBRANCH   7   8
ENDBRANCH   1   7
BRANCH   4  25
ATOM     25  C   UNL     1      -1.457  11.397  22.777  0.00  0.00    +0.000 C 
BRANCH  25  26
ATOM     26  C   UNL     1      -1.561  12.919  22.956  0.00  0.00    +0.000 C 
BRANCH  26  27
ATOM     27  O   UNL     1      -1.681  13.556  21.683  0.00  0.00    +0.000 OA
BRANCH  27  28
ATOM     28  C   UNL     1      -2.796  13.144  20.991  0.00  0.00    +0.000 A 
ATOM     29  C   UNL     1      -2.743  12.416  19.800  0.00  0.00    +0.000 A 
ATOM     30  C   UNL     1      -3.909  11.998  19.158  0.00  0.00    +0.000 A 
ATOM     31  C   UNL     1      -5.124  12.319  19.758  0.00  0.00    +0.000 A 
ATOM     32  N   UNL     1      -6.406  12.020  19.364  0.00  0.00    +0.000 N 
ATOM     33  C   UNL     1      -7.306  12.522  20.261  0.00  0.00    +0.000 A 
ATOM     34  C   UNL     1      -6.609  13.176  21.259  0.00  0.00    +0.000 A 
ATOM     35  C   UNL     1      -5.218  13.041  20.949  0.00  0.00    +0.000 A 
ATOM     36  C   UNL     1      -4.026  13.461  21.575  0.00  0.00    +0.000 A 
ATOM     37  H   UNL     1      -6.640  11.496  18.532  0.00  0.00    +0.000 HD
BRANCH  34  38
ATOM     38  C   UNL     1      -7.213  13.884  22.431  0.00  0.00    +0.000 C 
BRANCH  38  39
ATOM     39  C   UNL     1      -7.057  13.090  23.734  0.00  0.00    +0.000 C 
BRANCH  39  40
ATOM     40  N   UNL     1      -7.916  13.628  24.789  0.00  0.00    +0.000 NA
ATOM     41  H   UNL     1      -7.715  14.618  24.922  0.00  0.00    +0.000 HD
ATOM     42  H   UNL     1      -7.687  13.169  25.670  0.00  0.00    +0.000 HD
ENDBRANCH  39  40
ENDBRANCH  38  39
ENDBRANCH  34  38
ENDBRANCH  27  28
ENDBRANCH  26  27
ENDBRANCH  25  26
ENDBRANCH   4  25
TORSDOF 14
ENDMDL
MODEL 2
REMARK VINA RESULT:      -7.5      1.917      3.734
REMARK  Name = 
REMARK  14 active torsions:
REMARK  status: ('A' for Active; 'I' for Inactive)
REMARK    1  A    between atoms: N_1  and  C_2
REMARK    2  A    between atoms: C_2  and  C_3
REMARK    3  A    between atoms: C_3  and  C_4
REMARK    4  A    between atoms: C_10  and  O_11
REMARK    5  A    between atoms: O_11  and  C_12
REMARK    6  A    between atoms: C_12  and  C_13
REMARK    7  A    between atoms: C_13  and  N_14
REMARK    8  A    between atoms: N_17  and  C_18
REMARK    9  A    between atoms: C_18  and  C_19
REMARK   10  A    between atoms: C_19  and  O_20
REMARK   11  A    between atoms: O_20  and  C_21
REMARK   12  A    between atoms: C_27  and  C_28
REMARK   13  A    between atoms: C_28  and  C_29
REMARK   14  A    between atoms: C_29  and  N_30
REMARK                            x       y       z     vdW  Elec       q    Type
REMARK                         _______ _______ _______ _____ _____    ______ ____
ROOT
ATOM      1  N   UNL     1      -0.006   9.311  20.735  0.00  0.00    +0.000 NA
ATOM      2  C   UNL     1      -0.636   8.944  22.019  0.00  0.00    +0.000 C 
ATOM      3  C   UNL     1      -0.154   9.847  23.170  0.00  0.00    +0.000 C 
ATOM      4  N   UNL     1      -0.579  11.248  22.991  0.00  0.00    +0.000 NA
ATOM      5  C   UNL     1      -0.127  11.721  21.660  0.00  0.00    +0.000 C 
ATOM      6  C   UNL     1      -0.327  10.736  20.468  0.00  0.00    +0.000 C 
ENDROOT
BRANCH   1   7
ATOM      7  C   UNL     1       1.457   9.079  20.753  0.00  0.00    +0.000 C 
BRANCH   7   8
ATOM      8  C   UNL     1       1.854   7.688  20.220  0.00  0.00    +0.000 C 
BRANCH   8   9
ATOM      9  O   UNL     1       2.472   7.777  18.946  0.00  0.00    +0.000 OA
BRANCH   9  16
ATOM     10  C   UNL     1       2.503   2.884  18.762  0.00  0.00    +0.000 A 
ATOM     11  C   UNL     1       3.393   2.064  18.098  0.00  0.00    +0.000 A 
ATOM     12  N   UNL     1       4.267   2.857  17.401  0.00  0.00    +0.000 N 
ATOM     13  C   UNL     1       3.974   4.183  17.608  0.00  0.00    +0.000 A 
ATOM     14  C   UNL     1       4.590   5.337  17.110  0.00  0.00    +0.000 A 
ATOM     15  C   UNL     1       4.088   6.572  17.536  0.00  0.00    +0.000 A 
ATOM     16  C   UNL     1       3.010   6.645  18.416  0.00  0.00    +0.000 A 
ATOM     17  C   UNL     1       2.391   5.479  18.871  0.00  0.00    +0.000 A 
ATOM     18  C   UNL     1       2.883   4.227  18.472  0.00  0.00    +0.000 A 
ATOM     19  H   UNL     1       5.027   2.522  16.827  0.00  0.00    +0.000 HD
BRANCH  10  20
ATOM     20  C   UNL     1       1.357   2.460  19.625  0.00  0.00    +0.000 C 
BRANCH  20  21
ATOM     21  C   UNL     1       1.321   3.233  20.948  0.00  0.00    +0.000 C 
BRANCH  21  22
ATOM     22  N   UNL     1       1.540   2.352  22.096  0.00  0.00    +0.000 NA
ATOM     23  H   UNL     1       2.155   2.821  22.760  0.00  0.00    +0.000 HD
ATOM     24  H   UNL     1       2.035   1.515  21.793  0.00  0.00    +0.000 HD
ENDBRANCH  21  22
ENDBRANCH  20  21
ENDBRANCH  10  20
ENDBRANCH   9  16
ENDBRANCH   8   9
ENDBRANCH   7   8
ENDBRANCH   1   7
BRANCH   4  25
ATOM     25  C   UNL     1      -2.038  11.410  23.154  0.00  0.00    +0.000 C 
BRANCH  25  26
ATOM     26  C   UNL     1      -2.443  12.883  23.314  0.00  0.00    +0.000 C 
BRANCH  26  27
ATOM     27  O   UNL     1      -2.699  13.463  22.033  0.00  0.00    +0.000 OA
BRANCH  27  28
ATOM     28  C   UNL     1      -3.881  13.025  21.483  0.00  0.00    +0.000 A 
ATOM     29  C   UNL     1      -5.103  13.042  22.159  0.00  0.00    +0.000 A 
ATOM     30  C   UNL     1      -6.277  12.613  21.539  0.00  0.00    +0.000 A 
ATOM     31  C   UNL     1      -6.185  12.183  20.218  0.00  0.00    +0.000 A 
ATOM     32  N   UNL     1      -7.168  11.735  19.367  0.00  0.00    +0.000 N 
ATOM     33  C   UNL     1      -6.635  11.427  18.149  0.00  0.00    +0.000 A 
ATOM     34  C   UNL     1      -5.274  11.663  18.194  0.00  0.00    +0.000 A 
ATOM     35  C   UNL     1      -4.984  12.154  19.507  0.00  0.00    +0.000 A 
ATOM     36  C   UNL     1      -3.808  12.584  20.158  0.00  0.00    +0.000 A 
ATOM     37  H   UNL     1      -8.145  11.656  19.616  0.00  0.00    +0.000 HD
BRANCH  34  38
ATOM     38  C   UNL     1      -4.308  11.439  17.074  0.00  0.00    +0.000 C 
BRANCH  38  39
ATOM     39  C   UNL     1      -2.850  11.488  17.546  0.00  0.00    +0.000 C 
BRANCH  39  40
ATOM     40  N   UNL     1      -1.986  10.677  16.687  0.00  0.00    +0.000 NA
ATOM     41  H   UNL     1      -1.128  11.189  16.484  0.00  0.00    +0.000 HD
ATOM     42  H   UNL     1      -2.450  10.533  15.791  0.00  0.00    +0.000 HD
ENDBRANCH  39  40
ENDBRANCH  38  39
ENDBRANCH  34  38
ENDBRANCH  27  28
ENDBRANCH  26  27
ENDBRANCH  25  26
ENDBRANCH   4  25
TORSDOF 14
ENDMDL
MODEL 3
REMARK VINA RESULT:      -7.4      2.831     12.208
REMARK  Name = 
REMARK  14 active torsions:
REMARK  status: ('A' for Active; 'I' for Inactive)
REMARK    1  A    between atoms: N_1  and  C_2
REMARK    2  A    between atoms: C_2  and  C_3
REMARK    3  A    between atoms: C_3  and  C_4
REMARK    4  A    between atoms: C_10  and  O_11
REMARK    5  A    between atoms: O_11  and  C_12
REMARK    6  A    between atoms: C_12  and  C_13
REMARK    7  A    between atoms: C_13  and  N_14
REMARK    8  A    between atoms: N_17  and  C_18
REMARK    9  A    between atoms: C_18  and  C_19
REMARK   10  A    between atoms: C_19  and  O_20
REMARK   11  A    between atoms: O_20  and  C_21
REMARK   12  A    between atoms: C_27  and  C_28
REMARK   13  A    between atoms: C_28  and  C_29
REMARK   14  A    between atoms: C_29  and  N_30
REMARK                            x       y       z     vdW  Elec       q    Type
REMARK                         _______ _______ _______ _____ _____    ______ ____
ROOT
ATOM      1  N   UNL     1       2.501   5.996  20.142  0.00  0.00    +0.000 NA
ATOM      2  C   UNL     1       2.331   4.737  20.896  0.00  0.00    +0.000 C 
ATOM      3  C   UNL     1       1.068   3.975  20.456  0.00  0.00    +0.000 C 
ATOM      4  N   UNL     1       1.160   3.506  19.060  0.00  0.00    +0.000 NA
ATOM      5  C   UNL     1       1.470   4.662  18.184  0.00  0.00    +0.000 C 
ATOM      6  C   UNL     1       2.559   5.651  18.700  0.00  0.00    +0.000 C 
ENDROOT
BRANCH   1   7
ATOM      7  C   UNL     1       1.413   6.959  20.426  0.00  0.00    +0.000 C 
BRANCH   7   8
ATOM      8  C   UNL     1       1.658   8.348  19.802  0.00  0.00    +0.000 C 
BRANCH   8   9
ATOM      9  O   UNL     1       1.200   9.387  20.653  0.00  0.00    +0.000 OA
BRANCH   9  16
ATOM     10  C   UNL     1      -2.294  12.670  21.652  0.00  0.00    +0.000 A 
ATOM     11  C   UNL     1      -3.219  13.216  20.785  0.00  0.00    +0.000 A 
ATOM     12  N   UNL     1      -2.960  12.741  19.527  0.00  0.00    +0.000 N 
ATOM     13  C   UNL     1      -1.889  11.881  19.555  0.00  0.00    +0.000 A 
ATOM     14  C   UNL     1      -1.274  11.163  18.523  0.00  0.00    +0.000 A 
ATOM     15  C   UNL     1      -0.210  10.320  18.866  0.00  0.00    +0.000 A 
ATOM     16  C   UNL     1       0.221  10.211  20.187  0.00  0.00    +0.000 A 
ATOM     17  C   UNL     1      -0.386  10.964  21.193  0.00  0.00    +0.000 A 
ATOM     18  C   UNL     1      -1.464  11.805  20.879  0.00  0.00    +0.000 A 
ATOM     19  H   UNL     1      -3.483  12.974  18.696  0.00  0.00    +0.000 HD
BRANCH  10  20
ATOM     20  C   UNL     1      -2.174  12.924  23.121  0.00  0.00    +0.000 C 
BRANCH  20  21
ATOM     21  C   UNL     1      -1.153  14.026  23.429  0.00  0.00    +0.000 C 
BRANCH  21  22
ATOM     22  N   UNL     1      -1.625  14.921  24.486  0.00  0.00    +0.000 NA
ATOM     23  H   UNL     1      -2.310  14.426  25.057  0.00  0.00    +0.000 HD
ATOM     24  H   UNL     1      -2.120  15.708  24.069  0.00  0.00    +0.000 HD
ENDBRANCH  21  22
ENDBRANCH  20  21
ENDBRANCH  10  20
ENDBRANCH   9  16
ENDBRANCH   8   9
ENDBRANCH   7   8
ENDBRANCH   1   7
BRANCH   4  25
ATOM     25  C   UNL     1       2.157   2.427  18.904  0.00  0.00    +0.000 C 
BRANCH  25  26
ATOM     26  C   UNL     1       3.234   2.780  17.867  0.00  0.00    +0.000 C 
BRANCH  26  27
ATOM     27  O   UNL     1       4.438   3.180  18.525  0.00  0.00    +0.000 OA
BRANCH  27  28
ATOM     28  C   UNL     1       5.314   3.818  17.679  0.00  0.00    +0.000 A 
ATOM     29  C   UNL     1       6.394   4.587  18.118  0.00  0.00    +0.000 A 
ATOM     30  C   UNL     1       7.269   5.186  17.211  0.00  0.00    +0.000 A 
ATOM     31  C   UNL     1       7.035   4.973  15.855  0.00  0.00    +0.000 A 
ATOM     32  N   UNL     1       7.738   5.415  14.760  0.00  0.00    +0.000 N 
ATOM     33  C   UNL     1       7.161   4.957  13.611  0.00  0.00    +0.000 A 
ATOM     34  C   UNL     1       6.049   4.209  13.948  0.00  0.00    +0.000 A 
ATOM     35  C   UNL     1       5.970   4.208  15.377  0.00  0.00    +0.000 A 
ATOM     36  C   UNL     1       5.092   3.620  16.312  0.00  0.00    +0.000 A 
ATOM     37  H   UNL     1       8.568   5.990  14.809  0.00  0.00    +0.000 HD
BRANCH  34  38
ATOM     38  C   UNL     1       5.118   3.539  12.987  0.00  0.00    +0.000 C 
BRANCH  38  39
ATOM     39  C   UNL     1       5.826   3.106  11.697  0.00  0.00    +0.000 C 
BRANCH  39  40
ATOM     40  N   UNL     1       6.137   1.677  11.717  0.00  0.00    +0.000 NA
ATOM     41  H   UNL     1       7.097   1.540  12.032  0.00  0.00    +0.000 HD
ATOM     42  H   UNL     1       6.095   1.315  10.765  0.00  0.00    +0.000 HD
ENDBRANCH  39  40
ENDBRANCH  38  39
ENDBRANCH  34  38
ENDBRANCH  27  28
ENDBRANCH  26  27
ENDBRANCH  25  26
ENDBRANCH   4  25
TORSDOF 14
ENDMDL
MODEL 4
REMARK VINA RESULT:      -7.4      2.090      3.669
REMARK  Name = 
REMARK  14 active torsions:
REMARK  status: ('A' for Active; 'I' for Inactive)
REMARK    1  A    between atoms: N_1  and  C_2
REMARK    2  A    between atoms: C_2  and  C_3
REMARK    3  A    between atoms: C_3  and  C_4
REMARK    4  A    between atoms: C_10  and  O_11
REMARK    5  A    between atoms: O_11  and  C_12
REMARK    6  A    between atoms: C_12  and  C_13
REMARK    7  A    between atoms: C_13  and  N_14
REMARK    8  A    between atoms: N_17  and  C_18
REMARK    9  A    between atoms: C_18  and  C_19
REMARK   10  A    between atoms: C_19  and  O_20
REMARK   11  A    between atoms: O_20  and  C_21
REMARK   12  A    between atoms: C_27  and  C_28
REMARK   13  A    between atoms: C_28  and  C_29
REMARK   14  A    between atoms: C_29  and  N_30
REMARK                            x       y       z     vdW  Elec       q    Type
REMARK                         _______ _______ _______ _____ _____    ______ ____
ROOT
ATOM      1  N   UNL     1       1.279  10.582  19.480  0.00  0.00    +0.000 NA
ATOM      2  C   UNL     1       0.954  11.985  19.153  0.00  0.00    +0.000 C 
ATOM      3  C   UNL     1      -0.544  12.284  19.344  0.00  0.00    +0.000 C 
ATOM      4  N   UNL     1      -0.956  12.177  20.757  0.00  0.00    +0.000 NA
ATOM      5  C   UNL     1      -0.564  10.843  21.272  0.00  0.00    +0.000 C 
ATOM      6  C   UNL     1       0.859  10.339  20.882  0.00  0.00    +0.000 C 
ENDROOT
BRANCH   1   7
ATOM      7  C   UNL     1       0.628   9.635  18.546  0.00  0.00    +0.000 C 
BRANCH   7   8
ATOM      8  C   UNL     1       1.628   8.921  17.615  0.00  0.00    +0.000 C 
BRANCH   8   9
ATOM      9  O   UNL     1       2.683   8.320  18.350  0.00  0.00    +0.000 OA
BRANCH   9  16
ATOM     10  C   UNL     1       2.223   3.444  18.347  0.00  0.00    +0.000 A 
ATOM     11  C   UNL     1       3.088   2.510  17.813  0.00  0.00    +0.000 A 
ATOM     12  N   UNL     1       4.108   3.178  17.188  0.00  0.00    +0.000 N 
ATOM     13  C   UNL     1       3.935   4.534  17.314  0.00  0.00    +0.000 A 
ATOM     14  C   UNL     1       4.716   5.597  16.846  0.00  0.00    +0.000 A 
ATOM     15  C   UNL     1       4.304   6.895  17.170  0.00  0.00    +0.000 A 
ATOM     16  C   UNL     1       3.153   7.116  17.923  0.00  0.00    +0.000 A 
ATOM     17  C   UNL     1       2.372   6.040  18.349  0.00  0.00    +0.000 A 
ATOM     18  C   UNL     1       2.770   4.728  18.052  0.00  0.00    +0.000 A 
ATOM     19  H   UNL     1       4.886   2.743  16.713  0.00  0.00    +0.000 HD
BRANCH  10  20
ATOM     20  C   UNL     1       0.955   3.177  19.093  0.00  0.00    +0.000 C 
BRANCH  20  21
ATOM     21  C   UNL     1       1.070   3.567  20.572  0.00  0.00    +0.000 C 
BRANCH  21  22
ATOM     22  N   UNL     1       2.185   2.881  21.227  0.00  0.00    +0.000 NA
ATOM     23  H   UNL     1       2.991   2.888  20.601  0.00  0.00    +0.000 HD
ATOM     24  H   UNL     1       1.945   1.901  21.370  0.00  0.00    +0.000 HD
ENDBRANCH  21  22
ENDBRANCH  20  21
ENDBRANCH  10  20
ENDBRANCH   9  16
ENDBRANCH   8   9
ENDBRANCH   7   8
ENDBRANCH   1   7
BRANCH   4  25
ATOM     25  C   UNL     1      -0.389  13.263  21.582  0.00  0.00    +0.000 C 
BRANCH  25  26
ATOM     26  C   UNL     1      -1.474  14.035  22.347  0.00  0.00    +0.000 C 
BRANCH  26  27
ATOM     27  O   UNL     1      -2.609  14.251  21.506  0.00  0.00    +0.000 OA
BRANCH  27  28
ATOM     28  C   UNL     1      -3.759  13.699  22.022  0.00  0.00    +0.000 A 
ATOM     29  C   UNL     1      -4.063  13.678  23.385  0.00  0.00    +0.000 A 
ATOM     30  C   UNL     1      -5.261  13.131  23.848  0.00  0.00    +0.000 A 
ATOM     31  C   UNL     1      -6.145  12.625  22.899  0.00  0.00    +0.000 A 
ATOM     32  N   UNL     1      -7.387  12.058  23.066  0.00  0.00    +0.000 N 
ATOM     33  C   UNL     1      -7.915  11.709  21.856  0.00  0.00    +0.000 A 
ATOM     34  C   UNL     1      -7.004  12.039  20.871  0.00  0.00    +0.000 A 
ATOM     35  C   UNL     1      -5.879  12.631  21.529  0.00  0.00    +0.000 A 
ATOM     36  C   UNL     1      -4.658  13.181  21.085  0.00  0.00    +0.000 A 
ATOM     37  H   UNL     1      -7.839  11.929  23.961  0.00  0.00    +0.000 HD
BRANCH  34  38
ATOM     38  C   UNL     1      -7.179  11.810  19.402  0.00  0.00    +0.000 C 
BRANCH  38  39
ATOM     39  C   UNL     1      -6.498  10.521  18.929  0.00  0.00    +0.000 C 
BRANCH  39  40
ATOM     40  N   UNL     1      -7.378   9.364  19.092  0.00  0.00    +0.000 NA
ATOM     41  H   UNL     1      -7.439   8.854  18.211  0.00  0.00    +0.000 HD
ATOM     42  H   UNL     1      -8.322   9.690  19.297  0.00  0.00    +0.000 HD
ENDBRANCH  39  40
ENDBRANCH  38  39
ENDBRANCH  34  38
ENDBRANCH  27  28
ENDBRANCH  26  27
ENDBRANCH  25  26
ENDBRANCH   4  25
TORSDOF 14
ENDMDL
MODEL 5
REMARK VINA RESULT:      -7.4      3.168      5.529
REMARK  Name = 
REMARK  14 active torsions:
REMARK  status: ('A' for Active; 'I' for Inactive)
REMARK    1  A    between atoms: N_1  and  C_2
REMARK    2  A    between atoms: C_2  and  C_3
REMARK    3  A    between atoms: C_3  and  C_4
REMARK    4  A    between atoms: C_10  and  O_11
REMARK    5  A    between atoms: O_11  and  C_12
REMARK    6  A    between atoms: C_12  and  C_13
REMARK    7  A    between atoms: C_13  and  N_14
REMARK    8  A    between atoms: N_17  and  C_18
REMARK    9  A    between atoms: C_18  and  C_19
REMARK   10  A    between atoms: C_19  and  O_20
REMARK   11  A    between atoms: O_20  and  C_21
REMARK   12  A    between atoms: C_27  and  C_28
REMARK   13  A    between atoms: C_28  and  C_29
REMARK   14  A    between atoms: C_29  and  N_30
REMARK                            x       y       z     vdW  Elec       q    Type
REMARK                         _______ _______ _______ _____ _____    ______ ____
ROOT
ATOM      1  N   UNL     1       1.389   4.025  18.910  0.00  0.00    +0.000 NA
ATOM      2  C   UNL     1       0.841   4.696  20.106  0.00  0.00    +0.000 C 
ATOM      3  C   UNL     1       1.927   5.476  20.870  0.00  0.00    +0.000 C 
ATOM      4  N   UNL     1       2.460   6.603  20.081  0.00  0.00    +0.000 NA
ATOM      5  C   UNL     1       2.932   6.093  18.771  0.00  0.00    +0.000 C 
ATOM      6  C   UNL     1       2.004   5.067  18.051  0.00  0.00    +0.000 C 
ENDROOT
BRANCH   1   7
ATOM      7  C   UNL     1       2.366   2.972  19.269  0.00  0.00    +0.000 C 
BRANCH   7   8
ATOM      8  C   UNL     1       3.465   2.781  18.204  0.00  0.00    +0.000 C 
BRANCH   8   9
ATOM      9  O   UNL     1       4.733   3.200  18.685  0.00  0.00    +0.000 OA
BRANCH   9  16
ATOM     10  C   UNL     1       5.962   4.237  14.060  0.00  0.00    +0.000 A 
ATOM     11  C   UNL     1       7.047   4.964  13.612  0.00  0.00    +0.000 A 
ATOM     12  N   UNL     1       7.724   5.440  14.704  0.00  0.00    +0.000 N 
ATOM     13  C   UNL     1       7.110   5.027  15.861  0.00  0.00    +0.000 A 
ATOM     14  C   UNL     1       7.442   5.264  17.200  0.00  0.00    +0.000 A 
ATOM     15  C   UNL     1       6.641   4.669  18.180  0.00  0.00    +0.000 A 
ATOM     16  C   UNL     1       5.549   3.877  17.831  0.00  0.00    +0.000 A 
ATOM     17  C   UNL     1       5.218   3.683  16.489  0.00  0.00    +0.000 A 
ATOM     18  C   UNL     1       6.013   4.256  15.485  0.00  0.00    +0.000 A 
ATOM     19  H   UNL     1       8.562   6.003  14.672  0.00  0.00    +0.000 HD
BRANCH  10  20
ATOM     20  C   UNL     1       4.926   3.555  13.225  0.00  0.00    +0.000 C 
BRANCH  20  21
ATOM     21  C   UNL     1       5.458   3.204  11.830  0.00  0.00    +0.000 C 
BRANCH  21  22
ATOM     22  N   UNL     1       6.534   2.214  11.894  0.00  0.00    +0.000 NA
ATOM     23  H   UNL     1       7.139   2.331  11.082  0.00  0.00    +0.000 HD
ATOM     24  H   UNL     1       6.139   1.277  11.821  0.00  0.00    +0.000 HD
ENDBRANCH  21  22
ENDBRANCH  20  21
ENDBRANCH  10  20
ENDBRANCH   9  16
ENDBRANCH   8   9
ENDBRANCH   7   8
ENDBRANCH   1   7
BRANCH   4  25
ATOM     25  C   UNL     1       1.465   7.681  19.915  0.00  0.00    +0.000 C 
BRANCH  25  26
ATOM     26  C   UNL     1       1.074   8.321  21.256  0.00  0.00    +0.000 C 
BRANCH  26  27
ATOM     27  O   UNL     1       1.303   9.731  21.212  0.00  0.00    +0.000 OA
BRANCH  27  28
ATOM     28  C   UNL     1       0.174  10.437  20.869  0.00  0.00    +0.000 A 
ATOM     29  C   UNL     1      -0.422  11.393  21.695  0.00  0.00    +0.000 A 
ATOM     30  C   UNL     1      -1.551  12.101  21.280  0.00  0.00    +0.000 A 
ATOM     31  C   UNL     1      -2.049  11.831  20.008  0.00  0.00    +0.000 A 
ATOM     32  N   UNL     1      -3.117  12.385  19.344  0.00  0.00    +0.000 N 
ATOM     33  C   UNL     1      -3.242  11.831  18.103  0.00  0.00    +0.000 A 
ATOM     34  C   UNL     1      -2.248  10.883  17.945  0.00  0.00    +0.000 A 
ATOM     35  C   UNL     1      -1.480  10.886  19.152  0.00  0.00    +0.000 A 
ATOM     36  C   UNL     1      -0.344  10.175  19.597  0.00  0.00    +0.000 A 
ATOM     37  H   UNL     1      -3.713  13.107  19.726  0.00  0.00    +0.000 HD
BRANCH  34  38
ATOM     38  C   UNL     1      -2.036  10.027  16.736  0.00  0.00    +0.000 C 
BRANCH  38  39
ATOM     39  C   UNL     1      -3.261  10.010  15.814  0.00  0.00    +0.000 C 
BRANCH  39  40
ATOM     40  N   UNL     1      -2.865  10.036  14.405  0.00  0.00    +0.000 NA
ATOM     41  H   UNL     1      -1.882  10.297  14.331  0.00  0.00    +0.000 HD
ATOM     42  H   UNL     1      -3.390  10.767  13.926  0.00  0.00    +0.000 HD
ENDBRANCH  39  40
ENDBRANCH  38  39
ENDBRANCH  34  38
ENDBRANCH  27  28
ENDBRANCH  26  27
ENDBRANCH  25  26
ENDBRANCH   4  25
TORSDOF 14
ENDMDL
MODEL 6
REMARK VINA RESULT:      -7.4      2.195     11.809
REMARK  Name = 
REMARK  14 active torsions:
REMARK  status: ('A' for Active; 'I' for Inactive)
REMARK    1  A    between atoms: N_1  and  C_2
REMARK    2  A    between atoms: C_2  and  C_3
REMARK    3  A    between atoms: C_3  and  C_4
REMARK    4  A    between atoms: C_10  and  O_11
REMARK    5  A    between atoms: O_11  and  C_12
REMARK    6  A    between atoms: C_12  and  C_13
REMARK    7  A    between atoms: C_13  and  N_14
REMARK    8  A    between atoms: N_17  and  C_18
REMARK    9  A    between atoms: C_18  and  C_19
REMARK   10  A    between atoms: C_19  and  O_20
REMARK   11  A    between atoms: O_20  and  C_21
REMARK   12  A    between atoms: C_27  and  C_28
REMARK   13  A    between atoms: C_28  and  C_29
REMARK   14  A    between atoms: C_29  and  N_30
REMARK                            x       y       z     vdW  Elec       q    Type
REMARK                         _______ _______ _______ _____ _____    ______ ____
ROOT
ATOM      1  N   UNL     1      -1.398  12.299  20.149  0.00  0.00    +0.000 NA
ATOM      2  C   UNL     1      -0.922  12.390  18.754  0.00  0.00    +0.000 C 
ATOM      3  C   UNL     1       0.615  12.396  18.675  0.00  0.00    +0.000 C 
ATOM      4  N   UNL     1       1.200  11.121  19.134  0.00  0.00    +0.000 NA
ATOM      5  C   UNL     1       0.694  10.824  20.496  0.00  0.00    +0.000 C 
ATOM      6  C   UNL     1      -0.827  11.063  20.740  0.00  0.00    +0.000 C 
ENDROOT
BRANCH   1   7
ATOM      7  C   UNL     1      -1.027  13.498  20.936  0.00  0.00    +0.000 C 
BRANCH   7   8
ATOM      8  C   UNL     1      -2.072  14.628  20.843  0.00  0.00    +0.000 C 
BRANCH   8   9
ATOM      9  O   UNL     1      -2.543  15.007  22.126  0.00  0.00    +0.000 OA
BRANCH   9  16
ATOM     10  C   UNL     1      -6.971  12.915  22.146  0.00  0.00    +0.000 A 
ATOM     11  C   UNL     1      -7.548  12.158  23.146  0.00  0.00    +0.000 A 
ATOM     12  N   UNL     1      -6.631  12.006  24.152  0.00  0.00    +0.000 N 
ATOM     13  C   UNL     1      -5.466  12.661  23.836  0.00  0.00    +0.000 A 
ATOM     14  C   UNL     1      -4.270  12.783  24.552  0.00  0.00    +0.000 A 
ATOM     15  C   UNL     1      -3.253  13.561  23.986  0.00  0.00    +0.000 A 
ATOM     16  C   UNL     1      -3.428  14.183  22.751  0.00  0.00    +0.000 A 
ATOM     17  C   UNL     1      -4.618  14.017  22.040  0.00  0.00    +0.000 A 
ATOM     18  C   UNL     1      -5.659  13.255  22.591  0.00  0.00    +0.000 A 
ATOM     19  H   UNL     1      -6.785  11.497  25.010  0.00  0.00    +0.000 HD
BRANCH  10  20
ATOM     20  C   UNL     1      -7.589  13.312  20.843  0.00  0.00    +0.000 C 
BRANCH  20  21
ATOM     21  C   UNL     1      -7.052  12.474  19.677  0.00  0.00    +0.000 C 
BRANCH  21  22
ATOM     22  N   UNL     1      -7.520  11.089  19.745  0.00  0.00    +0.000 NA
ATOM     23  H   UNL     1      -7.286  10.706  20.661  0.00  0.00    +0.000 HD
ATOM     24  H   UNL     1      -7.014  10.525  19.064  0.00  0.00    +0.000 HD
ENDBRANCH  21  22
ENDBRANCH  20  21
ENDBRANCH  10  20
ENDBRANCH   9  16
ENDBRANCH   8   9
ENDBRANCH   7   8
ENDBRANCH   1   7
BRANCH   4  25
ATOM     25  C   UNL     1       0.917  10.014  18.199  0.00  0.00    +0.000 C 
BRANCH  25  26
ATOM     26  C   UNL     1       2.126   9.083  18.021  0.00  0.00    +0.000 C 
BRANCH  26  27
ATOM     27  O   UNL     1       2.069   8.017  18.971  0.00  0.00    +0.000 OA
BRANCH  27  28
ATOM     28  C   UNL     1       2.682   6.873  18.515  0.00  0.00    +0.000 A 
ATOM     29  C   UNL     1       3.792   6.875  17.667  0.00  0.00    +0.000 A 
ATOM     30  C   UNL     1       4.392   5.682  17.262  0.00  0.00    +0.000 A 
ATOM     31  C   UNL     1       3.854   4.494  17.749  0.00  0.00    +0.000 A 
ATOM     32  N   UNL     1       4.251   3.195  17.537  0.00  0.00    +0.000 N 
ATOM     33  C   UNL     1       3.443   2.335  18.224  0.00  0.00    +0.000 A 
ATOM     34  C   UNL     1       2.486   3.074  18.893  0.00  0.00    +0.000 A 
ATOM     35  C   UNL     1       2.749   4.450  18.602  0.00  0.00    +0.000 A 
ATOM     36  C   UNL     1       2.153   5.669  18.990  0.00  0.00    +0.000 A 
ATOM     37  H   UNL     1       5.036   2.926  16.960  0.00  0.00    +0.000 HD
BRANCH  34  38
ATOM     38  C   UNL     1       1.392   2.521  19.751  0.00  0.00    +0.000 C 
BRANCH  38  39
ATOM     39  C   UNL     1       1.422   3.092  21.173  0.00  0.00    +0.000 C 
BRANCH  39  40
ATOM     40  N   UNL     1       2.543   2.548  21.940  0.00  0.00    +0.000 NA
ATOM     41  H   UNL     1       2.710   3.130  22.761  0.00  0.00    +0.000 HD
ATOM     42  H   UNL     1       3.390   2.603  21.375  0.00  0.00    +0.000 HD
ENDBRANCH  39  40
ENDBRANCH  38  39
ENDBRANCH  34  38
ENDBRANCH  27  28
ENDBRANCH  26  27
ENDBRANCH  25  26
ENDBRANCH   4  25
TORSDOF 14
ENDMDL
MODEL 7
REMARK VINA RESULT:      -7.3      2.010      3.442
REMARK  Name = 
REMARK  14 active torsions:
REMARK  status: ('A' for Active; 'I' for Inactive)
REMARK    1  A    between atoms: N_1  and  C_2
REMARK    2  A    between atoms: C_2  and  C_3
REMARK    3  A    between atoms: C_3  and  C_4
REMARK    4  A    between atoms: C_10  and  O_11
REMARK    5  A    between atoms: O_11  and  C_12
REMARK    6  A    between atoms: C_12  and  C_13
REMARK    7  A    between atoms: C_13  and  N_14
REMARK    8  A    between atoms: N_17  and  C_18
REMARK    9  A    between atoms: C_18  and  C_19
REMARK   10  A    between atoms: C_19  and  O_20
REMARK   11  A    between atoms: O_20  and  C_21
REMARK   12  A    between atoms: C_27  and  C_28
REMARK   13  A    between atoms: C_28  and  C_29
REMARK   14  A    between atoms: C_29  and  N_30
REMARK                            x       y       z     vdW  Elec       q    Type
REMARK                         _______ _______ _______ _____ _____    ______ ____
ROOT
ATOM      1  N   UNL     1      -0.161   9.560  19.783  0.00  0.00    +0.000 NA
ATOM      2  C   UNL     1      -0.185   8.983  21.143  0.00  0.00    +0.000 C 
ATOM      3  C   UNL     1       0.621   9.836  22.140  0.00  0.00    +0.000 C 
ATOM      4  N   UNL     1       0.020  11.168  22.343  0.00  0.00    +0.000 NA
ATOM      5  C   UNL     1      -0.147  11.826  21.025  0.00  0.00    +0.000 C 
ATOM      6  C   UNL     1      -0.705  10.938  19.871  0.00  0.00    +0.000 C 
ENDROOT
BRANCH   1   7
ATOM      7  C   UNL     1       1.203   9.551  19.206  0.00  0.00    +0.000 C 
BRANCH   7   8
ATOM      8  C   UNL     1       1.833   8.145  19.169  0.00  0.00    +0.000 C 
BRANCH   8   9
ATOM      9  O   UNL     1       2.819   8.044  18.153  0.00  0.00    +0.000 OA
BRANCH   9  16
ATOM     10  C   UNL     1       2.442   3.192  18.704  0.00  0.00    +0.000 A 
ATOM     11  C   UNL     1       3.303   2.216  18.245  0.00  0.00    +0.000 A 
ATOM     12  N   UNL     1       4.290   2.824  17.515  0.00  0.00    +0.000 N 
ATOM     13  C   UNL     1       4.098   4.184  17.497  0.00  0.00    +0.000 A 
ATOM     14  C   UNL     1       4.845   5.197  16.886  0.00  0.00    +0.000 A 
ATOM     15  C   UNL     1       4.422   6.518  17.079  0.00  0.00    +0.000 A 
ATOM     16  C   UNL     1       3.295   6.806  17.845  0.00  0.00    +0.000 A 
ATOM     17  C   UNL     1       2.546   5.774  18.415  0.00  0.00    +0.000 A 
ATOM     18  C   UNL     1       2.956   4.443  18.250  0.00  0.00    +0.000 A 
ATOM     19  H   UNL     1       5.057   2.349  17.062  0.00  0.00    +0.000 HD
BRANCH  10  20
ATOM     20  C   UNL     1       1.205   2.993  19.521  0.00  0.00    +0.000 C 
BRANCH  20  21
ATOM     21  C   UNL     1       1.529   2.523  20.943  0.00  0.00    +0.000 C 
BRANCH  21  22
ATOM     22  N   UNL     1       2.206   3.566  21.716  0.00  0.00    +0.000 NA
ATOM     23  H   UNL     1       3.157   3.260  21.921  0.00  0.00    +0.000 HD
ATOM     24  H   UNL     1       1.743   3.676  22.617  0.00  0.00    +0.000 HD
ENDBRANCH  21  22
ENDBRANCH  20  21
ENDBRANCH  10  20
ENDBRANCH   9  16
ENDBRANCH   8   9
ENDBRANCH   7   8
ENDBRANCH   1   7
BRANCH   4  25
ATOM     25  C   UNL     1      -1.261  11.091  23.075  0.00  0.00    +0.000 C 
BRANCH  25  26
ATOM     26  C   UNL     1      -1.913  12.472  23.247  0.00  0.00    +0.000 C 
BRANCH  26  27
ATOM     27  O   UNL     1      -3.191  12.336  23.872  0.00  0.00    +0.000 OA
BRANCH  27  28
ATOM     28  C   UNL     1      -4.164  13.080  23.246  0.00  0.00    +0.000 A 
ATOM     29  C   UNL     1      -4.725  14.237  23.791  0.00  0.00    +0.000 A 
ATOM     30  C   UNL     1      -5.688  14.969  23.095  0.00  0.00    +0.000 A 
ATOM     31  C   UNL     1      -6.054  14.512  21.832  0.00  0.00    +0.000 A 
ATOM     32  N   UNL     1      -6.947  15.039  20.929  0.00  0.00    +0.000 N 
ATOM     33  C   UNL     1      -6.989  14.270  19.801  0.00  0.00    +0.000 A 
ATOM     34  C   UNL     1      -6.119  13.208  19.963  0.00  0.00    +0.000 A 
ATOM     35  C   UNL     1      -5.514  13.362  21.251  0.00  0.00    +0.000 A 
ATOM     36  C   UNL     1      -4.549  12.633  21.978  0.00  0.00    +0.000 A 
ATOM     37  H   UNL     1      -7.484  15.880  21.083  0.00  0.00    +0.000 HD
BRANCH  34  38
ATOM     38  C   UNL     1      -5.874  12.116  18.970  0.00  0.00    +0.000 C 
BRANCH  38  39
ATOM     39  C   UNL     1      -7.169  11.413  18.547  0.00  0.00    +0.000 C 
BRANCH  39  40
ATOM     40  N   UNL     1      -7.167  10.007  18.950  0.00  0.00    +0.000 NA
ATOM     41  H   UNL     1      -8.099   9.741  19.267  0.00  0.00    +0.000 HD
ATOM     42  H   UNL     1      -6.549   9.892  19.752  0.00  0.00    +0.000 HD
ENDBRANCH  39  40
ENDBRANCH  38  39
ENDBRANCH  34  38
ENDBRANCH  27  28
ENDBRANCH  26  27
ENDBRANCH  25  26
ENDBRANCH   4  25
TORSDOF 14
ENDMDL
MODEL 8
REMARK VINA RESULT:      -7.2      1.128      2.141
REMARK  Name = 
REMARK  14 active torsions:
REMARK  status: ('A' for Active; 'I' for Inactive)
REMARK    1  A    between atoms: N_1  and  C_2
REMARK    2  A    between atoms: C_2  and  C_3
REMARK    3  A    between atoms: C_3  and  C_4
REMARK    4  A    between atoms: C_10  and  O_11
REMARK    5  A    between atoms: O_11  and  C_12
REMARK    6  A    between atoms: C_12  and  C_13
REMARK    7  A    between atoms: C_13  and  N_14
REMARK    8  A    between atoms: N_17  and  C_18
REMARK    9  A    between atoms: C_18  and  C_19
REMARK   10  A    between atoms: C_19  and  O_20
REMARK   11  A    between atoms: O_20  and  C_21
REMARK   12  A    between atoms: C_27  and  C_28
REMARK   13  A    between atoms: C_28  and  C_29
REMARK   14  A    between atoms: C_29  and  N_30
REMARK                            x       y       z     vdW  Elec       q    Type
REMARK                         _______ _______ _______ _____ _____    ______ ____
ROOT
ATOM      1  N   UNL     1       0.348   8.440  20.673  0.00  0.00    +0.000 NA
ATOM      2  C   UNL     1      -0.388   8.548  21.949  0.00  0.00    +0.000 C 
ATOM      3  C   UNL     1       0.327   9.483  22.943  0.00  0.00    +0.000 C 
ATOM      4  N   UNL     1       0.358  10.880  22.467  0.00  0.00    +0.000 NA
ATOM      5  C   UNL     1       0.957  10.913  21.111  0.00  0.00    +0.000 C 
ATOM      6  C   UNL     1       0.485   9.809  20.116  0.00  0.00    +0.000 C 
ENDROOT
BRANCH   1   7
ATOM      7  C   UNL     1       1.667   7.792  20.852  0.00  0.00    +0.000 C 
BRANCH   7   8
ATOM      8  C   UNL     1       2.321   7.379  19.518  0.00  0.00    +0.000 C 
BRANCH   8   9
ATOM      9  O   UNL     1       1.901   6.085  19.113  0.00  0.00    +0.000 OA
BRANCH   9  16
ATOM     10  C   UNL     1       6.427   5.540  17.324  0.00  0.00    +0.000 A 
ATOM     11  C   UNL     1       6.903   4.532  16.510  0.00  0.00    +0.000 A 
ATOM     12  N   UNL     1       5.897   3.621  16.324  0.00  0.00    +0.000 N 
ATOM     13  C   UNL     1       4.765   4.020  16.992  0.00  0.00    +0.000 A 
ATOM     14  C   UNL     1       3.506   3.415  17.087  0.00  0.00    +0.000 A 
ATOM     15  C   UNL     1       2.519   4.088  17.816  0.00  0.00    +0.000 A 
ATOM     16  C   UNL     1       2.787   5.310  18.430  0.00  0.00    +0.000 A 
ATOM     17  C   UNL     1       4.061   5.875  18.349  0.00  0.00    +0.000 A 
ATOM     18  C   UNL     1       5.065   5.230  17.612  0.00  0.00    +0.000 A 
ATOM     19  H   UNL     1       5.966   2.781  15.768  0.00  0.00    +0.000 HD
BRANCH  10  20
ATOM     20  C   UNL     1       7.181   6.734  17.816  0.00  0.00    +0.000 C 
BRANCH  20  21
ATOM     21  C   UNL     1       8.163   6.369  18.936  0.00  0.00    +0.000 C 
BRANCH  21  22
ATOM     22  N   UNL     1       7.519   5.572  19.981  0.00  0.00    +0.000 NA
ATOM     23  H   UNL     1       6.587   5.947  20.156  0.00  0.00    +0.000 HD
ATOM     24  H   UNL     1       8.035   5.676  20.854  0.00  0.00    +0.000 HD
ENDBRANCH  21  22
ENDBRANCH  20  21
ENDBRANCH  10  20
ENDBRANCH   9  16
ENDBRANCH   8   9
ENDBRANCH   7   8
ENDBRANCH   1   7
BRANCH   4  25
ATOM     25  C   UNL     1      -0.984  11.498  22.480  0.00  0.00    +0.000 C 
BRANCH  25  26
ATOM     26  C   UNL     1      -1.139  12.566  21.387  0.00  0.00    +0.000 C 
BRANCH  26  27
ATOM     27  O   UNL     1      -1.565  13.802  21.965  0.00  0.00    +0.000 OA
BRANCH  27  28
ATOM     28  C   UNL     1      -2.755  13.683  22.644  0.00  0.00    +0.000 A 
ATOM     29  C   UNL     1      -2.928  14.064  23.976  0.00  0.00    +0.000 A 
ATOM     30  C   UNL     1      -4.170  13.949  24.604  0.00  0.00    +0.000 A 
ATOM     31  C   UNL     1      -5.229  13.456  23.847  0.00  0.00    +0.000 A 
ATOM     32  N   UNL     1      -6.544  13.260  24.196  0.00  0.00    +0.000 N 
ATOM     33  C   UNL     1      -7.247  12.767  23.134  0.00  0.00    +0.000 A 
ATOM     34  C   UNL     1      -6.382  12.621  22.067  0.00  0.00    +0.000 A 
ATOM     35  C   UNL     1      -5.097  13.068  22.513  0.00  0.00    +0.000 A 
ATOM     36  C   UNL     1      -3.831  13.185  21.901  0.00  0.00    +0.000 A 
ATOM     37  H   UNL     1      -6.928  13.463  25.109  0.00  0.00    +0.000 HD
BRANCH  34  38
ATOM     38  C   UNL     1      -6.740  12.094  20.713  0.00  0.00    +0.000 C 
BRANCH  38  39
ATOM     39  C   UNL     1      -7.915  11.110  20.764  0.00  0.00    +0.000 C 
BRANCH  39  40
ATOM     40  N   UNL     1      -7.510   9.828  21.340  0.00  0.00    +0.000 NA
ATOM     41  H   UNL     1      -7.816   9.069  20.732  0.00  0.00    +0.000 HD
ATOM     42  H   UNL     1      -7.992   9.694  22.227  0.00  0.00    +0.000 HD
ENDBRANCH  39  40
ENDBRANCH  38  39
ENDBRANCH  34  38
ENDBRANCH  27  28
ENDBRANCH  26  27
ENDBRANCH  25  26
ENDBRANCH   4  25
TORSDOF 14
ENDMDL
MODEL 9
REMARK VINA RESULT:      -7.2      2.834      5.284
REMARK  Name = 
REMARK  14 active torsions:
REMARK  status: ('A' for Active; 'I' for Inactive)
REMARK    1  A    between atoms: N_1  and  C_2
REMARK    2  A    between atoms: C_2  and  C_3
REMARK    3  A    between atoms: C_3  and  C_4
REMARK    4  A    between atoms: C_10  and  O_11
REMARK    5  A    between atoms: O_11  and  C_12
REMARK    6  A    between atoms: C_12  and  C_13
REMARK    7  A    between atoms: C_13  and  N_14
REMARK    8  A    between atoms: N_17  and  C_18
REMARK    9  A    between atoms: C_18  and  C_19
REMARK   10  A    between atoms: C_19  and  O_20
REMARK   11  A    between atoms: O_20  and  C_21
REMARK   12  A    between atoms: C_27  and  C_28
REMARK   13  A    between atoms: C_28  and  C_29
REMARK   14  A    between atoms: C_29  and  N_30
REMARK                            x       y       z     vdW  Elec       q    Type
REMARK                         _______ _______ _______ _____ _____    ______ ____
ROOT
ATOM      1  N   UNL     1       1.200   3.952  19.036  0.00  0.00    +0.000 NA
ATOM      2  C   UNL     1       1.133   4.755  20.273  0.00  0.00    +0.000 C 
ATOM      3  C   UNL     1       2.459   5.488  20.550  0.00  0.00    +0.000 C 
ATOM      4  N   UNL     1       2.757   6.503  19.521  0.00  0.00    +0.000 NA
ATOM      5  C   UNL     1       2.723   5.859  18.186  0.00  0.00    +0.000 C 
ATOM      6  C   UNL     1       1.546   4.870  17.922  0.00  0.00    +0.000 C 
ENDROOT
BRANCH   1   7
ATOM      7  C   UNL     1       2.177   2.845  19.150  0.00  0.00    +0.000 C 
BRANCH   7   8
ATOM      8  C   UNL     1       3.225   2.847  18.019  0.00  0.00    +0.000 C 
BRANCH   8   9
ATOM      9  O   UNL     1       4.523   3.134  18.515  0.00  0.00    +0.000 OA
BRANCH   9  16
ATOM     10  C   UNL     1       6.010   4.171  13.966  0.00  0.00    +0.000 A 
ATOM     11  C   UNL     1       7.109   4.912  13.579  0.00  0.00    +0.000 A 
ATOM     12  N   UNL     1       7.713   5.402  14.707  0.00  0.00    +0.000 N 
ATOM     13  C   UNL     1       7.038   4.984  15.828  0.00  0.00    +0.000 A 
ATOM     14  C   UNL     1       7.287   5.232  17.182  0.00  0.00    +0.000 A 
ATOM     15  C   UNL     1       6.437   4.628  18.117  0.00  0.00    +0.000 A 
ATOM     16  C   UNL     1       5.379   3.819  17.708  0.00  0.00    +0.000 A 
ATOM     17  C   UNL     1       5.131   3.616  16.349  0.00  0.00    +0.000 A 
ATOM     18  C   UNL     1       5.976   4.197  15.391  0.00  0.00    +0.000 A 
ATOM     19  H   UNL     1       8.543   5.976  14.721  0.00  0.00    +0.000 HD
BRANCH  10  20
ATOM     20  C   UNL     1       5.035   3.471  13.074  0.00  0.00    +0.000 C 
BRANCH  20  21
ATOM     21  C   UNL     1       5.652   3.123  11.714  0.00  0.00    +0.000 C 
BRANCH  21  22
ATOM     22  N   UNL     1       6.259   1.791  11.720  0.00  0.00    +0.000 NA
ATOM     23  H   UNL     1       5.841   1.241  12.470  0.00  0.00    +0.000 HD
ATOM     24  H   UNL     1       7.250   1.869  11.945  0.00  0.00    +0.000 HD
ENDBRANCH  21  22
ENDBRANCH  20  21
ENDBRANCH  10  20
ENDBRANCH   9  16
ENDBRANCH   8   9
ENDBRANCH   7   8
ENDBRANCH   1   7
BRANCH   4  25
ATOM     25  C   UNL     1       1.830   7.651  19.591  0.00  0.00    +0.000 C 
BRANCH  25  26
ATOM     26  C   UNL     1       1.966   8.580  18.374  0.00  0.00    +0.000 C 
BRANCH  26  27
ATOM     27  O   UNL     1       0.709   9.194  18.083  0.00  0.00    +0.000 OA
BRANCH  27  28
ATOM     28  C   UNL     1       0.613  10.465  18.600  0.00  0.00    +0.000 A 
ATOM     29  C   UNL     1       1.690  11.350  18.685  0.00  0.00    +0.000 A 
ATOM     30  C   UNL     1       1.526  12.640  19.191  0.00  0.00    +0.000 A 
ATOM     31  C   UNL     1       0.246  13.016  19.590  0.00  0.00    +0.000 A 
ATOM     32  N   UNL     1      -0.203  14.212  20.096  0.00  0.00    +0.000 N 
ATOM     33  C   UNL     1      -1.545  14.149  20.343  0.00  0.00    +0.000 A 
ATOM     34  C   UNL     1      -1.991  12.885  20.007  0.00  0.00    +0.000 A 
ATOM     35  C   UNL     1      -0.857  12.162  19.518  0.00  0.00    +0.000 A 
ATOM     36  C   UNL     1      -0.665  10.859  19.012  0.00  0.00    +0.000 A 
ATOM     37  H   UNL     1       0.383  15.021  20.253  0.00  0.00    +0.000 HD
BRANCH  34  38
ATOM     38  C   UNL     1      -3.397  12.387  20.138  0.00  0.00    +0.000 C 
BRANCH  38  39
ATOM     39  C   UNL     1      -4.166  13.106  21.253  0.00  0.00    +0.000 C 
BRANCH  39  40
ATOM     40  N   UNL     1      -3.972  12.446  22.544  0.00  0.00    +0.000 NA
ATOM     41  H   UNL     1      -4.748  12.674  23.164  0.00  0.00    +0.000 HD
ATOM     42  H   UNL     1      -3.133  12.821  22.986  0.00  0.00    +0.000 HD
ENDBRANCH  39  40
ENDBRANCH  38  39
ENDBRANCH  34  38
ENDBRANCH  27  28
ENDBRANCH  26  27
ENDBRANCH  25  26
ENDBRANCH   4  25
TORSDOF 14
ENDMDL
