MODEL 1
REMARK VINA RESULT:      -7.0      0.000      0.000
REMARK  Name = 
REMARK  6 active torsions:
REMARK  status: ('A' for Active; 'I' for Inactive)
REMARK    1  A    between atoms: C_1  and  C_2
REMARK    2  A    between atoms: C_2  and  O_3
REMARK    3  A    between atoms: O_3  and  C_4
REMARK    4  A    between atoms: C_4  and  C_6
REMARK    5  A    between atoms: N_15  and  C_16
REMARK    6  A    between atoms: N_19  and  C_20
REMARK                            x       y       z     vdW  Elec       q    Type
REMARK                         _______ _______ _______ _____ _____    ______ ____
ROOT
ATOM      1  C   UNL     1       6.694   5.256  15.797  0.00  0.00    +0.000 C 
ATOM      2  C   UNL     1       5.782   6.451  16.097  0.00  0.00    +0.000 C 
ATOM      3  C   UNL     1       4.532   6.077  16.906  0.00  0.00    +0.000 C 
ATOM      4  N   UNL     1       4.734   5.130  17.981  0.00  0.00    +0.000 N 
ATOM      5  C   UNL     1       5.918   4.508  18.295  0.00  0.00    +0.000 A 
ATOM      6  N   UNL     1       5.786   3.666  19.290  0.00  0.00    +0.000 NA
ATOM      7  C   UNL     1       4.453   3.687  19.597  0.00  0.00    +0.000 A 
ATOM      8  C   UNL     1       3.786   2.874  20.584  0.00  0.00    +0.000 A 
ATOM      9  O   UNL     1       4.380   2.031  21.251  0.00  0.00    +0.000 OA
ATOM     10  N   UNL     1       2.417   3.104  20.690  0.00  0.00    +0.000 N 
ATOM     11  C   UNL     1       1.670   2.361  21.684  0.00  0.00    +0.000 C 
ATOM     12  C   UNL     1       1.685   3.969  19.896  0.00  0.00    +0.000 A 
ATOM     13  O   UNL     1       0.470   4.127  19.978  0.00  0.00    +0.000 OA
ATOM     14  N   UNL     1       2.406   4.739  18.903  0.00  0.00    +0.000 N 
ATOM     15  C   UNL     1       1.630   5.639  18.038  0.00  0.00    +0.000 C 
ATOM     16  C   UNL     1       3.777   4.577  18.801  0.00  0.00    +0.000 A 
ATOM     17  S   UNL     1       7.381   4.736  17.405  0.00  0.00    +0.000 S 
ENDROOT
BRANCH   1  18
ATOM     18  C   UNL     1       5.935   4.112  15.129  0.00  0.00    +0.000 C 
ATOM     19  O   UNL     1       5.782   3.010  15.645  0.00  0.00    +0.000 OA
BRANCH  18  20
ATOM     20  O   UNL     1       5.527   4.425  13.872  0.00  0.00    +0.000 OA
BRANCH  20  22
ATOM     21  C   UNL     1       5.071   3.164  11.893  0.00  0.00    +0.000 C 
ATOM     22  C   UNL     1       6.156   3.649  12.839  0.00  0.00    +0.000 C 
ENDBRANCH  20  22
ENDBRANCH  18  20
ENDBRANCH   1  18
TORSDOF 3
ENDMDL
MODEL 2
REMARK VINA RESULT:      -6.9      1.196      1.360
REMARK  Name = 
REMARK  6 active torsions:
REMARK  status: ('A' for Active; 'I' for Inactive)
REMARK    1  A    between atoms: C_1  and  C_2
REMARK    2  A    between atoms: C_2  and  O_3
REMARK    3  A    between atoms: O_3  and  C_4
REMARK    4  A    between atoms: C_4  and  C_6
REMARK    5  A    between atoms: N_15  and  C_16
REMARK    6  A    between atoms: N_19  and  C_20
REMARK                            x       y       z     vdW  Elec       q    Type
REMARK                         _______ _______ _______ _____ _____    ______ ____
ROOT
ATOM      1  C   UNL     1       7.119   6.011  16.336  0.00  0.00    +0.000 C 
ATOM      2  C   UNL     1       6.749   7.198  17.233  0.00  0.00    +0.000 C 
ATOM      3  C   UNL     1       5.443   6.989  18.013  0.00  0.00    +0.000 C 
ATOM      4  N   UNL     1       5.243   5.668  18.570  0.00  0.00    +0.000 N 
ATOM      5  C   UNL     1       6.082   4.591  18.412  0.00  0.00    +0.000 A 
ATOM      6  N   UNL     1       5.616   3.513  18.992  0.00  0.00    +0.000 NA
ATOM      7  C   UNL     1       4.396   3.878  19.492  0.00  0.00    +0.000 A 
ATOM      8  C   UNL     1       3.451   3.019  20.162  0.00  0.00    +0.000 A 
ATOM      9  O   UNL     1       3.656   1.820  20.329  0.00  0.00    +0.000 OA
ATOM     10  N   UNL     1       2.283   3.657  20.570  0.00  0.00    +0.000 N 
ATOM     11  C   UNL     1       1.291   2.882  21.288  0.00  0.00    +0.000 C 
ATOM     12  C   UNL     1       1.960   4.980  20.320  0.00  0.00    +0.000 A 
ATOM     13  O   UNL     1       0.906   5.512  20.653  0.00  0.00    +0.000 OA
ATOM     14  N   UNL     1       2.938   5.785  19.618  0.00  0.00    +0.000 N 
ATOM     15  C   UNL     1       2.591   7.183  19.325  0.00  0.00    +0.000 C 
ATOM     16  C   UNL     1       4.135   5.202  19.241  0.00  0.00    +0.000 A 
ATOM     17  S   UNL     1       7.526   4.638  17.466  0.00  0.00    +0.000 S 
ENDROOT
BRANCH   1  18
ATOM     18  C   UNL     1       5.978   5.628  15.396  0.00  0.00    +0.000 C 
ATOM     19  O   UNL     1       5.073   6.394  15.083  0.00  0.00    +0.000 OA
BRANCH  18  20
ATOM     20  O   UNL     1       6.034   4.324  15.018  0.00  0.00    +0.000 OA
BRANCH  20  22
ATOM     21  C   UNL     1       5.627   3.496  12.813  0.00  0.00    +0.000 C 
ATOM     22  C   UNL     1       6.661   4.108  13.743  0.00  0.00    +0.000 C 
ENDBRANCH  20  22
ENDBRANCH  18  20
ENDBRANCH   1  18
TORSDOF 3
ENDMDL
MODEL 3
REMARK VINA RESULT:      -6.6      2.891      4.573
REMARK  Name = 
REMARK  6 active torsions:
REMARK  status: ('A' for Active; 'I' for Inactive)
REMARK    1  A    between atoms: C_1  and  C_2
REMARK    2  A    between atoms: C_2  and  O_3
REMARK    3  A    between atoms: O_3  and  C_4
REMARK    4  A    between atoms: C_4  and  C_6
REMARK    5  A    between atoms: N_15  and  C_16
REMARK    6  A    between atoms: N_19  and  C_20
REMARK                            x       y       z     vdW  Elec       q    Type
REMARK                         _______ _______ _______ _____ _____    ______ ____
ROOT
ATOM      1  C   UNL     1       6.595   4.486  16.059  0.00  0.00    +0.000 C 
ATOM      2  C   UNL     1       5.550   3.487  16.569  0.00  0.00    +0.000 C 
ATOM      3  C   UNL     1       4.601   4.081  17.620  0.00  0.00    +0.000 C 
ATOM      4  N   UNL     1       4.141   5.429  17.367  0.00  0.00    +0.000 N 
ATOM      5  C   UNL     1       4.520   6.226  16.314  0.00  0.00    +0.000 A 
ATOM      6  N   UNL     1       3.975   7.416  16.373  0.00  0.00    +0.000 NA
ATOM      7  C   UNL     1       3.264   7.423  17.542  0.00  0.00    +0.000 A 
ATOM      8  C   UNL     1       2.536   8.537  18.098  0.00  0.00    +0.000 A 
ATOM      9  O   UNL     1       2.511   9.639  17.559  0.00  0.00    +0.000 OA
ATOM     10  N   UNL     1       1.900   8.263  19.305  0.00  0.00    +0.000 N 
ATOM     11  C   UNL     1       1.110   9.312  19.919  0.00  0.00    +0.000 C 
ATOM     12  C   UNL     1       1.978   7.070  20.003  0.00  0.00    +0.000 A 
ATOM     13  O   UNL     1       1.442   6.862  21.087  0.00  0.00    +0.000 OA
ATOM     14  N   UNL     1       2.746   5.996  19.407  0.00  0.00    +0.000 N 
ATOM     15  C   UNL     1       2.857   4.736  20.155  0.00  0.00    +0.000 C 
ATOM     16  C   UNL     1       3.353   6.211  18.181  0.00  0.00    +0.000 A 
ATOM     17  S   UNL     1       5.668   5.743  15.117  0.00  0.00    +0.000 S 
ENDROOT
BRANCH   1  18
ATOM     18  C   UNL     1       7.380   5.125  17.202  0.00  0.00    +0.000 C 
ATOM     19  O   UNL     1       7.659   4.538  18.242  0.00  0.00    +0.000 OA
BRANCH  18  20
ATOM     20  O   UNL     1       7.657   6.435  16.971  0.00  0.00    +0.000 OA
BRANCH  20  22
ATOM     21  C   UNL     1       7.962   8.678  17.739  0.00  0.00    +0.000 C 
ATOM     22  C   UNL     1       7.767   7.231  18.162  0.00  0.00    +0.000 C 
ENDBRANCH  20  22
ENDBRANCH  18  20
ENDBRANCH   1  18
TORSDOF 3
ENDMDL
MODEL 4
REMARK VINA RESULT:      -6.5      2.398      3.946
REMARK  Name = 
REMARK  6 active torsions:
REMARK  status: ('A' for Active; 'I' for Inactive)
REMARK    1  A    between atoms: C_1  and  C_2
REMARK    2  A    between atoms: C_2  and  O_3
REMARK    3  A    between atoms: O_3  and  C_4
REMARK    4  A    between atoms: C_4  and  C_6
REMARK    5  A    between atoms: N_15  and  C_16
REMARK    6  A    between atoms: N_19  and  C_20
REMARK                            x       y       z     vdW  Elec       q    Type
REMARK                         _______ _______ _______ _____ _____    ______ ____
ROOT
ATOM      1  C   UNL     1       6.694   4.821  15.894  0.00  0.00    +0.000 C 
ATOM      2  C   UNL     1       5.753   3.612  15.914  0.00  0.00    +0.000 C 
ATOM      3  C   UNL     1       4.769   3.624  17.093  0.00  0.00    +0.000 C 
ATOM      4  N   UNL     1       4.182   4.908  17.413  0.00  0.00    +0.000 N 
ATOM      5  C   UNL     1       4.471   6.102  16.799  0.00  0.00    +0.000 A 
ATOM      6  N   UNL     1       3.820   7.104  17.334  0.00  0.00    +0.000 NA
ATOM      7  C   UNL     1       3.128   6.558  18.381  0.00  0.00    +0.000 A 
ATOM      8  C   UNL     1       2.309   7.268  19.333  0.00  0.00    +0.000 A 
ATOM      9  O   UNL     1       2.174   8.488  19.302  0.00  0.00    +0.000 OA
ATOM     10  N   UNL     1       1.717   6.459  20.299  0.00  0.00    +0.000 N 
ATOM     11  C   UNL     1       0.843   7.080  21.274  0.00  0.00    +0.000 C 
ATOM     12  C   UNL     1       1.916   5.096  20.436  0.00  0.00    +0.000 A 
ATOM     13  O   UNL     1       1.416   4.407  21.321  0.00  0.00    +0.000 OA
ATOM     14  N   UNL     1       2.771   4.443  19.467  0.00  0.00    +0.000 N 
ATOM     15  C   UNL     1       3.008   3.001  19.624  0.00  0.00    +0.000 C 
ATOM     16  C   UNL     1       3.337   5.204  18.458  0.00  0.00    +0.000 A 
ATOM     17  S   UNL     1       5.642   6.269  15.539  0.00  0.00    +0.000 S 
ENDROOT
BRANCH   1  18
ATOM     18  C   UNL     1       7.433   4.993  17.219  0.00  0.00    +0.000 C 
ATOM     19  O   UNL     1       8.241   4.178  17.653  0.00  0.00    +0.000 OA
BRANCH  18  20
ATOM     20  O   UNL     1       7.032   6.099  17.897  0.00  0.00    +0.000 OA
BRANCH  20  22
ATOM     21  C   UNL     1       7.994   8.286  17.809  0.00  0.00    +0.000 C 
ATOM     22  C   UNL     1       8.110   6.896  18.413  0.00  0.00    +0.000 C 
ENDBRANCH  20  22
ENDBRANCH  18  20
ENDBRANCH   1  18
TORSDOF 3
ENDMDL
MODEL 5
REMARK VINA RESULT:      -6.5      2.182      3.544
REMARK  Name = 
REMARK  6 active torsions:
REMARK  status: ('A' for Active; 'I' for Inactive)
REMARK    1  A    between atoms: C_1  and  C_2
REMARK    2  A    between atoms: C_2  and  O_3
REMARK    3  A    between atoms: O_3  and  C_4
REMARK    4  A    between atoms: C_4  and  C_6
REMARK    5  A    between atoms: N_15  and  C_16
REMARK    6  A    between atoms: N_19  and  C_20
REMARK                            x       y       z     vdW  Elec       q    Type
REMARK                         _______ _______ _______ _____ _____    ______ ____
ROOT
ATOM      1  C   UNL     1       6.323   5.916  15.830  0.00  0.00    +0.000 C 
ATOM      2  C   UNL     1       5.650   4.725  15.138  0.00  0.00    +0.000 C 
ATOM      3  C   UNL     1       4.882   3.813  16.105  0.00  0.00    +0.000 C 
ATOM      4  N   UNL     1       4.116   4.483  17.133  0.00  0.00    +0.000 N 
ATOM      5  C   UNL     1       4.066   5.840  17.346  0.00  0.00    +0.000 A 
ATOM      6  N   UNL     1       3.326   6.151  18.381  0.00  0.00    +0.000 NA
ATOM      7  C   UNL     1       2.928   4.952  18.906  0.00  0.00    +0.000 A 
ATOM      8  C   UNL     1       2.148   4.754  20.103  0.00  0.00    +0.000 A 
ATOM      9  O   UNL     1       1.775   5.690  20.805  0.00  0.00    +0.000 OA
ATOM     10  N   UNL     1       1.886   3.421  20.406  0.00  0.00    +0.000 N 
ATOM     11  C   UNL     1       1.074   3.127  21.570  0.00  0.00    +0.000 C 
ATOM     12  C   UNL     1       2.365   2.329  19.703  0.00  0.00    +0.000 A 
ATOM     13  O   UNL     1       2.156   1.159  20.011  0.00  0.00    +0.000 OA
ATOM     14  N   UNL     1       3.166   2.590  18.525  0.00  0.00    +0.000 N 
ATOM     15  C   UNL     1       3.701   1.435  17.791  0.00  0.00    +0.000 C 
ATOM     16  C   UNL     1       3.406   3.904  18.160  0.00  0.00    +0.000 A 
ATOM     17  S   UNL     1       4.967   6.985  16.418  0.00  0.00    +0.000 S 
ENDROOT
BRANCH   1  18
ATOM     18  C   UNL     1       7.216   5.475  16.988  0.00  0.00    +0.000 C 
ATOM     19  O   UNL     1       7.990   4.527  16.921  0.00  0.00    +0.000 OA
BRANCH  18  20
ATOM     20  O   UNL     1       6.992   6.196  18.117  0.00  0.00    +0.000 OA
BRANCH  20  22
ATOM     21  C   UNL     1       8.088   8.303  17.846  0.00  0.00    +0.000 C 
ATOM     22  C   UNL     1       8.124   6.962  18.560  0.00  0.00    +0.000 C 
ENDBRANCH  20  22
ENDBRANCH  18  20
ENDBRANCH   1  18
TORSDOF 3
ENDMDL
MODEL 6
REMARK VINA RESULT:      -6.1      1.088      1.264
REMARK  Name = 
REMARK  6 active torsions:
REMARK  status: ('A' for Active; 'I' for Inactive)
REMARK    1  A    between atoms: C_1  and  C_2
REMARK    2  A    between atoms: C_2  and  O_3
REMARK    3  A    between atoms: O_3  and  C_4
REMARK    4  A    between atoms: C_4  and  C_6
REMARK    5  A    between atoms: N_15  and  C_16
REMARK    6  A    between atoms: N_19  and  C_20
REMARK                            x       y       z     vdW  Elec       q    Type
REMARK                         _______ _______ _______ _____ _____    ______ ____
ROOT
ATOM      1  C   UNL     1       7.274   6.476  16.954  0.00  0.00    +0.000 C 
ATOM      2  C   UNL     1       6.017   7.354  16.971  0.00  0.00    +0.000 C 
ATOM      3  C   UNL     1       4.738   6.580  17.317  0.00  0.00    +0.000 C 
ATOM      4  N   UNL     1       4.858   5.599  18.374  0.00  0.00    +0.000 N 
ATOM      5  C   UNL     1       6.014   5.270  19.041  0.00  0.00    +0.000 A 
ATOM      6  N   UNL     1       5.825   4.313  19.916  0.00  0.00    +0.000 NA
ATOM      7  C   UNL     1       4.512   3.955  19.771  0.00  0.00    +0.000 A 
ATOM      8  C   UNL     1       3.831   2.889  20.465  0.00  0.00    +0.000 A 
ATOM      9  O   UNL     1       4.404   2.157  21.266  0.00  0.00    +0.000 OA
ATOM     10  N   UNL     1       2.490   2.746  20.124  0.00  0.00    +0.000 N 
ATOM     11  C   UNL     1       1.714   1.726  20.800  0.00  0.00    +0.000 C 
ATOM     12  C   UNL     1       1.823   3.480  19.158  0.00  0.00    +0.000 A 
ATOM     13  O   UNL     1       0.649   3.310  18.843  0.00  0.00    +0.000 OA
ATOM     14  N   UNL     1       2.567   4.518  18.475  0.00  0.00    +0.000 N 
ATOM     15  C   UNL     1       1.874   5.283  17.429  0.00  0.00    +0.000 C 
ATOM     16  C   UNL     1       3.891   4.728  18.822  0.00  0.00    +0.000 A 
ATOM     17  S   UNL     1       7.553   5.968  18.684  0.00  0.00    +0.000 S 
ENDROOT
BRANCH   1  18
ATOM     18  C   UNL     1       7.110   5.260  16.045  0.00  0.00    +0.000 C 
ATOM     19  O   UNL     1       7.616   4.168  16.278  0.00  0.00    +0.000 OA
BRANCH  18  20
ATOM     20  O   UNL     1       6.416   5.549  14.913  0.00  0.00    +0.000 OA
BRANCH  20  22
ATOM     21  C   UNL     1       6.250   3.908  13.184  0.00  0.00    +0.000 C 
ATOM     22  C   UNL     1       5.596   4.471  14.434  0.00  0.00    +0.000 C 
ENDBRANCH  20  22
ENDBRANCH  18  20
ENDBRANCH   1  18
TORSDOF 3
ENDMDL
MODEL 7
REMARK VINA RESULT:      -5.9      2.819      5.758
REMARK  Name = 
REMARK  6 active torsions:
REMARK  status: ('A' for Active; 'I' for Inactive)
REMARK    1  A    between atoms: C_1  and  C_2
REMARK    2  A    between atoms: C_2  and  O_3
REMARK    3  A    between atoms: O_3  and  C_4
REMARK    4  A    between atoms: C_4  and  C_6
REMARK    5  A    between atoms: N_15  and  C_16
REMARK    6  A    between atoms: N_19  and  C_20
REMARK                            x       y       z     vdW  Elec       q    Type
REMARK                         _______ _______ _______ _____ _____    ______ ____
ROOT
ATOM      1  C   UNL     1       2.030   2.440  18.422  0.00  0.00    +0.000 C 
ATOM      2  C   UNL     1       2.529   2.494  16.973  0.00  0.00    +0.000 C 
ATOM      3  C   UNL     1       3.522   3.635  16.711  0.00  0.00    +0.000 C 
ATOM      4  N   UNL     1       4.508   3.864  17.745  0.00  0.00    +0.000 N 
ATOM      5  C   UNL     1       4.591   3.196  18.943  0.00  0.00    +0.000 A 
ATOM      6  N   UNL     1       5.559   3.653  19.698  0.00  0.00    +0.000 NA
ATOM      7  C   UNL     1       6.088   4.703  18.999  0.00  0.00    +0.000 A 
ATOM      8  C   UNL     1       7.141   5.586  19.440  0.00  0.00    +0.000 A 
ATOM      9  O   UNL     1       7.662   5.483  20.547  0.00  0.00    +0.000 OA
ATOM     10  N   UNL     1       7.486   6.573  18.523  0.00  0.00    +0.000 N 
ATOM     11  C   UNL     1       8.562   7.482  18.863  0.00  0.00    +0.000 C 
ATOM     12  C   UNL     1       6.863   6.792  17.305  0.00  0.00    +0.000 A 
ATOM     13  O   UNL     1       7.156   7.695  16.528  0.00  0.00    +0.000 OA
ATOM     14  N   UNL     1       5.794   5.890  16.929  0.00  0.00    +0.000 N 
ATOM     15  C   UNL     1       5.111   6.134  15.651  0.00  0.00    +0.000 C 
ATOM     16  C   UNL     1       5.455   4.862  17.792  0.00  0.00    +0.000 A 
ATOM     17  S   UNL     1       3.476   1.970  19.431  0.00  0.00    +0.000 S 
ENDROOT
BRANCH   1  18
ATOM     18  C   UNL     1       1.455   3.778  18.879  0.00  0.00    +0.000 C 
ATOM     19  O   UNL     1       1.245   4.718  18.119  0.00  0.00    +0.000 OA
BRANCH  18  20
ATOM     20  O   UNL     1       1.284   3.837  20.225  0.00  0.00    +0.000 OA
BRANCH  20  22
ATOM     21  C   UNL     1       1.491   6.156  20.767  0.00  0.00    +0.000 C 
ATOM     22  C   UNL     1       2.138   4.786  20.885  0.00  0.00    +0.000 C 
ENDBRANCH  20  22
ENDBRANCH  18  20
ENDBRANCH   1  18
TORSDOF 3
ENDMDL
MODEL 8
REMARK VINA RESULT:      -5.5      2.468      5.839
REMARK  Name = 
REMARK  6 active torsions:
REMARK  status: ('A' for Active; 'I' for Inactive)
REMARK    1  A    between atoms: C_1  and  C_2
REMARK    2  A    between atoms: C_2  and  O_3
REMARK    3  A    between atoms: O_3  and  C_4
REMARK    4  A    between atoms: C_4  and  C_6
REMARK    5  A    between atoms: N_15  and  C_16
REMARK    6  A    between atoms: N_19  and  C_20
REMARK                            x       y       z     vdW  Elec       q    Type
REMARK                         _______ _______ _______ _____ _____    ______ ____
ROOT
ATOM      1  C   UNL     1       1.894   2.095  19.756  0.00  0.00    +0.000 C 
ATOM      2  C   UNL     1       2.303   1.623  18.355  0.00  0.00    +0.000 C 
ATOM      3  C   UNL     1       3.205   2.620  17.614  0.00  0.00    +0.000 C 
ATOM      4  N   UNL     1       4.233   3.256  18.410  0.00  0.00    +0.000 N 
ATOM      5  C   UNL     1       4.428   3.086  19.760  0.00  0.00    +0.000 A 
ATOM      6  N   UNL     1       5.407   3.827  20.215  0.00  0.00    +0.000 NA
ATOM      7  C   UNL     1       5.827   4.560  19.138  0.00  0.00    +0.000 A 
ATOM      8  C   UNL     1       6.845   5.582  19.139  0.00  0.00    +0.000 A 
ATOM      9  O   UNL     1       7.435   5.919  20.162  0.00  0.00    +0.000 OA
ATOM     10  N   UNL     1       7.073   6.168  17.898  0.00  0.00    +0.000 N 
ATOM     11  C   UNL     1       8.107   7.178  17.794  0.00  0.00    +0.000 C 
ATOM     12  C   UNL     1       6.368   5.894  16.738  0.00  0.00    +0.000 A 
ATOM     13  O   UNL     1       6.557   6.452  15.662  0.00  0.00    +0.000 OA
ATOM     14  N   UNL     1       5.338   4.877  16.806  0.00  0.00    +0.000 N 
ATOM     15  C   UNL     1       4.567   4.601  15.586  0.00  0.00    +0.000 C 
ATOM     16  C   UNL     1       5.116   4.233  18.011  0.00  0.00    +0.000 A 
ATOM     17  S   UNL     1       3.423   2.090  20.751  0.00  0.00    +0.000 S 
ENDROOT
BRANCH   1  18
ATOM     18  C   UNL     1       1.262   3.485  19.728  0.00  0.00    +0.000 C 
ATOM     19  O   UNL     1       0.493   3.861  18.851  0.00  0.00    +0.000 OA
BRANCH  18  20
ATOM     20  O   UNL     1       1.715   4.279  20.733  0.00  0.00    +0.000 OA
BRANCH  20  22
ATOM     21  C   UNL     1       2.571   6.281  19.747  0.00  0.00    +0.000 C 
ATOM     22  C   UNL     1       1.433   5.676  20.551  0.00  0.00    +0.000 C 
ENDBRANCH  20  22
ENDBRANCH  18  20
ENDBRANCH   1  18
TORSDOF 3
ENDMDL
MODEL 9
REMARK VINA RESULT:      -5.5      3.126      5.866
REMARK  Name = 
REMARK  6 active torsions:
REMARK  status: ('A' for Active; 'I' for Inactive)
REMARK    1  A    between atoms: C_1  and  C_2
REMARK    2  A    between atoms: C_2  and  O_3
REMARK    3  A    between atoms: O_3  and  C_4
REMARK    4  A    between atoms: C_4  and  C_6
REMARK    5  A    between atoms: N_15  and  C_16
REMARK    6  A    between atoms: N_19  and  C_20
REMARK                            x       y       z     vdW  Elec       q    Type
REMARK                         _______ _______ _______ _____ _____    ______ ____
ROOT
ATOM      1  C   UNL     1       1.806   2.773  19.592  0.00  0.00    +0.000 C 
ATOM      2  C   UNL     1       1.604   3.284  18.161  0.00  0.00    +0.000 C 
ATOM      3  C   UNL     1       2.522   4.459  17.797  0.00  0.00    +0.000 C 
ATOM      4  N   UNL     1       3.888   4.363  18.264  0.00  0.00    +0.000 N 
ATOM      5  C   UNL     1       4.406   3.353  19.038  0.00  0.00    +0.000 A 
ATOM      6  N   UNL     1       5.663   3.559  19.345  0.00  0.00    +0.000 NA
ATOM      7  C   UNL     1       5.963   4.781  18.807  0.00  0.00    +0.000 A 
ATOM      8  C   UNL     1       7.212   5.491  18.931  0.00  0.00    +0.000 A 
ATOM      9  O   UNL     1       8.155   5.051  19.583  0.00  0.00    +0.000 OA
ATOM     10  N   UNL     1       7.243   6.720  18.279  0.00  0.00    +0.000 N 
ATOM     11  C   UNL     1       8.472   7.487  18.314  0.00  0.00    +0.000 C 
ATOM     12  C   UNL     1       6.178   7.304  17.614  0.00  0.00    +0.000 A 
ATOM     13  O   UNL     1       6.214   8.408  17.080  0.00  0.00    +0.000 OA
ATOM     14  N   UNL     1       4.940   6.555  17.547  0.00  0.00    +0.000 N 
ATOM     15  C   UNL     1       3.797   7.180  16.867  0.00  0.00    +0.000 C 
ATOM     16  C   UNL     1       4.884   5.304  18.138  0.00  0.00    +0.000 A 
ATOM     17  S   UNL     1       3.470   2.025  19.625  0.00  0.00    +0.000 S 
ENDROOT
BRANCH   1  18
ATOM     18  C   UNL     1       1.689   3.895  20.621  0.00  0.00    +0.000 C 
ATOM     19  O   UNL     1       1.957   3.753  21.810  0.00  0.00    +0.000 OA
BRANCH  18  20
ATOM     20  O   UNL     1       1.177   5.035  20.089  0.00  0.00    +0.000 OA
BRANCH  20  22
ATOM     21  C   UNL     1       2.024   7.267  19.956  0.00  0.00    +0.000 C 
ATOM     22  C   UNL     1       1.425   6.214  20.873  0.00  0.00    +0.000 C 
ENDBRANCH  20  22
ENDBRANCH  18  20
ENDBRANCH   1  18
TORSDOF 3
ENDMDL
