MODEL 1
REMARK VINA RESULT:      -6.9      0.000      0.000
REMARK  Name = 
REMARK  4 active torsions:
REMARK  status: ('A' for Active; 'I' for Inactive)
REMARK    1  A    between atoms: O_1  and  C_2
REMARK    2  A    between atoms: C_2  and  C_3
REMARK    3  A    between atoms: C_7  and  C_8
REMARK    4  A    between atoms: C_9  and  O_10
REMARK                            x       y       z     vdW  Elec       q    Type
REMARK                         _______ _______ _______ _____ _____    ______ ____
ROOT
ATOM      1  C   UNL     1      -1.266  12.899  22.706  0.00  0.00    +0.000 A 
ATOM      2  N   UNL     1      -0.117  12.254  22.603  0.00  0.00    +0.000 NA
ATOM      3  C   UNL     1      -0.197  11.650  21.380  0.00  0.00    +0.000 A 
ATOM      4  C   UNL     1       0.723  10.838  20.715  0.00  0.00    +0.000 A 
ATOM      5  C   UNL     1       0.366  10.167  19.517  0.00  0.00    +0.000 A 
ATOM      6  C   UNL     1      -0.904  10.489  18.905  0.00  0.00    +0.000 A 
ATOM      7  C   UNL     1      -1.382   9.940  17.692  0.00  0.00    +0.000 A 
ATOM      8  C   UNL     1      -2.488  10.479  17.021  0.00  0.00    +0.000 A 
ATOM      9 BR   UNL     1      -2.886   9.878  15.269  0.00  0.00    +0.000 Br
ATOM     10  C   UNL     1      -3.242  11.495  17.589  0.00  0.00    +0.000 A 
ATOM     11  C   UNL     1      -2.918  11.952  18.861  0.00  0.00    +0.000 A 
ATOM     12  C   UNL     1      -1.761  11.462  19.503  0.00  0.00    +0.000 A 
ATOM     13  C   UNL     1      -1.398  11.945  20.768  0.00  0.00    +0.000 A 
ATOM     14  O   UNL     1      -2.095  12.768  21.615  0.00  0.00    +0.000 OA
ENDROOT
BRANCH   5  15
ATOM     15  C   UNL     1       1.369   9.204  18.929  0.00  0.00    +0.000 A 
ATOM     16  C   UNL     1       2.239   9.588  17.881  0.00  0.00    +0.000 A 
ATOM     17  C   UNL     1       3.122   8.700  17.277  0.00  0.00    +0.000 A 
ATOM     18  C   UNL     1       3.277   7.424  17.792  0.00  0.00    +0.000 A 
ATOM     19  C   UNL     1       2.539   7.014  18.903  0.00  0.00    +0.000 A 
ATOM     20  C   UNL     1       2.827   5.755  19.464  0.00  0.00    +0.000 A 
ATOM     21  C   UNL     1       2.140   5.300  20.582  0.00  0.00    +0.000 A 
ATOM     22 BR   UNL     1       2.602   3.646  21.368  0.00  0.00    +0.000 Br
ATOM     23  C   UNL     1       1.113   6.057  21.114  0.00  0.00    +0.000 A 
ATOM     24  C   UNL     1       0.795   7.293  20.533  0.00  0.00    +0.000 A 
ATOM     25  C   UNL     1       1.538   7.858  19.458  0.00  0.00    +0.000 A 
BRANCH  16  26
ATOM     26  O   UNL     1       2.326  10.865  17.383  0.00  0.00    +0.000 OA
ATOM     27  H   UNL     1       3.259  11.095  17.249  0.00  0.00    +0.000 HD
ENDBRANCH  16  26
ENDBRANCH   5  15
BRANCH   1  28
ATOM     28  C   UNL     1      -1.752  13.710  23.852  0.00  0.00    +0.000 C 
BRANCH  28  29
ATOM     29  O   UNL     1      -3.167  13.580  23.926  0.00  0.00    +0.000 OA
ATOM     30  H   UNL     1      -3.414  12.865  23.315  0.00  0.00    +0.000 HD
ENDBRANCH  28  29
ENDBRANCH   1  28
TORSDOF 4
ENDMDL
MODEL 2
REMARK VINA RESULT:      -6.8      4.672      7.075
REMARK  Name = 
REMARK  4 active torsions:
REMARK  status: ('A' for Active; 'I' for Inactive)
REMARK    1  A    between atoms: O_1  and  C_2
REMARK    2  A    between atoms: C_2  and  C_3
REMARK    3  A    between atoms: C_7  and  C_8
REMARK    4  A    between atoms: C_9  and  O_10
REMARK                            x       y       z     vdW  Elec       q    Type
REMARK                         _______ _______ _______ _____ _____    ______ ____
ROOT
ATOM      1  C   UNL     1      -3.588  10.137  14.360  0.00  0.00    +0.000 A 
ATOM      2  N   UNL     1      -2.361  10.097  14.848  0.00  0.00    +0.000 NA
ATOM      3  C   UNL     1      -2.509  10.571  16.122  0.00  0.00    +0.000 A 
ATOM      4  C   UNL     1      -1.561  10.754  17.130  0.00  0.00    +0.000 A 
ATOM      5  C   UNL     1      -1.900  11.429  18.331  0.00  0.00    +0.000 A 
ATOM      6  C   UNL     1      -3.289  11.759  18.562  0.00  0.00    +0.000 A 
ATOM      7  C   UNL     1      -3.790  12.390  19.725  0.00  0.00    +0.000 A 
ATOM      8  C   UNL     1      -5.163  12.446  20.003  0.00  0.00    +0.000 A 
ATOM      9 BR   UNL     1      -5.734  13.045  21.707  0.00  0.00    +0.000 Br
ATOM     10  C   UNL     1      -6.097  11.998  19.082  0.00  0.00    +0.000 A 
ATOM     11  C   UNL     1      -5.662  11.528  17.848  0.00  0.00    +0.000 A 
ATOM     12  C   UNL     1      -4.280  11.402  17.597  0.00  0.00    +0.000 A 
ATOM     13  C   UNL     1      -3.828  10.889  16.374  0.00  0.00    +0.000 A 
ATOM     14  O   UNL     1      -4.540  10.598  15.239  0.00  0.00    +0.000 OA
ENDROOT
BRANCH   5  15
ATOM     15  C   UNL     1      -0.790  11.703  19.317  0.00  0.00    +0.000 A 
ATOM     16  C   UNL     1      -0.277  10.686  20.156  0.00  0.00    +0.000 A 
ATOM     17  C   UNL     1       0.696  10.930  21.120  0.00  0.00    +0.000 A 
ATOM     18  C   UNL     1       1.304  12.172  21.187  0.00  0.00    +0.000 A 
ATOM     19  C   UNL     1       0.934  13.191  20.308  0.00  0.00    +0.000 A 
ATOM     20  C   UNL     1       1.671  14.391  20.333  0.00  0.00    +0.000 A 
ATOM     21  C   UNL     1       1.362  15.433  19.468  0.00  0.00    +0.000 A 
ATOM     22 BR   UNL     1       2.418  17.000  19.461  0.00  0.00    +0.000 Br
ATOM     23  C   UNL     1       0.279  15.324  18.617  0.00  0.00    +0.000 A 
ATOM     24  C   UNL     1      -0.482  14.147  18.617  0.00  0.00    +0.000 A 
ATOM     25  C   UNL     1      -0.147  13.006  19.401  0.00  0.00    +0.000 A 
BRANCH  16  26
ATOM     26  O   UNL     1      -0.654   9.368  20.086  0.00  0.00    +0.000 OA
ATOM     27  H   UNL     1      -0.956   9.167  19.186  0.00  0.00    +0.000 HD
ENDBRANCH  16  26
ENDBRANCH   5  15
BRANCH   1  28
ATOM     28  C   UNL     1      -4.030   9.768  12.990  0.00  0.00    +0.000 C 
BRANCH  28  29
ATOM     29  O   UNL     1      -2.876   9.582  12.180  0.00  0.00    +0.000 OA
ATOM     30  H   UNL     1      -2.733  10.416  11.701  0.00  0.00    +0.000 HD
ENDBRANCH  28  29
ENDBRANCH   1  28
TORSDOF 4
ENDMDL
MODEL 3
REMARK VINA RESULT:      -6.8      4.199      6.182
REMARK  Name = 
REMARK  4 active torsions:
REMARK  status: ('A' for Active; 'I' for Inactive)
REMARK    1  A    between atoms: O_1  and  C_2
REMARK    2  A    between atoms: C_2  and  C_3
REMARK    3  A    between atoms: C_7  and  C_8
REMARK    4  A    between atoms: C_9  and  O_10
REMARK                            x       y       z     vdW  Elec       q    Type
REMARK                         _______ _______ _______ _____ _____    ______ ____
ROOT
ATOM      1  C   UNL     1      -6.262  13.162  22.694  0.00  0.00    +0.000 A 
ATOM      2  N   UNL     1      -5.036  13.555  22.991  0.00  0.00    +0.000 NA
ATOM      3  C   UNL     1      -4.314  13.219  21.879  0.00  0.00    +0.000 A 
ATOM      4  C   UNL     1      -2.959  13.394  21.598  0.00  0.00    +0.000 A 
ATOM      5  C   UNL     1      -2.375  12.810  20.444  0.00  0.00    +0.000 A 
ATOM      6  C   UNL     1      -3.250  12.189  19.476  0.00  0.00    +0.000 A 
ATOM      7  C   UNL     1      -2.827  11.603  18.259  0.00  0.00    +0.000 A 
ATOM      8  C   UNL     1      -3.735  11.256  17.250  0.00  0.00    +0.000 A 
ATOM      9 BR   UNL     1      -3.073  10.752  15.548  0.00  0.00    +0.000 Br
ATOM     10  C   UNL     1      -5.103  11.350  17.457  0.00  0.00    +0.000 A 
ATOM     11  C   UNL     1      -5.575  11.755  18.700  0.00  0.00    +0.000 A 
ATOM     12  C   UNL     1      -4.662  12.176  19.689  0.00  0.00    +0.000 A 
ATOM     13  C   UNL     1      -5.126  12.628  20.932  0.00  0.00    +0.000 A 
ATOM     14  O   UNL     1      -6.397  12.599  21.446  0.00  0.00    +0.000 OA
ENDROOT
BRANCH   5  15
ATOM     15  C   UNL     1      -0.879  12.933  20.279  0.00  0.00    +0.000 A 
ATOM     16  C   UNL     1      -0.011  11.857  20.578  0.00  0.00    +0.000 A 
ATOM     17  C   UNL     1       1.373  11.968  20.501  0.00  0.00    +0.000 A 
ATOM     18  C   UNL     1       1.945  13.117  19.981  0.00  0.00    +0.000 A 
ATOM     19  C   UNL     1       1.144  14.175  19.551  0.00  0.00    +0.000 A 
ATOM     20  C   UNL     1       1.768  15.265  18.913  0.00  0.00    +0.000 A 
ATOM     21  C   UNL     1       1.021  16.338  18.446  0.00  0.00    +0.000 A 
ATOM     22 BR   UNL     1       1.869  17.748  17.517  0.00  0.00    +0.000 Br
ATOM     23  C   UNL     1      -0.344  16.376  18.666  0.00  0.00    +0.000 A 
ATOM     24  C   UNL     1      -0.963  15.313  19.337  0.00  0.00    +0.000 A 
ATOM     25  C   UNL     1      -0.266  14.137  19.739  0.00  0.00    +0.000 A 
BRANCH  16  26
ATOM     26  O   UNL     1      -0.436  10.602  20.936  0.00  0.00    +0.000 OA
ATOM     27  H   UNL     1      -1.205  10.678  21.523  0.00  0.00    +0.000 HD
ENDBRANCH  16  26
ENDBRANCH   5  15
BRANCH   1  28
ATOM     28  C   UNL     1      -7.472  13.244  23.552  0.00  0.00    +0.000 C 
BRANCH  28  29
ATOM     29  O   UNL     1      -7.917  11.921  23.828  0.00  0.00    +0.000 OA
ATOM     30  H   UNL     1      -8.673  11.752  23.242  0.00  0.00    +0.000 HD
ENDBRANCH  28  29
ENDBRANCH   1  28
TORSDOF 4
ENDMDL
MODEL 4
REMARK VINA RESULT:      -6.5      4.020      7.045
REMARK  Name = 
REMARK  4 active torsions:
REMARK  status: ('A' for Active; 'I' for Inactive)
REMARK    1  A    between atoms: O_1  and  C_2
REMARK    2  A    between atoms: C_2  and  C_3
REMARK    3  A    between atoms: C_7  and  C_8
REMARK    4  A    between atoms: C_9  and  O_10
REMARK                            x       y       z     vdW  Elec       q    Type
REMARK                         _______ _______ _______ _____ _____    ______ ____
ROOT
ATOM      1  C   UNL     1       1.346   9.716  18.486  0.00  0.00    +0.000 A 
ATOM      2  N   UNL     1       2.414   9.540  17.729  0.00  0.00    +0.000 NA
ATOM      3  C   UNL     1       2.843   8.286  18.067  0.00  0.00    +0.000 A 
ATOM      4  C   UNL     1       3.926   7.546  17.592  0.00  0.00    +0.000 A 
ATOM      5  C   UNL     1       4.297   6.324  18.210  0.00  0.00    +0.000 A 
ATOM      6  C   UNL     1       3.420   5.774  19.219  0.00  0.00    +0.000 A 
ATOM      7  C   UNL     1       3.628   4.548  19.894  0.00  0.00    +0.000 A 
ATOM      8  C   UNL     1       2.622   3.946  20.662  0.00  0.00    +0.000 A 
ATOM      9 BR   UNL     1       2.877   2.176  21.289  0.00  0.00    +0.000 Br
ATOM     10  C   UNL     1       1.421   4.596  20.900  0.00  0.00    +0.000 A 
ATOM     11  C   UNL     1       1.234   5.880  20.404  0.00  0.00    +0.000 A 
ATOM     12  C   UNL     1       2.215   6.455  19.569  0.00  0.00    +0.000 A 
ATOM     13  C   UNL     1       2.020   7.732  19.026  0.00  0.00    +0.000 A 
ATOM     14  O   UNL     1       1.035   8.649  19.296  0.00  0.00    +0.000 OA
ENDROOT
BRANCH   5  15
ATOM     15  C   UNL     1       5.557   5.649  17.724  0.00  0.00    +0.000 A 
ATOM     16  C   UNL     1       6.634   5.373  18.599  0.00  0.00    +0.000 A 
ATOM     17  C   UNL     1       7.831   4.817  18.162  0.00  0.00    +0.000 A 
ATOM     18  C   UNL     1       7.950   4.377  16.854  0.00  0.00    +0.000 A 
ATOM     19  C   UNL     1       6.884   4.506  15.963  0.00  0.00    +0.000 A 
ATOM     20  C   UNL     1       7.012   3.927  14.685  0.00  0.00    +0.000 A 
ATOM     21  C   UNL     1       5.977   4.006  13.762  0.00  0.00    +0.000 A 
ATOM     22 BR   UNL     1       6.137   3.150  12.086  0.00  0.00    +0.000 Br
ATOM     23  C   UNL     1       4.831   4.716  14.071  0.00  0.00    +0.000 A 
ATOM     24  C   UNL     1       4.717   5.328  15.326  0.00  0.00    +0.000 A 
ATOM     25  C   UNL     1       5.696   5.187  16.350  0.00  0.00    +0.000 A 
BRANCH  16  26
ATOM     26  O   UNL     1       6.598   5.590  19.954  0.00  0.00    +0.000 OA
ATOM     27  H   UNL     1       7.321   6.188  20.204  0.00  0.00    +0.000 HD
ENDBRANCH  16  26
ENDBRANCH   5  15
BRANCH   1  28
ATOM     28  C   UNL     1       0.483  10.923  18.568  0.00  0.00    +0.000 C 
BRANCH  28  29
ATOM     29  O   UNL     1      -0.676  10.701  17.772  0.00  0.00    +0.000 OA
ATOM     30  H   UNL     1      -1.394  11.217  18.175  0.00  0.00    +0.000 HD
ENDBRANCH  28  29
ENDBRANCH   1  28
TORSDOF 4
ENDMDL
MODEL 5
REMARK VINA RESULT:      -6.5      8.986     10.640
REMARK  Name = 
REMARK  4 active torsions:
REMARK  status: ('A' for Active; 'I' for Inactive)
REMARK    1  A    between atoms: O_1  and  C_2
REMARK    2  A    between atoms: C_2  and  C_3
REMARK    3  A    between atoms: C_7  and  C_8
REMARK    4  A    between atoms: C_9  and  O_10
REMARK                            x       y       z     vdW  Elec       q    Type
REMARK                         _______ _______ _______ _____ _____    ______ ____
ROOT
ATOM      1  C   UNL     1       5.325  10.790  26.566  0.00  0.00    +0.000 A 
ATOM      2  N   UNL     1       5.204  10.786  25.250  0.00  0.00    +0.000 NA
ATOM      3  C   UNL     1       6.085  11.749  24.845  0.00  0.00    +0.000 A 
ATOM      4  C   UNL     1       6.406  12.194  23.561  0.00  0.00    +0.000 A 
ATOM      5  C   UNL     1       7.227  13.335  23.372  0.00  0.00    +0.000 A 
ATOM      6  C   UNL     1       7.870  13.914  24.530  0.00  0.00    +0.000 A 
ATOM      7  C   UNL     1       8.749  15.023  24.501  0.00  0.00    +0.000 A 
ATOM      8  C   UNL     1       9.539  15.371  25.604  0.00  0.00    +0.000 A 
ATOM      9 BR   UNL     1      10.894  16.678  25.393  0.00  0.00    +0.000 Br
ATOM     10  C   UNL     1       9.394  14.719  26.820  0.00  0.00    +0.000 A 
ATOM     11  C   UNL     1       8.419  13.738  26.952  0.00  0.00    +0.000 A 
ATOM     12  C   UNL     1       7.676  13.336  25.822  0.00  0.00    +0.000 A 
ATOM     13  C   UNL     1       6.721  12.317  25.930  0.00  0.00    +0.000 A 
ATOM     14  O   UNL     1       6.244  11.691  27.054  0.00  0.00    +0.000 OA
ENDROOT
BRANCH   5  15
ATOM     15  C   UNL     1       7.420  13.831  21.959  0.00  0.00    +0.000 A 
ATOM     16  C   UNL     1       6.633  14.881  21.429  0.00  0.00    +0.000 A 
ATOM     17  C   UNL     1       6.744  15.308  20.110  0.00  0.00    +0.000 A 
ATOM     18  C   UNL     1       7.750  14.801  19.304  0.00  0.00    +0.000 A 
ATOM     19  C   UNL     1       8.643  13.850  19.798  0.00  0.00    +0.000 A 
ATOM     20  C   UNL     1       9.723  13.464  18.980  0.00  0.00    +0.000 A 
ATOM     21  C   UNL     1      10.655  12.535  19.425  0.00  0.00    +0.000 A 
ATOM     22 BR   UNL     1      12.142  12.097  18.346  0.00  0.00    +0.000 Br
ATOM     23  C   UNL     1      10.489  11.928  20.656  0.00  0.00    +0.000 A 
ATOM     24  C   UNL     1       9.393  12.279  21.456  0.00  0.00    +0.000 A 
ATOM     25  C   UNL     1       8.470  13.303  21.100  0.00  0.00    +0.000 A 
BRANCH  16  26
ATOM     26  O   UNL     1       5.717  15.599  22.157  0.00  0.00    +0.000 OA
ATOM     27  H   UNL     1       4.875  15.629  21.675  0.00  0.00    +0.000 HD
ENDBRANCH  16  26
ENDBRANCH   5  15
BRANCH   1  28
ATOM     28  C   UNL     1       4.577   9.963  27.548  0.00  0.00    +0.000 C 
BRANCH  28  29
ATOM     29  O   UNL     1       3.224  10.401  27.566  0.00  0.00    +0.000 OA
ATOM     30  H   UNL     1       3.181  11.147  28.188  0.00  0.00    +0.000 HD
ENDBRANCH  28  29
ENDBRANCH   1  28
TORSDOF 4
ENDMDL
MODEL 6
REMARK VINA RESULT:      -6.2      3.729      5.594
REMARK  Name = 
REMARK  4 active torsions:
REMARK  status: ('A' for Active; 'I' for Inactive)
REMARK    1  A    between atoms: O_1  and  C_2
REMARK    2  A    between atoms: C_2  and  C_3
REMARK    3  A    between atoms: C_7  and  C_8
REMARK    4  A    between atoms: C_9  and  O_10
REMARK                            x       y       z     vdW  Elec       q    Type
REMARK                         _______ _______ _______ _____ _____    ______ ____
ROOT
ATOM      1  C   UNL     1      -5.556  13.401  22.795  0.00  0.00    +0.000 A 
ATOM      2  N   UNL     1      -4.253  13.569  22.929  0.00  0.00    +0.000 NA
ATOM      3  C   UNL     1      -3.751  13.148  21.729  0.00  0.00    +0.000 A 
ATOM      4  C   UNL     1      -2.433  13.097  21.272  0.00  0.00    +0.000 A 
ATOM      5  C   UNL     1      -2.114  12.456  20.047  0.00  0.00    +0.000 A 
ATOM      6  C   UNL     1      -3.201  12.023  19.199  0.00  0.00    +0.000 A 
ATOM      7  C   UNL     1      -3.046  11.410  17.933  0.00  0.00    +0.000 A 
ATOM      8  C   UNL     1      -4.124  11.253  17.050  0.00  0.00    +0.000 A 
ATOM      9 BR   UNL     1      -3.785  10.694  15.272  0.00  0.00    +0.000 Br
ATOM     10  C   UNL     1      -5.416  11.574  17.437  0.00  0.00    +0.000 A 
ATOM     11  C   UNL     1      -5.646  12.016  18.735  0.00  0.00    +0.000 A 
ATOM     12  C   UNL     1      -4.554  12.245  19.597  0.00  0.00    +0.000 A 
ATOM     13  C   UNL     1      -4.768  12.733  20.894  0.00  0.00    +0.000 A 
ATOM     14  O   UNL     1      -5.947  12.906  21.572  0.00  0.00    +0.000 OA
ENDROOT
BRANCH   5  15
ATOM     15  C   UNL     1      -0.653  12.326  19.686  0.00  0.00    +0.000 A 
ATOM     16  C   UNL     1      -0.012  11.066  19.637  0.00  0.00    +0.000 A 
ATOM     17  C   UNL     1       1.347  10.926  19.376  0.00  0.00    +0.000 A 
ATOM     18  C   UNL     1       2.095  12.032  19.009  0.00  0.00    +0.000 A 
ATOM     19  C   UNL     1       1.501  13.291  18.917  0.00  0.00    +0.000 A 
ATOM     20  C   UNL     1       2.275  14.356  18.415  0.00  0.00    +0.000 A 
ATOM     21  C   UNL     1       1.734  15.628  18.283  0.00  0.00    +0.000 A 
ATOM     22 BR   UNL     1       2.763  17.020  17.529  0.00  0.00    +0.000 Br
ATOM     23  C   UNL     1       0.442  15.874  18.709  0.00  0.00    +0.000 A 
ATOM     24  C   UNL     1      -0.318  14.826  19.246  0.00  0.00    +0.000 A 
ATOM     25  C   UNL     1       0.146  13.481  19.303  0.00  0.00    +0.000 A 
BRANCH  16  26
ATOM     26  O   UNL     1      -0.659   9.867  19.805  0.00  0.00    +0.000 OA
ATOM     27  H   UNL     1      -1.606   9.985  19.629  0.00  0.00    +0.000 HD
ENDBRANCH  16  26
ENDBRANCH   5  15
BRANCH   1  28
ATOM     28  C   UNL     1      -6.613  13.663  23.806  0.00  0.00    +0.000 C 
BRANCH  28  29
ATOM     29  O   UNL     1      -6.509  15.019  24.223  0.00  0.00    +0.000 OA
ATOM     30  H   UNL     1      -7.027  15.546  23.592  0.00  0.00    +0.000 HD
ENDBRANCH  28  29
ENDBRANCH   1  28
TORSDOF 4
ENDMDL
MODEL 7
REMARK VINA RESULT:      -6.2      4.360      8.750
REMARK  Name = 
REMARK  4 active torsions:
REMARK  status: ('A' for Active; 'I' for Inactive)
REMARK    1  A    between atoms: O_1  and  C_2
REMARK    2  A    between atoms: C_2  and  C_3
REMARK    3  A    between atoms: C_7  and  C_8
REMARK    4  A    between atoms: C_9  and  O_10
REMARK                            x       y       z     vdW  Elec       q    Type
REMARK                         _______ _______ _______ _____ _____    ______ ____
ROOT
ATOM      1  C   UNL     1       6.381   5.635  15.388  0.00  0.00    +0.000 A 
ATOM      2  N   UNL     1       6.075   6.687  16.126  0.00  0.00    +0.000 NA
ATOM      3  C   UNL     1       5.028   6.249  16.888  0.00  0.00    +0.000 A 
ATOM      4  C   UNL     1       4.287   6.914  17.866  0.00  0.00    +0.000 A 
ATOM      5  C   UNL     1       3.119   6.325  18.417  0.00  0.00    +0.000 A 
ATOM      6  C   UNL     1       2.821   4.951  18.078  0.00  0.00    +0.000 A 
ATOM      7  C   UNL     1       1.723   4.212  18.578  0.00  0.00    +0.000 A 
ATOM      8  C   UNL     1       1.634   2.822  18.423  0.00  0.00    +0.000 A 
ATOM      9 BR   UNL     1       0.291   1.874  19.365  0.00  0.00    +0.000 Br
ATOM     10  C   UNL     1       2.557   2.129  17.655  0.00  0.00    +0.000 A 
ATOM     11  C   UNL     1       3.558   2.833  16.997  0.00  0.00    +0.000 A 
ATOM     12  C   UNL     1       3.692   4.221  17.214  0.00  0.00    +0.000 A 
ATOM     13  C   UNL     1       4.724   4.936  16.591  0.00  0.00    +0.000 A 
ATOM     14  O   UNL     1       5.607   4.523  15.626  0.00  0.00    +0.000 OA
ENDROOT
BRANCH   5  15
ATOM     15  C   UNL     1       2.298   7.159  19.371  0.00  0.00    +0.000 A 
ATOM     16  C   UNL     1       1.939   6.679  20.653  0.00  0.00    +0.000 A 
ATOM     17  C   UNL     1       1.127   7.400  21.521  0.00  0.00    +0.000 A 
ATOM     18  C   UNL     1       0.756   8.695  21.204  0.00  0.00    +0.000 A 
ATOM     19  C   UNL     1       1.175   9.280  20.008  0.00  0.00    +0.000 A 
ATOM     20  C   UNL     1       0.878  10.640  19.793  0.00  0.00    +0.000 A 
ATOM     21  C   UNL     1       1.286  11.281  18.631  0.00  0.00    +0.000 A 
ATOM     22 BR   UNL     1       0.953  13.126  18.402  0.00  0.00    +0.000 Br
ATOM     23  C   UNL     1       1.932  10.566  17.639  0.00  0.00    +0.000 A 
ATOM     24  C   UNL     1       2.193   9.203  17.832  0.00  0.00    +0.000 A 
ATOM     25  C   UNL     1       1.898   8.520  19.046  0.00  0.00    +0.000 A 
BRANCH  16  26
ATOM     26  O   UNL     1       2.377   5.489  21.179  0.00  0.00    +0.000 OA
ATOM     27  H   UNL     1       2.361   5.541  22.148  0.00  0.00    +0.000 HD
ENDBRANCH  16  26
ENDBRANCH   5  15
BRANCH   1  28
ATOM     28  C   UNL     1       7.430   5.537  14.340  0.00  0.00    +0.000 C 
BRANCH  28  29
ATOM     29  O   UNL     1       6.995   4.609  13.354  0.00  0.00    +0.000 OA
ATOM     30  H   UNL     1       7.328   4.931  12.500  0.00  0.00    +0.000 HD
ENDBRANCH  28  29
ENDBRANCH   1  28
TORSDOF 4
ENDMDL
MODEL 8
REMARK VINA RESULT:      -6.2      3.892      7.169
REMARK  Name = 
REMARK  4 active torsions:
REMARK  status: ('A' for Active; 'I' for Inactive)
REMARK    1  A    between atoms: O_1  and  C_2
REMARK    2  A    between atoms: C_2  and  C_3
REMARK    3  A    between atoms: C_7  and  C_8
REMARK    4  A    between atoms: C_9  and  O_10
REMARK                            x       y       z     vdW  Elec       q    Type
REMARK                         _______ _______ _______ _____ _____    ______ ____
ROOT
ATOM      1  C   UNL     1       2.332   8.702  17.853  0.00  0.00    +0.000 A 
ATOM      2  N   UNL     1       1.031   8.526  17.992  0.00  0.00    +0.000 NA
ATOM      3  C   UNL     1       0.558   9.790  18.212  0.00  0.00    +0.000 A 
ATOM      4  C   UNL     1      -0.746  10.240  18.422  0.00  0.00    +0.000 A 
ATOM      5  C   UNL     1      -0.997  11.583  18.807  0.00  0.00    +0.000 A 
ATOM      6  C   UNL     1       0.108  12.515  18.796  0.00  0.00    +0.000 A 
ATOM      7  C   UNL     1       0.010  13.892  19.110  0.00  0.00    +0.000 A 
ATOM      8  C   UNL     1       1.049  14.790  18.831  0.00  0.00    +0.000 A 
ATOM      9 BR   UNL     1       0.733  16.649  19.011  0.00  0.00    +0.000 Br
ATOM     10  C   UNL     1       2.271  14.342  18.353  0.00  0.00    +0.000 A 
ATOM     11  C   UNL     1       2.478  12.977  18.192  0.00  0.00    +0.000 A 
ATOM     12  C   UNL     1       1.409  12.080  18.401  0.00  0.00    +0.000 A 
ATOM     13  C   UNL     1       1.591  10.705  18.200  0.00  0.00    +0.000 A 
ATOM     14  O   UNL     1       2.748  10.010  17.954  0.00  0.00    +0.000 OA
ENDROOT
BRANCH   5  15
ATOM     15  C   UNL     1      -2.420  11.959  19.144  0.00  0.00    +0.000 A 
ATOM     16  C   UNL     1      -3.432  11.991  18.155  0.00  0.00    +0.000 A 
ATOM     17  C   UNL     1      -4.732  12.401  18.427  0.00  0.00    +0.000 A 
ATOM     18  C   UNL     1      -5.115  12.659  19.733  0.00  0.00    +0.000 A 
ATOM     19  C   UNL     1      -4.200  12.530  20.778  0.00  0.00    +0.000 A 
ATOM     20  C   UNL     1      -4.673  12.678  22.097  0.00  0.00    +0.000 A 
ATOM     21  C   UNL     1      -3.813  12.542  23.179  0.00  0.00    +0.000 A 
ATOM     22 BR   UNL     1      -4.485  12.660  24.941  0.00  0.00    +0.000 Br
ATOM     23  C   UNL     1      -2.465  12.325  22.966  0.00  0.00    +0.000 A 
ATOM     24  C   UNL     1      -1.984  12.217  21.654  0.00  0.00    +0.000 A 
ATOM     25  C   UNL     1      -2.833  12.238  20.511  0.00  0.00    +0.000 A 
BRANCH  16  26
ATOM     26  O   UNL     1      -3.248  11.594  16.854  0.00  0.00    +0.000 OA
ATOM     27  H   UNL     1      -3.531  10.671  16.756  0.00  0.00    +0.000 HD
ENDBRANCH  16  26
ENDBRANCH   5  15
BRANCH   1  28
ATOM     28  C   UNL     1       3.369   7.662  17.627  0.00  0.00    +0.000 C 
BRANCH  28  29
ATOM     29  O   UNL     1       3.093   6.559  18.482  0.00  0.00    +0.000 OA
ATOM     30  H   UNL     1       3.059   6.910  19.388  0.00  0.00    +0.000 HD
ENDBRANCH  28  29
ENDBRANCH   1  28
TORSDOF 4
ENDMDL
MODEL 9
REMARK VINA RESULT:      -6.2      3.528      5.582
REMARK  Name = 
REMARK  4 active torsions:
REMARK  status: ('A' for Active; 'I' for Inactive)
REMARK    1  A    between atoms: O_1  and  C_2
REMARK    2  A    between atoms: C_2  and  C_3
REMARK    3  A    between atoms: C_7  and  C_8
REMARK    4  A    between atoms: C_9  and  O_10
REMARK                            x       y       z     vdW  Elec       q    Type
REMARK                         _______ _______ _______ _____ _____    ______ ____
ROOT
ATOM      1  C   UNL     1      -6.749  13.828  22.884  0.00  0.00    +0.000 A 
ATOM      2  N   UNL     1      -6.808  12.879  21.967  0.00  0.00    +0.000 NA
ATOM      3  C   UNL     1      -5.570  12.915  21.389  0.00  0.00    +0.000 A 
ATOM      4  C   UNL     1      -5.033  12.139  20.362  0.00  0.00    +0.000 A 
ATOM      5  C   UNL     1      -3.774  12.460  19.791  0.00  0.00    +0.000 A 
ATOM      6  C   UNL     1      -2.983  13.494  20.419  0.00  0.00    +0.000 A 
ATOM      7  C   UNL     1      -1.694  13.898  19.996  0.00  0.00    +0.000 A 
ATOM      8  C   UNL     1      -0.875  14.710  20.792  0.00  0.00    +0.000 A 
ATOM      9 BR   UNL     1       0.934  14.967  20.292  0.00  0.00    +0.000 Br
ATOM     10  C   UNL     1      -1.348  15.262  21.973  0.00  0.00    +0.000 A 
ATOM     11  C   UNL     1      -2.668  15.038  22.346  0.00  0.00    +0.000 A 
ATOM     12  C   UNL     1      -3.468  14.159  21.585  0.00  0.00    +0.000 A 
ATOM     13  C   UNL     1      -4.787  13.890  21.974  0.00  0.00    +0.000 A 
ATOM     14  O   UNL     1      -5.540  14.480  22.957  0.00  0.00    +0.000 OA
ENDROOT
BRANCH   5  15
ATOM     15  C   UNL     1      -3.322  11.655  18.596  0.00  0.00    +0.000 A 
ATOM     16  C   UNL     1      -4.035  11.677  17.375  0.00  0.00    +0.000 A 
ATOM     17  C   UNL     1      -3.678  10.891  16.285  0.00  0.00    +0.000 A 
ATOM     18  C   UNL     1      -2.506  10.155  16.319  0.00  0.00    +0.000 A 
ATOM     19  C   UNL     1      -1.687  10.180  17.448  0.00  0.00    +0.000 A 
ATOM     20  C   UNL     1      -0.445   9.518  17.383  0.00  0.00    +0.000 A 
ATOM     21  C   UNL     1       0.422   9.525  18.469  0.00  0.00    +0.000 A 
ATOM     22 BR   UNL     1       2.118   8.704  18.330  0.00  0.00    +0.000 Br
ATOM     23  C   UNL     1       0.039  10.128  19.653  0.00  0.00    +0.000 A 
ATOM     24  C   UNL     1      -1.213  10.752  19.735  0.00  0.00    +0.000 A 
ATOM     25  C   UNL     1      -2.094  10.873  18.622  0.00  0.00    +0.000 A 
BRANCH  16  26
ATOM     26  O   UNL     1      -5.115  12.489  17.129  0.00  0.00    +0.000 OA
ATOM     27  H   UNL     1      -5.706  12.055  16.494  0.00  0.00    +0.000 HD
ENDBRANCH  16  26
ENDBRANCH   5  15
BRANCH   1  28
ATOM     28  C   UNL     1      -7.829  14.267  23.806  0.00  0.00    +0.000 C 
BRANCH  28  29
ATOM     29  O   UNL     1      -7.837  13.399  24.933  0.00  0.00    +0.000 OA
ATOM     30  H   UNL     1      -7.913  13.965  25.720  0.00  0.00    +0.000 HD
ENDBRANCH  28  29
ENDBRANCH   1  28
TORSDOF 4
ENDMDL
