MODEL 1
REMARK VINA RESULT:      -7.0      0.000      0.000
REMARK  Name = 
REMARK  17 active torsions:
REMARK  status: ('A' for Active; 'I' for Inactive)
REMARK    1  A    between atoms: C_1  and  C_2
REMARK    2  A    between atoms: C_2  and  C_3
REMARK    3  A    between atoms: C_3  and  C_4
REMARK    4  A    between atoms: C_4  and  C_5
REMARK    5  A    between atoms: C_5  and  C_6
REMARK    6  A    between atoms: C_6  and  C_7
REMARK    7  A    between atoms: C_7  and  C_8
REMARK    8  A    between atoms: C_8  and  N_9
REMARK    9  A    between atoms: C_12  and  C_13
REMARK   10  A    between atoms: N_16  and  C_17
REMARK   11  A    between atoms: C_17  and  C_18
REMARK   12  A    between atoms: C_18  and  C_19
REMARK   13  A    between atoms: C_19  and  C_20
REMARK   14  A    between atoms: C_20  and  C_21
REMARK   15  A    between atoms: C_21  and  C_22
REMARK   16  A    between atoms: C_22  and  C_23
REMARK   17  A    between atoms: C_23  and  C_24
REMARK                            x       y       z     vdW  Elec       q    Type
REMARK                         _______ _______ _______ _____ _____    ______ ____
ROOT
ATOM      1  N   UNL     1       5.416   5.048  16.497  0.00  0.00    +0.000 N 
ATOM      2  C   UNL     1       5.441   6.389  16.322  0.00  0.00    +0.000 A 
ATOM      3  C   UNL     1       4.528   7.200  16.982  0.00  0.00    +0.000 A 
ATOM      4  C   UNL     1       3.523   6.644  17.787  0.00  0.00    +0.000 A 
ATOM      5  C   UNL     1       3.471   5.248  17.855  0.00  0.00    +0.000 A 
ATOM      6  C   UNL     1       4.428   4.472  17.210  0.00  0.00    +0.000 A 
ENDROOT
BRANCH   4   7
ATOM      7  C   UNL     1       2.590   7.495  18.556  0.00  0.00    +0.000 A 
ATOM      8  C   UNL     1       2.032   8.647  17.996  0.00  0.00    +0.000 A 
ATOM      9  C   UNL     1       1.254   9.504  18.765  0.00  0.00    +0.000 A 
ATOM     10  N   UNL     1       1.008   9.237  20.065  0.00  0.00    +0.000 N 
ATOM     11  C   UNL     1       1.448   8.079  20.617  0.00  0.00    +0.000 A 
ATOM     12  C   UNL     1       2.258   7.211  19.890  0.00  0.00    +0.000 A 
BRANCH  10  13
ATOM     13  C   UNL     1       0.262  10.239  20.873  0.00  0.00    +0.000 C 
BRANCH  13  14
ATOM     14  C   UNL     1      -1.084  10.520  20.225  0.00  0.00    +0.000 C 
BRANCH  14  15
ATOM     15  C   UNL     1      -1.089  11.878  19.536  0.00  0.00    +0.000 C 
BRANCH  15  16
ATOM     16  C   UNL     1      -1.880  11.779  18.238  0.00  0.00    +0.000 C 
BRANCH  16  17
ATOM     17  C   UNL     1      -2.393  10.366  18.009  0.00  0.00    +0.000 C 
BRANCH  17  18
ATOM     18  C   UNL     1      -2.189   9.959  16.553  0.00  0.00    +0.000 C 
BRANCH  18  19
ATOM     19  C   UNL     1      -3.218  10.637  15.656  0.00  0.00    +0.000 C 
ATOM     20  C   UNL     1      -3.126  10.119  14.233  0.00  0.00    +0.000 C 
ENDBRANCH  18  19
ENDBRANCH  17  18
ENDBRANCH  16  17
ENDBRANCH  15  16
ENDBRANCH  14  15
ENDBRANCH  13  14
ENDBRANCH  10  13
ENDBRANCH   4   7
BRANCH   1  21
ATOM     21  C   UNL     1       6.471   4.196  15.897  0.00  0.00    +0.000 C 
BRANCH  21  22
ATOM     22  C   UNL     1       5.929   3.531  14.640  0.00  0.00    +0.000 C 
BRANCH  22  23
ATOM     23  C   UNL     1       6.607   4.077  13.392  0.00  0.00    +0.000 C 
BRANCH  23  24
ATOM     24  C   UNL     1       6.154   3.285  12.171  0.00  0.00    +0.000 C 
BRANCH  24  25
ATOM     25  C   UNL     1       4.772   3.731  11.713  0.00  0.00    +0.000 C 
BRANCH  25  26
ATOM     26  C   UNL     1       4.031   2.581  11.036  0.00  0.00    +0.000 C 
BRANCH  26  28
ATOM     27  C   UNL     1       3.112   4.452   9.638  0.00  0.00    +0.000 C 
ATOM     28  C   UNL     1       2.826   3.096  10.262  0.00  0.00    +0.000 C 
ENDBRANCH  26  28
ENDBRANCH  25  26
ENDBRANCH  24  25
ENDBRANCH  23  24
ENDBRANCH  22  23
ENDBRANCH  21  22
ENDBRANCH   1  21
TORSDOF 15
ENDMDL
MODEL 2
REMARK VINA RESULT:      -6.5      2.119      3.043
REMARK  Name = 
REMARK  17 active torsions:
REMARK  status: ('A' for Active; 'I' for Inactive)
REMARK    1  A    between atoms: C_1  and  C_2
REMARK    2  A    between atoms: C_2  and  C_3
REMARK    3  A    between atoms: C_3  and  C_4
REMARK    4  A    between atoms: C_4  and  C_5
REMARK    5  A    between atoms: C_5  and  C_6
REMARK    6  A    between atoms: C_6  and  C_7
REMARK    7  A    between atoms: C_7  and  C_8
REMARK    8  A    between atoms: C_8  and  N_9
REMARK    9  A    between atoms: C_12  and  C_13
REMARK   10  A    between atoms: N_16  and  C_17
REMARK   11  A    between atoms: C_17  and  C_18
REMARK   12  A    between atoms: C_18  and  C_19
REMARK   13  A    between atoms: C_19  and  C_20
REMARK   14  A    between atoms: C_20  and  C_21
REMARK   15  A    between atoms: C_21  and  C_22
REMARK   16  A    between atoms: C_22  and  C_23
REMARK   17  A    between atoms: C_23  and  C_24
REMARK                            x       y       z     vdW  Elec       q    Type
REMARK                         _______ _______ _______ _____ _____    ______ ____
ROOT
ATOM      1  N   UNL     1       5.240   4.964  16.754  0.00  0.00    +0.000 N 
ATOM      2  C   UNL     1       5.241   6.263  16.378  0.00  0.00    +0.000 A 
ATOM      3  C   UNL     1       4.346   7.159  16.944  0.00  0.00    +0.000 A 
ATOM      4  C   UNL     1       3.380   6.725  17.865  0.00  0.00    +0.000 A 
ATOM      5  C   UNL     1       3.348   5.355  18.145  0.00  0.00    +0.000 A 
ATOM      6  C   UNL     1       4.288   4.497  17.586  0.00  0.00    +0.000 A 
ENDROOT
BRANCH   4   7
ATOM      7  C   UNL     1       2.468   7.676  18.535  0.00  0.00    +0.000 A 
ATOM      8  C   UNL     1       1.998   8.815  17.874  0.00  0.00    +0.000 A 
ATOM      9  C   UNL     1       1.240   9.764  18.551  0.00  0.00    +0.000 A 
ATOM     10  N   UNL     1       0.930   9.602  19.854  0.00  0.00    +0.000 N 
ATOM     11  C   UNL     1       1.282   8.464  20.501  0.00  0.00    +0.000 A 
ATOM     12  C   UNL     1       2.070   7.506  19.870  0.00  0.00    +0.000 A 
BRANCH  10  13
ATOM     13  C   UNL     1       0.211  10.697  20.560  0.00  0.00    +0.000 C 
BRANCH  13  14
ATOM     14  C   UNL     1       0.586  12.036  19.946  0.00  0.00    +0.000 C 
BRANCH  14  15
ATOM     15  C   UNL     1      -0.605  12.669  19.239  0.00  0.00    +0.000 C 
BRANCH  15  16
ATOM     16  C   UNL     1      -0.164  13.968  18.578  0.00  0.00    +0.000 C 
BRANCH  16  17
ATOM     17  C   UNL     1      -0.186  15.126  19.565  0.00  0.00    +0.000 C 
BRANCH  17  18
ATOM     18  C   UNL     1      -0.095  16.455  18.822  0.00  0.00    +0.000 C 
BRANCH  18  19
ATOM     19  C   UNL     1       1.355  16.908  18.706  0.00  0.00    +0.000 C 
ATOM     20  C   UNL     1       1.631  17.509  17.340  0.00  0.00    +0.000 C 
ENDBRANCH  18  19
ENDBRANCH  17  18
ENDBRANCH  16  17
ENDBRANCH  15  16
ENDBRANCH  14  15
ENDBRANCH  13  14
ENDBRANCH  10  13
ENDBRANCH   4   7
BRANCH   1  21
ATOM     21  C   UNL     1       6.281   4.038  16.246  0.00  0.00    +0.000 C 
BRANCH  21  22
ATOM     22  C   UNL     1       6.705   4.472  14.850  0.00  0.00    +0.000 C 
BRANCH  22  23
ATOM     23  C   UNL     1       5.768   3.911  13.791  0.00  0.00    +0.000 C 
BRANCH  23  24
ATOM     24  C   UNL     1       6.546   3.633  12.510  0.00  0.00    +0.000 C 
BRANCH  24  25
ATOM     25  C   UNL     1       5.638   3.057  11.432  0.00  0.00    +0.000 C 
BRANCH  25  26
ATOM     26  C   UNL     1       4.174   3.351  11.746  0.00  0.00    +0.000 C 
BRANCH  26  28
ATOM     27  C   UNL     1       3.056   4.242   9.684  0.00  0.00    +0.000 C 
ATOM     28  C   UNL     1       3.288   3.018  10.554  0.00  0.00    +0.000 C 
ENDBRANCH  26  28
ENDBRANCH  25  26
ENDBRANCH  24  25
ENDBRANCH  23  24
ENDBRANCH  22  23
ENDBRANCH  21  22
ENDBRANCH   1  21
TORSDOF 15
ENDMDL
MODEL 3
REMARK VINA RESULT:      -6.5      1.337      1.995
REMARK  Name = 
REMARK  17 active torsions:
REMARK  status: ('A' for Active; 'I' for Inactive)
REMARK    1  A    between atoms: C_1  and  C_2
REMARK    2  A    between atoms: C_2  and  C_3
REMARK    3  A    between atoms: C_3  and  C_4
REMARK    4  A    between atoms: C_4  and  C_5
REMARK    5  A    between atoms: C_5  and  C_6
REMARK    6  A    between atoms: C_6  and  C_7
REMARK    7  A    between atoms: C_7  and  C_8
REMARK    8  A    between atoms: C_8  and  N_9
REMARK    9  A    between atoms: C_12  and  C_13
REMARK   10  A    between atoms: N_16  and  C_17
REMARK   11  A    between atoms: C_17  and  C_18
REMARK   12  A    between atoms: C_18  and  C_19
REMARK   13  A    between atoms: C_19  and  C_20
REMARK   14  A    between atoms: C_20  and  C_21
REMARK   15  A    between atoms: C_21  and  C_22
REMARK   16  A    between atoms: C_22  and  C_23
REMARK   17  A    between atoms: C_23  and  C_24
REMARK                            x       y       z     vdW  Elec       q    Type
REMARK                         _______ _______ _______ _____ _____    ______ ____
ROOT
ATOM      1  N   UNL     1       5.649   4.988  16.184  0.00  0.00    +0.000 N 
ATOM      2  C   UNL     1       5.310   4.718  17.465  0.00  0.00    +0.000 A 
ATOM      3  C   UNL     1       4.454   5.562  18.158  0.00  0.00    +0.000 A 
ATOM      4  C   UNL     1       3.979   6.745  17.571  0.00  0.00    +0.000 A 
ATOM      5  C   UNL     1       4.439   7.036  16.283  0.00  0.00    +0.000 A 
ATOM      6  C   UNL     1       5.265   6.144  15.608  0.00  0.00    +0.000 A 
ENDROOT
BRANCH   4   7
ATOM      7  C   UNL     1       3.008   7.617  18.265  0.00  0.00    +0.000 A 
ATOM      8  C   UNL     1       2.487   7.269  19.514  0.00  0.00    +0.000 A 
ATOM      9  C   UNL     1       1.487   8.033  20.103  0.00  0.00    +0.000 A 
ATOM     10  N   UNL     1       1.005   9.134  19.489  0.00  0.00    +0.000 N 
ATOM     11  C   UNL     1       1.554   9.560  18.325  0.00  0.00    +0.000 A 
ATOM     12  C   UNL     1       2.534   8.805  17.687  0.00  0.00    +0.000 A 
BRANCH  10  13
ATOM     13  C   UNL     1      -0.140   9.856  20.108  0.00  0.00    +0.000 C 
BRANCH  13  14
ATOM     14  C   UNL     1      -0.665  10.908  19.144  0.00  0.00    +0.000 C 
BRANCH  14  15
ATOM     15  C   UNL     1      -1.851  10.382  18.348  0.00  0.00    +0.000 C 
BRANCH  15  16
ATOM     16  C   UNL     1      -2.224  11.395  17.274  0.00  0.00    +0.000 C 
BRANCH  16  17
ATOM     17  C   UNL     1      -3.696  11.293  16.905  0.00  0.00    +0.000 C 
BRANCH  17  18
ATOM     18  C   UNL     1      -4.510  10.822  18.106  0.00  0.00    +0.000 C 
BRANCH  18  19
ATOM     19  C   UNL     1      -5.898  11.453  18.096  0.00  0.00    +0.000 C 
ATOM     20  C   UNL     1      -5.993  12.543  17.045  0.00  0.00    +0.000 C 
ENDBRANCH  18  19
ENDBRANCH  17  18
ENDBRANCH  16  17
ENDBRANCH  15  16
ENDBRANCH  14  15
ENDBRANCH  13  14
ENDBRANCH  10  13
ENDBRANCH   4   7
BRANCH   1  21
ATOM     21  C   UNL     1       6.455   4.019  15.404  0.00  0.00    +0.000 C 
BRANCH  21  22
ATOM     22  C   UNL     1       6.841   4.641  14.070  0.00  0.00    +0.000 C 
BRANCH  22  23
ATOM     23  C   UNL     1       6.415   3.758  12.907  0.00  0.00    +0.000 C 
BRANCH  23  24
ATOM     24  C   UNL     1       4.899   3.600  12.907  0.00  0.00    +0.000 C 
BRANCH  24  25
ATOM     25  C   UNL     1       4.412   2.994  11.598  0.00  0.00    +0.000 C 
BRANCH  25  26
ATOM     26  C   UNL     1       4.085   4.088  10.585  0.00  0.00    +0.000 C 
BRANCH  26  28
ATOM     27  C   UNL     1       2.399   4.880   8.904  0.00  0.00    +0.000 C 
ATOM     28  C   UNL     1       2.861   3.714   9.761  0.00  0.00    +0.000 C 
ENDBRANCH  26  28
ENDBRANCH  25  26
ENDBRANCH  24  25
ENDBRANCH  23  24
ENDBRANCH  22  23
ENDBRANCH  21  22
ENDBRANCH   1  21
TORSDOF 15
ENDMDL
MODEL 4
REMARK VINA RESULT:      -6.4      2.147      3.328
REMARK  Name = 
REMARK  17 active torsions:
REMARK  status: ('A' for Active; 'I' for Inactive)
REMARK    1  A    between atoms: C_1  and  C_2
REMARK    2  A    between atoms: C_2  and  C_3
REMARK    3  A    between atoms: C_3  and  C_4
REMARK    4  A    between atoms: C_4  and  C_5
REMARK    5  A    between atoms: C_5  and  C_6
REMARK    6  A    between atoms: C_6  and  C_7
REMARK    7  A    between atoms: C_7  and  C_8
REMARK    8  A    between atoms: C_8  and  N_9
REMARK    9  A    between atoms: C_12  and  C_13
REMARK   10  A    between atoms: N_16  and  C_17
REMARK   11  A    between atoms: C_17  and  C_18
REMARK   12  A    between atoms: C_18  and  C_19
REMARK   13  A    between atoms: C_19  and  C_20
REMARK   14  A    between atoms: C_20  and  C_21
REMARK   15  A    between atoms: C_21  and  C_22
REMARK   16  A    between atoms: C_22  and  C_23
REMARK   17  A    between atoms: C_23  and  C_24
REMARK                            x       y       z     vdW  Elec       q    Type
REMARK                         _______ _______ _______ _____ _____    ______ ____
ROOT
ATOM      1  N   UNL     1       5.138   4.720  16.517  0.00  0.00    +0.000 N 
ATOM      2  C   UNL     1       5.319   6.060  16.485  0.00  0.00    +0.000 A 
ATOM      3  C   UNL     1       4.470   6.900  17.194  0.00  0.00    +0.000 A 
ATOM      4  C   UNL     1       3.372   6.384  17.899  0.00  0.00    +0.000 A 
ATOM      5  C   UNL     1       3.165   5.004  17.818  0.00  0.00    +0.000 A 
ATOM      6  C   UNL     1       4.060   4.193  17.130  0.00  0.00    +0.000 A 
ENDROOT
BRANCH   4   7
ATOM      7  C   UNL     1       2.503   7.254  18.720  0.00  0.00    +0.000 A 
ATOM      8  C   UNL     1       2.024   8.470  18.226  0.00  0.00    +0.000 A 
ATOM      9  C   UNL     1       1.309   9.335  19.046  0.00  0.00    +0.000 A 
ATOM     10  N   UNL     1       1.050   9.016  20.331  0.00  0.00    +0.000 N 
ATOM     11  C   UNL     1       1.411   7.803  20.817  0.00  0.00    +0.000 A 
ATOM     12  C   UNL     1       2.158   6.923  20.039  0.00  0.00    +0.000 A 
BRANCH  10  13
ATOM     13  C   UNL     1       0.378  10.022  21.197  0.00  0.00    +0.000 C 
BRANCH  13  14
ATOM     14  C   UNL     1       0.348  11.368  20.492  0.00  0.00    +0.000 C 
BRANCH  14  15
ATOM     15  C   UNL     1      -0.937  12.124  20.804  0.00  0.00    +0.000 C 
BRANCH  15  16
ATOM     16  C   UNL     1      -1.239  12.008  22.292  0.00  0.00    +0.000 C 
BRANCH  16  17
ATOM     17  C   UNL     1      -2.678  12.395  22.595  0.00  0.00    +0.000 C 
BRANCH  17  18
ATOM     18  C   UNL     1      -2.719  13.464  23.683  0.00  0.00    +0.000 C 
BRANCH  18  19
ATOM     19  C   UNL     1      -2.191  14.791  23.153  0.00  0.00    +0.000 C 
ATOM     20  C   UNL     1      -3.212  15.898  23.340  0.00  0.00    +0.000 C 
ENDBRANCH  18  19
ENDBRANCH  17  18
ENDBRANCH  16  17
ENDBRANCH  15  16
ENDBRANCH  14  15
ENDBRANCH  13  14
ENDBRANCH  10  13
ENDBRANCH   4   7
BRANCH   1  21
ATOM     21  C   UNL     1       6.121   3.819  15.869  0.00  0.00    +0.000 C 
BRANCH  21  22
ATOM     22  C   UNL     1       6.483   4.369  14.497  0.00  0.00    +0.000 C 
BRANCH  22  23
ATOM     23  C   UNL     1       5.488   3.912  13.440  0.00  0.00    +0.000 C 
BRANCH  23  24
ATOM     24  C   UNL     1       6.237   3.375  12.226  0.00  0.00    +0.000 C 
BRANCH  24  25
ATOM     25  C   UNL     1       5.364   2.419  11.424  0.00  0.00    +0.000 C 
BRANCH  25  26
ATOM     26  C   UNL     1       3.930   2.934  11.345  0.00  0.00    +0.000 C 
BRANCH  26  28
ATOM     27  C   UNL     1       2.724   3.986   9.412  0.00  0.00    +0.000 C 
ATOM     28  C   UNL     1       3.841   4.147  10.430  0.00  0.00    +0.000 C 
ENDBRANCH  26  28
ENDBRANCH  25  26
ENDBRANCH  24  25
ENDBRANCH  23  24
ENDBRANCH  22  23
ENDBRANCH  21  22
ENDBRANCH   1  21
TORSDOF 15
ENDMDL
MODEL 5
REMARK VINA RESULT:      -6.4      4.089      6.430
REMARK  Name = 
REMARK  17 active torsions:
REMARK  status: ('A' for Active; 'I' for Inactive)
REMARK    1  A    between atoms: C_1  and  C_2
REMARK    2  A    between atoms: C_2  and  C_3
REMARK    3  A    between atoms: C_3  and  C_4
REMARK    4  A    between atoms: C_4  and  C_5
REMARK    5  A    between atoms: C_5  and  C_6
REMARK    6  A    between atoms: C_6  and  C_7
REMARK    7  A    between atoms: C_7  and  C_8
REMARK    8  A    between atoms: C_8  and  N_9
REMARK    9  A    between atoms: C_12  and  C_13
REMARK   10  A    between atoms: N_16  and  C_17
REMARK   11  A    between atoms: C_17  and  C_18
REMARK   12  A    between atoms: C_18  and  C_19
REMARK   13  A    between atoms: C_19  and  C_20
REMARK   14  A    between atoms: C_20  and  C_21
REMARK   15  A    between atoms: C_21  and  C_22
REMARK   16  A    between atoms: C_22  and  C_23
REMARK   17  A    between atoms: C_23  and  C_24
REMARK                            x       y       z     vdW  Elec       q    Type
REMARK                         _______ _______ _______ _____ _____    ______ ____
ROOT
ATOM      1  N   UNL     1       2.820   6.699  18.474  0.00  0.00    +0.000 N 
ATOM      2  C   UNL     1       2.536   6.424  19.767  0.00  0.00    +0.000 A 
ATOM      3  C   UNL     1       1.799   7.319  20.530  0.00  0.00    +0.000 A 
ATOM      4  C   UNL     1       1.392   8.553  19.998  0.00  0.00    +0.000 A 
ATOM      5  C   UNL     1       1.798   8.838  18.691  0.00  0.00    +0.000 A 
ATOM      6  C   UNL     1       2.502   7.898  17.947  0.00  0.00    +0.000 A 
ENDROOT
BRANCH   4   7
ATOM      7  C   UNL     1       0.543   9.485  20.770  0.00  0.00    +0.000 A 
ATOM      8  C   UNL     1       0.011  10.635  20.181  0.00  0.00    +0.000 A 
ATOM      9  C   UNL     1      -0.683  11.566  20.944  0.00  0.00    +0.000 A 
ATOM     10  N   UNL     1      -0.870  11.375  22.267  0.00  0.00    +0.000 N 
ATOM     11  C   UNL     1      -0.457  10.225  22.854  0.00  0.00    +0.000 A 
ATOM     12  C   UNL     1       0.272   9.284  22.132  0.00  0.00    +0.000 A 
BRANCH  10  13
ATOM     13  C   UNL     1      -1.524  12.451  23.061  0.00  0.00    +0.000 C 
BRANCH  13  14
ATOM     14  C   UNL     1      -2.926  12.018  23.455  0.00  0.00    +0.000 C 
BRANCH  14  15
ATOM     15  C   UNL     1      -3.981  12.857  22.746  0.00  0.00    +0.000 C 
BRANCH  15  16
ATOM     16  C   UNL     1      -4.885  13.508  23.784  0.00  0.00    +0.000 C 
BRANCH  16  17
ATOM     17  C   UNL     1      -5.071  14.992  23.504  0.00  0.00    +0.000 C 
BRANCH  17  18
ATOM     18  C   UNL     1      -3.748  15.731  23.676  0.00  0.00    +0.000 C 
BRANCH  18  19
ATOM     19  C   UNL     1      -3.321  15.735  25.139  0.00  0.00    +0.000 C 
ATOM     20  C   UNL     1      -1.835  15.460  25.274  0.00  0.00    +0.000 C 
ENDBRANCH  18  19
ENDBRANCH  17  18
ENDBRANCH  16  17
ENDBRANCH  15  16
ENDBRANCH  14  15
ENDBRANCH  13  14
ENDBRANCH  10  13
ENDBRANCH   4   7
BRANCH   1  21
ATOM     21  C   UNL     1       3.492   5.686  17.625  0.00  0.00    +0.000 C 
BRANCH  21  22
ATOM     22  C   UNL     1       4.557   4.969  18.442  0.00  0.00    +0.000 C 
BRANCH  22  23
ATOM     23  C   UNL     1       4.329   3.465  18.444  0.00  0.00    +0.000 C 
BRANCH  23  24
ATOM     24  C   UNL     1       2.996   3.145  17.778  0.00  0.00    +0.000 C 
BRANCH  24  25
ATOM     25  C   UNL     1       2.245   2.065  18.546  0.00  0.00    +0.000 C 
BRANCH  25  26
ATOM     26  C   UNL     1       0.834   2.530  18.891  0.00  0.00    +0.000 C 
BRANCH  26  28
ATOM     27  C   UNL     1       1.462   2.739  21.312  0.00  0.00    +0.000 C 
ATOM     28  C   UNL     1       0.848   3.440  20.112  0.00  0.00    +0.000 C 
ENDBRANCH  26  28
ENDBRANCH  25  26
ENDBRANCH  24  25
ENDBRANCH  23  24
ENDBRANCH  22  23
ENDBRANCH  21  22
ENDBRANCH   1  21
TORSDOF 15
ENDMDL
MODEL 6
REMARK VINA RESULT:      -6.4      3.311      5.386
REMARK  Name = 
REMARK  17 active torsions:
REMARK  status: ('A' for Active; 'I' for Inactive)
REMARK    1  A    between atoms: C_1  and  C_2
REMARK    2  A    between atoms: C_2  and  C_3
REMARK    3  A    between atoms: C_3  and  C_4
REMARK    4  A    between atoms: C_4  and  C_5
REMARK    5  A    between atoms: C_5  and  C_6
REMARK    6  A    between atoms: C_6  and  C_7
REMARK    7  A    between atoms: C_7  and  C_8
REMARK    8  A    between atoms: C_8  and  N_9
REMARK    9  A    between atoms: C_12  and  C_13
REMARK   10  A    between atoms: N_16  and  C_17
REMARK   11  A    between atoms: C_17  and  C_18
REMARK   12  A    between atoms: C_18  and  C_19
REMARK   13  A    between atoms: C_19  and  C_20
REMARK   14  A    between atoms: C_20  and  C_21
REMARK   15  A    between atoms: C_21  and  C_22
REMARK   16  A    between atoms: C_22  and  C_23
REMARK   17  A    between atoms: C_23  and  C_24
REMARK                            x       y       z     vdW  Elec       q    Type
REMARK                         _______ _______ _______ _____ _____    ______ ____
ROOT
ATOM      1  N   UNL     1       3.770   5.825  17.485  0.00  0.00    +0.000 N 
ATOM      2  C   UNL     1       2.548   5.741  18.059  0.00  0.00    +0.000 A 
ATOM      3  C   UNL     1       1.791   6.884  18.269  0.00  0.00    +0.000 A 
ATOM      4  C   UNL     1       2.301   8.153  17.955  0.00  0.00    +0.000 A 
ATOM      5  C   UNL     1       3.608   8.200  17.461  0.00  0.00    +0.000 A 
ATOM      6  C   UNL     1       4.319   7.029  17.228  0.00  0.00    +0.000 A 
ENDROOT
BRANCH   4   7
ATOM      7  C   UNL     1       1.480   9.374  18.102  0.00  0.00    +0.000 A 
ATOM      8  C   UNL     1       2.057  10.593  18.469  0.00  0.00    +0.000 A 
ATOM      9  C   UNL     1       1.262  11.704  18.722  0.00  0.00    +0.000 A 
ATOM     10  N   UNL     1      -0.081  11.637  18.608  0.00  0.00    +0.000 N 
ATOM     11  C   UNL     1      -0.669  10.501  18.157  0.00  0.00    +0.000 A 
ATOM     12  C   UNL     1       0.088   9.356  17.925  0.00  0.00    +0.000 A 
BRANCH  10  13
ATOM     13  C   UNL     1      -0.894  12.821  18.995  0.00  0.00    +0.000 C 
BRANCH  13  14
ATOM     14  C   UNL     1      -1.941  12.413  20.019  0.00  0.00    +0.000 C 
BRANCH  14  15
ATOM     15  C   UNL     1      -1.589  12.938  21.404  0.00  0.00    +0.000 C 
BRANCH  15  16
ATOM     16  C   UNL     1      -0.570  12.010  22.050  0.00  0.00    +0.000 C 
BRANCH  16  17
ATOM     17  C   UNL     1      -1.229  11.078  23.055  0.00  0.00    +0.000 C 
BRANCH  17  18
ATOM     18  C   UNL     1      -0.519   9.728  23.069  0.00  0.00    +0.000 C 
BRANCH  18  19
ATOM     19  C   UNL     1      -0.121   9.316  21.657  0.00  0.00    +0.000 C 
ATOM     20  C   UNL     1       1.215   8.596  21.656  0.00  0.00    +0.000 C 
ENDBRANCH  18  19
ENDBRANCH  17  18
ENDBRANCH  16  17
ENDBRANCH  15  16
ENDBRANCH  14  15
ENDBRANCH  13  14
ENDBRANCH  10  13
ENDBRANCH   4   7
BRANCH   1  21
ATOM     21  C   UNL     1       4.521   4.595  17.141  0.00  0.00    +0.000 C 
BRANCH  21  22
ATOM     22  C   UNL     1       3.549   3.432  17.002  0.00  0.00    +0.000 C 
BRANCH  22  23
ATOM     23  C   UNL     1       3.925   2.285  17.928  0.00  0.00    +0.000 C 
BRANCH  23  24
ATOM     24  C   UNL     1       4.298   2.833  19.301  0.00  0.00    +0.000 C 
BRANCH  24  25
ATOM     25  C   UNL     1       3.168   2.622  20.299  0.00  0.00    +0.000 C 
BRANCH  25  26
ATOM     26  C   UNL     1       1.921   2.089  19.600  0.00  0.00    +0.000 C 
BRANCH  26  28
ATOM     27  C   UNL     1       1.113   4.184  20.720  0.00  0.00    +0.000 C 
ATOM     28  C   UNL     1       0.717   2.973  19.892  0.00  0.00    +0.000 C 
ENDBRANCH  26  28
ENDBRANCH  25  26
ENDBRANCH  24  25
ENDBRANCH  23  24
ENDBRANCH  22  23
ENDBRANCH  21  22
ENDBRANCH   1  21
TORSDOF 15
ENDMDL
MODEL 7
REMARK VINA RESULT:      -6.3      3.332      5.145
REMARK  Name = 
REMARK  17 active torsions:
REMARK  status: ('A' for Active; 'I' for Inactive)
REMARK    1  A    between atoms: C_1  and  C_2
REMARK    2  A    between atoms: C_2  and  C_3
REMARK    3  A    between atoms: C_3  and  C_4
REMARK    4  A    between atoms: C_4  and  C_5
REMARK    5  A    between atoms: C_5  and  C_6
REMARK    6  A    between atoms: C_6  and  C_7
REMARK    7  A    between atoms: C_7  and  C_8
REMARK    8  A    between atoms: C_8  and  N_9
REMARK    9  A    between atoms: C_12  and  C_13
REMARK   10  A    between atoms: N_16  and  C_17
REMARK   11  A    between atoms: C_17  and  C_18
REMARK   12  A    between atoms: C_18  and  C_19
REMARK   13  A    between atoms: C_19  and  C_20
REMARK   14  A    between atoms: C_20  and  C_21
REMARK   15  A    between atoms: C_21  and  C_22
REMARK   16  A    between atoms: C_22  and  C_23
REMARK   17  A    between atoms: C_23  and  C_24
REMARK                            x       y       z     vdW  Elec       q    Type
REMARK                         _______ _______ _______ _____ _____    ______ ____
ROOT
ATOM      1  N   UNL     1       4.359   5.623  18.504  0.00  0.00    +0.000 N 
ATOM      2  C   UNL     1       3.593   5.690  19.617  0.00  0.00    +0.000 A 
ATOM      3  C   UNL     1       2.646   6.695  19.758  0.00  0.00    +0.000 A 
ATOM      4  C   UNL     1       2.510   7.697  18.785  0.00  0.00    +0.000 A 
ATOM      5  C   UNL     1       3.394   7.646  17.703  0.00  0.00    +0.000 A 
ATOM      6  C   UNL     1       4.302   6.601  17.578  0.00  0.00    +0.000 A 
ENDROOT
BRANCH   4   7
ATOM      7  C   UNL     1       1.458   8.730  18.882  0.00  0.00    +0.000 A 
ATOM      8  C   UNL     1       0.946   9.128  20.120  0.00  0.00    +0.000 A 
ATOM      9  C   UNL     1      -0.125  10.010  20.193  0.00  0.00    +0.000 A 
ATOM     10  N   UNL     1      -0.687  10.512  19.073  0.00  0.00    +0.000 N 
ATOM     11  C   UNL     1      -0.155  10.229  17.859  0.00  0.00    +0.000 A 
ATOM     12  C   UNL     1       0.896   9.324  17.741  0.00  0.00    +0.000 A 
BRANCH  10  13
ATOM     13  C   UNL     1      -1.900  11.366  19.201  0.00  0.00    +0.000 C 
BRANCH  13  14
ATOM     14  C   UNL     1      -3.009  10.816  18.319  0.00  0.00    +0.000 C 
BRANCH  14  15
ATOM     15  C   UNL     1      -4.064  11.878  18.038  0.00  0.00    +0.000 C 
BRANCH  15  16
ATOM     16  C   UNL     1      -4.877  12.124  19.301  0.00  0.00    +0.000 C 
BRANCH  16  17
ATOM     17  C   UNL     1      -6.177  11.334  19.286  0.00  0.00    +0.000 C 
BRANCH  17  18
ATOM     18  C   UNL     1      -6.973  11.651  18.024  0.00  0.00    +0.000 C 
BRANCH  18  19
ATOM     19  C   UNL     1      -7.531  13.068  18.082  0.00  0.00    +0.000 C 
ATOM     20  C   UNL     1      -7.112  13.870  16.864  0.00  0.00    +0.000 C 
ENDBRANCH  18  19
ENDBRANCH  17  18
ENDBRANCH  16  17
ENDBRANCH  15  16
ENDBRANCH  14  15
ENDBRANCH  13  14
ENDBRANCH  10  13
ENDBRANCH   4   7
BRANCH   1  21
ATOM     21  C   UNL     1       5.275   4.476  18.296  0.00  0.00    +0.000 C 
BRANCH  21  22
ATOM     22  C   UNL     1       4.482   3.179  18.353  0.00  0.00    +0.000 C 
BRANCH  22  23
ATOM     23  C   UNL     1       3.527   3.065  17.174  0.00  0.00    +0.000 C 
BRANCH  23  24
ATOM     24  C   UNL     1       2.331   2.203  17.560  0.00  0.00    +0.000 C 
BRANCH  24  25
ATOM     25  C   UNL     1       2.154   2.159  19.072  0.00  0.00    +0.000 C 
BRANCH  25  26
ATOM     26  C   UNL     1       0.834   2.806  19.480  0.00  0.00    +0.000 C 
BRANCH  26  28
ATOM     27  C   UNL     1       1.905   2.915  21.747  0.00  0.00    +0.000 C 
ATOM     28  C   UNL     1       1.003   3.625  20.752  0.00  0.00    +0.000 C 
ENDBRANCH  26  28
ENDBRANCH  25  26
ENDBRANCH  24  25
ENDBRANCH  23  24
ENDBRANCH  22  23
ENDBRANCH  21  22
ENDBRANCH   1  21
TORSDOF 15
ENDMDL
MODEL 8
REMARK VINA RESULT:      -6.3      3.726      9.798
REMARK  Name = 
REMARK  17 active torsions:
REMARK  status: ('A' for Active; 'I' for Inactive)
REMARK    1  A    between atoms: C_1  and  C_2
REMARK    2  A    between atoms: C_2  and  C_3
REMARK    3  A    between atoms: C_3  and  C_4
REMARK    4  A    between atoms: C_4  and  C_5
REMARK    5  A    between atoms: C_5  and  C_6
REMARK    6  A    between atoms: C_6  and  C_7
REMARK    7  A    between atoms: C_7  and  C_8
REMARK    8  A    between atoms: C_8  and  N_9
REMARK    9  A    between atoms: C_12  and  C_13
REMARK   10  A    between atoms: N_16  and  C_17
REMARK   11  A    between atoms: C_17  and  C_18
REMARK   12  A    between atoms: C_18  and  C_19
REMARK   13  A    between atoms: C_19  and  C_20
REMARK   14  A    between atoms: C_20  and  C_21
REMARK   15  A    between atoms: C_21  and  C_22
REMARK   16  A    between atoms: C_22  and  C_23
REMARK   17  A    between atoms: C_23  and  C_24
REMARK                            x       y       z     vdW  Elec       q    Type
REMARK                         _______ _______ _______ _____ _____    ______ ____
ROOT
ATOM      1  N   UNL     1      -0.250  11.694  19.968  0.00  0.00    +0.000 N 
ATOM      2  C   UNL     1       0.415  11.647  18.791  0.00  0.00    +0.000 A 
ATOM      3  C   UNL     1       1.182  10.538  18.462  0.00  0.00    +0.000 A 
ATOM      4  C   UNL     1       1.339   9.477  19.367  0.00  0.00    +0.000 A 
ATOM      5  C   UNL     1       0.718   9.616  20.612  0.00  0.00    +0.000 A 
ATOM      6  C   UNL     1      -0.074  10.725  20.888  0.00  0.00    +0.000 A 
ENDROOT
BRANCH   4   7
ATOM      7  C   UNL     1       2.090   8.257  19.004  0.00  0.00    +0.000 A 
ATOM      8  C   UNL     1       2.154   7.162  19.871  0.00  0.00    +0.000 A 
ATOM      9  C   UNL     1       2.961   6.070  19.575  0.00  0.00    +0.000 A 
ATOM     10  N   UNL     1       3.690   6.035  18.440  0.00  0.00    +0.000 N 
ATOM     11  C   UNL     1       3.577   7.031  17.528  0.00  0.00    +0.000 A 
ATOM     12  C   UNL     1       2.806   8.158  17.801  0.00  0.00    +0.000 A 
BRANCH  10  13
ATOM     13  C   UNL     1       4.620   4.894  18.222  0.00  0.00    +0.000 C 
BRANCH  13  14
ATOM     14  C   UNL     1       4.461   3.881  19.343  0.00  0.00    +0.000 C 
BRANCH  14  15
ATOM     15  C   UNL     1       4.219   2.483  18.790  0.00  0.00    +0.000 C 
BRANCH  15  16
ATOM     16  C   UNL     1       2.874   2.450  18.077  0.00  0.00    +0.000 C 
BRANCH  16  17
ATOM     17  C   UNL     1       1.786   1.880  18.974  0.00  0.00    +0.000 C 
BRANCH  17  18
ATOM     18  C   UNL     1       0.722   2.938  19.252  0.00  0.00    +0.000 C 
BRANCH  18  19
ATOM     19  C   UNL     1       0.925   3.556  20.630  0.00  0.00    +0.000 C 
ATOM     20  C   UNL     1       1.618   2.584  21.566  0.00  0.00    +0.000 C 
ENDBRANCH  18  19
ENDBRANCH  17  18
ENDBRANCH  16  17
ENDBRANCH  15  16
ENDBRANCH  14  15
ENDBRANCH  13  14
ENDBRANCH  10  13
ENDBRANCH   4   7
BRANCH   1  21
ATOM     21  C   UNL     1      -1.172  12.816  20.261  0.00  0.00    +0.000 C 
BRANCH  21  22
ATOM     22  C   UNL     1      -2.492  12.264  20.780  0.00  0.00    +0.000 C 
BRANCH  22  23
ATOM     23  C   UNL     1      -3.606  12.451  19.762  0.00  0.00    +0.000 C 
BRANCH  23  24
ATOM     24  C   UNL     1      -3.259  11.710  18.476  0.00  0.00    +0.000 C 
BRANCH  24  25
ATOM     25  C   UNL     1      -4.457  10.928  17.954  0.00  0.00    +0.000 C 
BRANCH  25  26
ATOM     26  C   UNL     1      -5.468  11.864  17.298  0.00  0.00    +0.000 C 
BRANCH  26  28
ATOM     27  C   UNL     1      -6.904  10.536  18.871  0.00  0.00    +0.000 C 
ATOM     28  C   UNL     1      -6.819  11.774  17.994  0.00  0.00    +0.000 C 
ENDBRANCH  26  28
ENDBRANCH  25  26
ENDBRANCH  24  25
ENDBRANCH  23  24
ENDBRANCH  22  23
ENDBRANCH  21  22
ENDBRANCH   1  21
TORSDOF 15
ENDMDL
MODEL 9
REMARK VINA RESULT:      -6.2      5.130      8.775
REMARK  Name = 
REMARK  17 active torsions:
REMARK  status: ('A' for Active; 'I' for Inactive)
REMARK    1  A    between atoms: C_1  and  C_2
REMARK    2  A    between atoms: C_2  and  C_3
REMARK    3  A    between atoms: C_3  and  C_4
REMARK    4  A    between atoms: C_4  and  C_5
REMARK    5  A    between atoms: C_5  and  C_6
REMARK    6  A    between atoms: C_6  and  C_7
REMARK    7  A    between atoms: C_7  and  C_8
REMARK    8  A    between atoms: C_8  and  N_9
REMARK    9  A    between atoms: C_12  and  C_13
REMARK   10  A    between atoms: N_16  and  C_17
REMARK   11  A    between atoms: C_17  and  C_18
REMARK   12  A    between atoms: C_18  and  C_19
REMARK   13  A    between atoms: C_19  and  C_20
REMARK   14  A    between atoms: C_20  and  C_21
REMARK   15  A    between atoms: C_21  and  C_22
REMARK   16  A    between atoms: C_22  and  C_23
REMARK   17  A    between atoms: C_23  and  C_24
REMARK                            x       y       z     vdW  Elec       q    Type
REMARK                         _______ _______ _______ _____ _____    ______ ____
ROOT
ATOM      1  N   UNL     1       7.709   8.070  17.876  0.00  0.00    +0.000 N 
ATOM      2  C   UNL     1       8.058   6.984  18.603  0.00  0.00    +0.000 A 
ATOM      3  C   UNL     1       7.196   5.902  18.707  0.00  0.00    +0.000 A 
ATOM      4  C   UNL     1       5.923   5.937  18.118  0.00  0.00    +0.000 A 
ATOM      5  C   UNL     1       5.565   7.121  17.465  0.00  0.00    +0.000 A 
ATOM      6  C   UNL     1       6.472   8.168  17.350  0.00  0.00    +0.000 A 
ENDROOT
BRANCH   4   7
ATOM      7  C   UNL     1       5.022   4.766  18.155  0.00  0.00    +0.000 A 
ATOM      8  C   UNL     1       3.975   4.630  17.239  0.00  0.00    +0.000 A 
ATOM      9  C   UNL     1       3.061   3.590  17.357  0.00  0.00    +0.000 A 
ATOM     10  N   UNL     1       3.170   2.681  18.349  0.00  0.00    +0.000 N 
ATOM     11  C   UNL     1       4.228   2.722  19.196  0.00  0.00    +0.000 A 
ATOM     12  C   UNL     1       5.146   3.766  19.132  0.00  0.00    +0.000 A 
BRANCH  10  13
ATOM     13  C   UNL     1       2.106   1.651  18.498  0.00  0.00    +0.000 C 
BRANCH  13  14
ATOM     14  C   UNL     1       0.819   2.309  18.967  0.00  0.00    +0.000 C 
BRANCH  14  15
ATOM     15  C   UNL     1       0.959   2.840  20.387  0.00  0.00    +0.000 C 
BRANCH  15  16
ATOM     16  C   UNL     1       0.804   4.355  20.374  0.00  0.00    +0.000 C 
BRANCH  16  17
ATOM     17  C   UNL     1       2.095   5.046  20.786  0.00  0.00    +0.000 C 
BRANCH  17  18
ATOM     18  C   UNL     1       2.233   6.382  20.063  0.00  0.00    +0.000 C 
BRANCH  18  19
ATOM     19  C   UNL     1       1.493   7.480  20.816  0.00  0.00    +0.000 C 
ATOM     20  C   UNL     1       1.334   8.720  19.956  0.00  0.00    +0.000 C 
ENDBRANCH  18  19
ENDBRANCH  17  18
ENDBRANCH  16  17
ENDBRANCH  15  16
ENDBRANCH  14  15
ENDBRANCH  13  14
ENDBRANCH  10  13
ENDBRANCH   4   7
BRANCH   1  21
ATOM     21  C   UNL     1       8.681   9.167  17.657  0.00  0.00    +0.000 C 
BRANCH  21  22
ATOM     22  C   UNL     1       9.165   9.688  19.003  0.00  0.00    +0.000 C 
BRANCH  22  23
ATOM     23  C   UNL     1       9.553  11.157  18.918  0.00  0.00    +0.000 C 
BRANCH  23  24
ATOM     24  C   UNL     1      10.031  11.643  20.281  0.00  0.00    +0.000 C 
BRANCH  24  25
ATOM     25  C   UNL     1      11.435  12.227  20.193  0.00  0.00    +0.000 C 
BRANCH  25  26
ATOM     26  C   UNL     1      11.382  13.747  20.085  0.00  0.00    +0.000 C 
BRANCH  26  28
ATOM     27  C   UNL     1      12.247  15.756  18.854  0.00  0.00    +0.000 C 
ATOM     28  C   UNL     1      12.323  14.245  18.996  0.00  0.00    +0.000 C 
ENDBRANCH  26  28
ENDBRANCH  25  26
ENDBRANCH  24  25
ENDBRANCH  23  24
ENDBRANCH  22  23
ENDBRANCH  21  22
ENDBRANCH   1  21
TORSDOF 15
ENDMDL
