MODEL 1
REMARK VINA RESULT:      -7.6      0.000      0.000
REMARK  Name = 
REMARK  6 active torsions:
REMARK  status: ('A' for Active; 'I' for Inactive)
REMARK    1  A    between atoms: C_1  and  C_2
REMARK    2  A    between atoms: N_9  and  C_10
REMARK    3  A    between atoms: C_10  and  C_11
REMARK    4  A    between atoms: C_11  and  C_12
REMARK    5  A    between atoms: C_12  and  C_13
REMARK    6  A    between atoms: N_15  and  C_16
REMARK                            x       y       z     vdW  Elec       q    Type
REMARK                         _______ _______ _______ _____ _____    ______ ____
ROOT
ATOM      1  C   UNL     1       8.497   8.121  18.094  0.00  0.00    +0.000 C 
ENDROOT
BRANCH   1   2
ATOM      2  C   UNL     1       8.592   9.584  18.480  0.00  0.00    +0.000 C 
ATOM      3  O   UNL     1       7.943  10.420  17.857  0.00  0.00    +0.000 OA
ATOM      4  N   UNL     1       9.429   9.841  19.550  0.00  0.00    +0.000 N 
ATOM      5  H   UNL     1      10.060   9.097  19.846  0.00  0.00    +0.000 HD
BRANCH   4   6
ATOM      6  C   UNL     1       9.692  11.119  20.111  0.00  0.00    +0.000 A 
ATOM      7  C   UNL     1       9.059  11.568  21.277  0.00  0.00    +0.000 A 
ATOM      8  C   UNL     1       9.278  12.859  21.766  0.00  0.00    +0.000 A 
ATOM      9  C   UNL     1      10.150  13.713  21.102  0.00  0.00    +0.000 A 
ATOM     10 CL   UNL     1      10.390  15.310  21.693  0.00  0.00    +0.000 Cl
ATOM     11  C   UNL     1      10.828  13.279  19.966  0.00  0.00    +0.000 A 
ATOM     12  C   UNL     1      10.607  11.985  19.481  0.00  0.00    +0.000 A 
ATOM     13 CL   UNL     1      11.483  11.493  18.075  0.00  0.00    +0.000 Cl
ENDBRANCH   4   6
ENDBRANCH   1   2
BRANCH   1  14
ATOM     14  C   UNL     1       7.093   7.782  17.566  0.00  0.00    +0.000 C 
BRANCH  14  15
ATOM     15  C   UNL     1       6.622   6.342  17.833  0.00  0.00    +0.000 C 
BRANCH  15  24
ATOM     16  C   UNL     1       4.685   3.914  17.443  0.00  0.00    +0.000 C 
ATOM     17  C   UNL     1       5.624   4.457  16.431  0.00  0.00    +0.000 A 
ATOM     18  C   UNL     1       5.864   4.038  15.136  0.00  0.00    +0.000 A 
ATOM     19  C   UNL     1       6.829   4.933  14.635  0.00  0.00    +0.000 A 
ATOM     20  N   UNL     1       7.469   4.944  13.335  0.00  0.00    +0.000 N 
ATOM     21  O   UNL     1       7.075   4.093  12.523  0.00  0.00    +0.000 OA
ATOM     22  O   UNL     1       8.369   5.773  13.127  0.00  0.00    +0.000 OA
ATOM     23  N   UNL     1       7.163   5.872  15.533  0.00  0.00    +0.000 NA
ATOM     24  N   UNL     1       6.455   5.536  16.635  0.00  0.00    +0.000 N 
ENDBRANCH  15  24
ENDBRANCH  14  15
ENDBRANCH   1  14
TORSDOF 5
ENDMDL
MODEL 2
REMARK VINA RESULT:      -7.4      6.388      7.657
REMARK  Name = 
REMARK  6 active torsions:
REMARK  status: ('A' for Active; 'I' for Inactive)
REMARK    1  A    between atoms: C_1  and  C_2
REMARK    2  A    between atoms: N_9  and  C_10
REMARK    3  A    between atoms: C_10  and  C_11
REMARK    4  A    between atoms: C_11  and  C_12
REMARK    5  A    between atoms: C_12  and  C_13
REMARK    6  A    between atoms: N_15  and  C_16
REMARK                            x       y       z     vdW  Elec       q    Type
REMARK                         _______ _______ _______ _____ _____    ______ ____
ROOT
ATOM      1  C   UNL     1       2.519   4.064  21.258  0.00  0.00    +0.000 C 
ENDROOT
BRANCH   1   2
ATOM      2  C   UNL     1       1.816   5.156  20.476  0.00  0.00    +0.000 C 
ATOM      3  O   UNL     1       0.774   4.900  19.877  0.00  0.00    +0.000 OA
ATOM      4  N   UNL     1       2.439   6.390  20.529  0.00  0.00    +0.000 N 
ATOM      5  H   UNL     1       3.392   6.423  20.886  0.00  0.00    +0.000 HD
BRANCH   4   6
ATOM      6  C   UNL     1       1.988   7.576  19.890  0.00  0.00    +0.000 A 
ATOM      7  C   UNL     1       2.244   7.842  18.539  0.00  0.00    +0.000 A 
ATOM      8  C   UNL     1       1.856   9.050  17.954  0.00  0.00    +0.000 A 
ATOM      9  C   UNL     1       1.189  10.004  18.712  0.00  0.00    +0.000 A 
ATOM     10 CL   UNL     1       0.742  11.501  17.993  0.00  0.00    +0.000 Cl
ATOM     11  C   UNL     1       0.880   9.750  20.045  0.00  0.00    +0.000 A 
ATOM     12  C   UNL     1       1.269   8.537  20.626  0.00  0.00    +0.000 A 
ATOM     13 CL   UNL     1       0.850   8.267  22.281  0.00  0.00    +0.000 Cl
ENDBRANCH   4   6
ENDBRANCH   1   2
BRANCH   1  14
ATOM     14  C   UNL     1       2.474   2.729  20.497  0.00  0.00    +0.000 C 
BRANCH  14  15
ATOM     15  C   UNL     1       3.773   2.345  19.767  0.00  0.00    +0.000 C 
BRANCH  15  24
ATOM     16  C   UNL     1       2.821   3.659  17.089  0.00  0.00    +0.000 C 
ATOM     17  C   UNL     1       4.023   4.037  17.873  0.00  0.00    +0.000 A 
ATOM     18  C   UNL     1       4.971   5.010  17.619  0.00  0.00    +0.000 A 
ATOM     19  C   UNL     1       5.863   4.944  18.706  0.00  0.00    +0.000 A 
ATOM     20  N   UNL     1       7.065   5.720  18.943  0.00  0.00    +0.000 N 
ATOM     21  O   UNL     1       7.318   6.606  18.113  0.00  0.00    +0.000 OA
ATOM     22  O   UNL     1       7.765   5.437  19.927  0.00  0.00    +0.000 OA
ATOM     23  N   UNL     1       5.500   4.017  19.604  0.00  0.00    +0.000 NA
ATOM     24  N   UNL     1       4.405   3.443  19.054  0.00  0.00    +0.000 N 
ENDBRANCH  15  24
ENDBRANCH  14  15
ENDBRANCH   1  14
TORSDOF 5
ENDMDL
MODEL 3
REMARK VINA RESULT:      -7.4      4.869      7.307
REMARK  Name = 
REMARK  6 active torsions:
REMARK  status: ('A' for Active; 'I' for Inactive)
REMARK    1  A    between atoms: C_1  and  C_2
REMARK    2  A    between atoms: N_9  and  C_10
REMARK    3  A    between atoms: C_10  and  C_11
REMARK    4  A    between atoms: C_11  and  C_12
REMARK    5  A    between atoms: C_12  and  C_13
REMARK    6  A    between atoms: N_15  and  C_16
REMARK                            x       y       z     vdW  Elec       q    Type
REMARK                         _______ _______ _______ _____ _____    ______ ____
ROOT
ATOM      1  C   UNL     1       4.270   2.060  17.827  0.00  0.00    +0.000 C 
ENDROOT
BRANCH   1   2
ATOM      2  C   UNL     1       5.004   3.272  18.366  0.00  0.00    +0.000 C 
ATOM      3  O   UNL     1       4.961   3.524  19.568  0.00  0.00    +0.000 OA
ATOM      4  N   UNL     1       5.688   3.999  17.409  0.00  0.00    +0.000 N 
ATOM      5  H   UNL     1       5.480   3.806  16.430  0.00  0.00    +0.000 HD
BRANCH   4   6
ATOM      6  C   UNL     1       6.455   5.171  17.647  0.00  0.00    +0.000 A 
ATOM      7  C   UNL     1       7.442   5.230  18.639  0.00  0.00    +0.000 A 
ATOM      8  C   UNL     1       8.129   6.417  18.904  0.00  0.00    +0.000 A 
ATOM      9  C   UNL     1       7.849   7.560  18.165  0.00  0.00    +0.000 A 
ATOM     10 CL   UNL     1       8.676   9.025  18.519  0.00  0.00    +0.000 Cl
ATOM     11  C   UNL     1       6.905   7.521  17.143  0.00  0.00    +0.000 A 
ATOM     12  C   UNL     1       6.220   6.328  16.880  0.00  0.00    +0.000 A 
ATOM     13 CL   UNL     1       5.068   6.330  15.592  0.00  0.00    +0.000 Cl
ENDBRANCH   4   6
ENDBRANCH   1   2
BRANCH   1  14
ATOM     14  C   UNL     1       2.920   1.874  18.538  0.00  0.00    +0.000 C 
BRANCH  14  15
ATOM     15  C   UNL     1       1.845   2.918  18.190  0.00  0.00    +0.000 C 
BRANCH  15  24
ATOM     16  C   UNL     1       1.249   2.880  21.263  0.00  0.00    +0.000 C 
ATOM     17  C   UNL     1       1.535   4.081  20.440  0.00  0.00    +0.000 A 
ATOM     18  C   UNL     1       1.598   5.410  20.812  0.00  0.00    +0.000 A 
ATOM     19  C   UNL     1       1.932   6.105  19.634  0.00  0.00    +0.000 A 
ATOM     20  N   UNL     1       2.098   7.531  19.437  0.00  0.00    +0.000 N 
ATOM     21  O   UNL     1       1.997   8.240  20.450  0.00  0.00    +0.000 OA
ATOM     22  O   UNL     1       2.304   7.948  18.287  0.00  0.00    +0.000 OA
ATOM     23  N   UNL     1       2.097   5.280  18.589  0.00  0.00    +0.000 NA
ATOM     24  N   UNL     1       1.803   4.058  19.090  0.00  0.00    +0.000 N 
ENDBRANCH  15  24
ENDBRANCH  14  15
ENDBRANCH   1  14
TORSDOF 5
ENDMDL
MODEL 4
REMARK VINA RESULT:      -7.4      7.514      8.852
REMARK  Name = 
REMARK  6 active torsions:
REMARK  status: ('A' for Active; 'I' for Inactive)
REMARK    1  A    between atoms: C_1  and  C_2
REMARK    2  A    between atoms: N_9  and  C_10
REMARK    3  A    between atoms: C_10  and  C_11
REMARK    4  A    between atoms: C_11  and  C_12
REMARK    5  A    between atoms: C_12  and  C_13
REMARK    6  A    between atoms: N_15  and  C_16
REMARK                            x       y       z     vdW  Elec       q    Type
REMARK                         _______ _______ _______ _____ _____    ______ ____
ROOT
ATOM      1  C   UNL     1       2.244   9.304  18.266  0.00  0.00    +0.000 C 
ENDROOT
BRANCH   1   2
ATOM      2  C   UNL     1       0.837   9.583  18.754  0.00  0.00    +0.000 C 
ATOM      3  O   UNL     1       0.518   9.273  19.899  0.00  0.00    +0.000 OA
ATOM      4  N   UNL     1       0.019  10.198  17.823  0.00  0.00    +0.000 N 
ATOM      5  H   UNL     1       0.337  10.218  16.855  0.00  0.00    +0.000 HD
BRANCH   4   6
ATOM      6  C   UNL     1      -1.337  10.571  18.025  0.00  0.00    +0.000 A 
ATOM      7  C   UNL     1      -2.401   9.845  17.475  0.00  0.00    +0.000 A 
ATOM      8  C   UNL     1      -3.722  10.276  17.626  0.00  0.00    +0.000 A 
ATOM      9  C   UNL     1      -3.996  11.432  18.346  0.00  0.00    +0.000 A 
ATOM     10 CL   UNL     1      -5.622  11.972  18.499  0.00  0.00    +0.000 Cl
ATOM     11  C   UNL     1      -2.963  12.149  18.942  0.00  0.00    +0.000 A 
ATOM     12  C   UNL     1      -1.642  11.713  18.790  0.00  0.00    +0.000 A 
ATOM     13 CL   UNL     1      -0.398  12.632  19.561  0.00  0.00    +0.000 Cl
ENDBRANCH   4   6
ENDBRANCH   1   2
BRANCH   1  14
ATOM     14  C   UNL     1       2.332   7.918  17.605  0.00  0.00    +0.000 C 
BRANCH  14  15
ATOM     15  C   UNL     1       2.983   6.821  18.464  0.00  0.00    +0.000 C 
BRANCH  15  24
ATOM     16  C   UNL     1       2.465   3.857  17.599  0.00  0.00    +0.000 C 
ATOM     17  C   UNL     1       3.700   4.640  17.349  0.00  0.00    +0.000 A 
ATOM     18  C   UNL     1       4.866   4.267  16.709  0.00  0.00    +0.000 A 
ATOM     19  C   UNL     1       5.683   5.413  16.738  0.00  0.00    +0.000 A 
ATOM     20  N   UNL     1       7.032   5.580  16.235  0.00  0.00    +0.000 N 
ATOM     21  O   UNL     1       7.521   4.606  15.642  0.00  0.00    +0.000 OA
ATOM     22  O   UNL     1       7.611   6.656  16.446  0.00  0.00    +0.000 OA
ATOM     23  N   UNL     1       5.075   6.453  17.327  0.00  0.00    +0.000 NA
ATOM     24  N   UNL     1       3.888   5.948  17.736  0.00  0.00    +0.000 N 
ENDBRANCH  15  24
ENDBRANCH  14  15
ENDBRANCH   1  14
TORSDOF 5
ENDMDL
MODEL 5
REMARK VINA RESULT:      -7.4      5.551      7.021
REMARK  Name = 
REMARK  6 active torsions:
REMARK  status: ('A' for Active; 'I' for Inactive)
REMARK    1  A    between atoms: C_1  and  C_2
REMARK    2  A    between atoms: N_9  and  C_10
REMARK    3  A    between atoms: C_10  and  C_11
REMARK    4  A    between atoms: C_11  and  C_12
REMARK    5  A    between atoms: C_12  and  C_13
REMARK    6  A    between atoms: N_15  and  C_16
REMARK                            x       y       z     vdW  Elec       q    Type
REMARK                         _______ _______ _______ _____ _____    ______ ____
ROOT
ATOM      1  C   UNL     1       2.951   4.480  19.945  0.00  0.00    +0.000 C 
ENDROOT
BRANCH   1   2
ATOM      2  C   UNL     1       1.931   5.565  20.226  0.00  0.00    +0.000 C 
ATOM      3  O   UNL     1       0.784   5.255  20.536  0.00  0.00    +0.000 OA
ATOM      4  N   UNL     1       2.419   6.854  20.111  0.00  0.00    +0.000 N 
ATOM      5  H   UNL     1       3.322   6.979  19.654  0.00  0.00    +0.000 HD
BRANCH   4   6
ATOM      6  C   UNL     1       1.676   8.046  20.323  0.00  0.00    +0.000 A 
ATOM      7  C   UNL     1       1.167   8.396  21.580  0.00  0.00    +0.000 A 
ATOM      8  C   UNL     1       0.376   9.535  21.746  0.00  0.00    +0.000 A 
ATOM      9  C   UNL     1       0.097  10.351  20.657  0.00  0.00    +0.000 A 
ATOM     10 CL   UNL     1      -0.905  11.734  20.864  0.00  0.00    +0.000 Cl
ATOM     11  C   UNL     1       0.625  10.053  19.404  0.00  0.00    +0.000 A 
ATOM     12  C   UNL     1       1.419   8.912  19.243  0.00  0.00    +0.000 A 
ATOM     13 CL   UNL     1       2.062   8.596  17.669  0.00  0.00    +0.000 Cl
ENDBRANCH   4   6
ENDBRANCH   1   2
BRANCH   1  14
ATOM     14  C   UNL     1       4.308   5.089  19.555  0.00  0.00    +0.000 C 
BRANCH  14  15
ATOM     15  C   UNL     1       5.333   4.095  18.982  0.00  0.00    +0.000 C 
BRANCH  15  24
ATOM     16  C   UNL     1       7.816   5.998  19.104  0.00  0.00    +0.000 C 
ATOM     17  C   UNL     1       7.189   5.452  17.874  0.00  0.00    +0.000 A 
ATOM     18  C   UNL     1       7.530   5.648  16.550  0.00  0.00    +0.000 A 
ATOM     19  C   UNL     1       6.614   4.868  15.817  0.00  0.00    +0.000 A 
ATOM     20  N   UNL     1       6.490   4.723  14.380  0.00  0.00    +0.000 N 
ATOM     21  O   UNL     1       7.340   5.312  13.695  0.00  0.00    +0.000 OA
ATOM     22  O   UNL     1       5.547   4.052  13.935  0.00  0.00    +0.000 OA
ATOM     23  N   UNL     1       5.767   4.200  16.614  0.00  0.00    +0.000 NA
ATOM     24  N   UNL     1       6.102   4.608  17.860  0.00  0.00    +0.000 N 
ENDBRANCH  15  24
ENDBRANCH  14  15
ENDBRANCH   1  14
TORSDOF 5
ENDMDL
MODEL 6
REMARK VINA RESULT:      -7.3      6.560      7.537
REMARK  Name = 
REMARK  6 active torsions:
REMARK  status: ('A' for Active; 'I' for Inactive)
REMARK    1  A    between atoms: C_1  and  C_2
REMARK    2  A    between atoms: N_9  and  C_10
REMARK    3  A    between atoms: C_10  and  C_11
REMARK    4  A    between atoms: C_11  and  C_12
REMARK    5  A    between atoms: C_12  and  C_13
REMARK    6  A    between atoms: N_15  and  C_16
REMARK                            x       y       z     vdW  Elec       q    Type
REMARK                         _______ _______ _______ _____ _____    ______ ____
ROOT
ATOM      1  C   UNL     1       2.530   7.386  18.294  0.00  0.00    +0.000 C 
ENDROOT
BRANCH   1   2
ATOM      2  C   UNL     1       1.992   8.803  18.274  0.00  0.00    +0.000 C 
ATOM      3  O   UNL     1       2.283   9.550  17.344  0.00  0.00    +0.000 OA
ATOM      4  N   UNL     1       1.182   9.123  19.348  0.00  0.00    +0.000 N 
ATOM      5  H   UNL     1       1.183   8.490  20.147  0.00  0.00    +0.000 HD
BRANCH   4   6
ATOM      6  C   UNL     1       0.551  10.377  19.569  0.00  0.00    +0.000 A 
ATOM      7  C   UNL     1       0.989  11.272  20.553  0.00  0.00    +0.000 A 
ATOM      8  C   UNL     1       0.305  12.464  20.800  0.00  0.00    +0.000 A 
ATOM      9  C   UNL     1      -0.820  12.786  20.051  0.00  0.00    +0.000 A 
ATOM     10 CL   UNL     1      -1.675  14.241  20.383  0.00  0.00    +0.000 Cl
ATOM     11  C   UNL     1      -1.253  11.938  19.036  0.00  0.00    +0.000 A 
ATOM     12  C   UNL     1      -0.563  10.745  18.791  0.00  0.00    +0.000 A 
ATOM     13 CL   UNL     1      -1.135   9.734  17.511  0.00  0.00    +0.000 Cl
ENDBRANCH   4   6
ENDBRANCH   1   2
BRANCH   1  14
ATOM     14  C   UNL     1       2.498   6.806  19.718  0.00  0.00    +0.000 C 
BRANCH  14  15
ATOM     15  C   UNL     1       2.911   5.328  19.834  0.00  0.00    +0.000 C 
BRANCH  15  24
ATOM     16  C   UNL     1       2.505   3.777  17.145  0.00  0.00    +0.000 C 
ATOM     17  C   UNL     1       3.801   4.228  17.710  0.00  0.00    +0.000 A 
ATOM     18  C   UNL     1       5.081   4.073  17.213  0.00  0.00    +0.000 A 
ATOM     19  C   UNL     1       5.916   4.720  18.145  0.00  0.00    +0.000 A 
ATOM     20  N   UNL     1       7.360   4.840  18.139  0.00  0.00    +0.000 N 
ATOM     21  O   UNL     1       7.946   4.368  17.153  0.00  0.00    +0.000 OA
ATOM     22  O   UNL     1       7.911   5.376  19.113  0.00  0.00    +0.000 OA
ATOM     23  N   UNL     1       5.220   5.271  19.150  0.00  0.00    +0.000 NA
ATOM     24  N   UNL     1       3.940   4.918  18.893  0.00  0.00    +0.000 N 
ENDBRANCH  15  24
ENDBRANCH  14  15
ENDBRANCH   1  14
TORSDOF 5
ENDMDL
MODEL 7
REMARK VINA RESULT:      -7.3      6.824      7.788
REMARK  Name = 
REMARK  6 active torsions:
REMARK  status: ('A' for Active; 'I' for Inactive)
REMARK    1  A    between atoms: C_1  and  C_2
REMARK    2  A    between atoms: N_9  and  C_10
REMARK    3  A    between atoms: C_10  and  C_11
REMARK    4  A    between atoms: C_11  and  C_12
REMARK    5  A    between atoms: C_12  and  C_13
REMARK    6  A    between atoms: N_15  and  C_16
REMARK                            x       y       z     vdW  Elec       q    Type
REMARK                         _______ _______ _______ _____ _____    ______ ____
ROOT
ATOM      1  C   UNL     1       2.686   8.283  17.724  0.00  0.00    +0.000 C 
ENDROOT
BRANCH   1   2
ATOM      2  C   UNL     1       1.905   9.546  18.030  0.00  0.00    +0.000 C 
ATOM      3  O   UNL     1       2.263  10.615  17.542  0.00  0.00    +0.000 OA
ATOM      4  N   UNL     1       0.813   9.357  18.857  0.00  0.00    +0.000 N 
ATOM      5  H   UNL     1       0.743   8.470  19.353  0.00  0.00    +0.000 HD
BRANCH   4   6
ATOM      6  C   UNL     1      -0.083  10.369  19.294  0.00  0.00    +0.000 A 
ATOM      7  C   UNL     1       0.147  11.122  20.452  0.00  0.00    +0.000 A 
ATOM      8  C   UNL     1      -0.787  12.059  20.902  0.00  0.00    +0.000 A 
ATOM      9  C   UNL     1      -1.959  12.267  20.186  0.00  0.00    +0.000 A 
ATOM     10 CL   UNL     1      -3.118  13.399  20.763  0.00  0.00    +0.000 Cl
ATOM     11  C   UNL     1      -2.195  11.566  19.007  0.00  0.00    +0.000 A 
ATOM     12  C   UNL     1      -1.256  10.630  18.559  0.00  0.00    +0.000 A 
ATOM     13 CL   UNL     1      -1.591   9.796  17.083  0.00  0.00    +0.000 Cl
ENDBRANCH   4   6
ENDBRANCH   1   2
BRANCH   1  14
ATOM     14  C   UNL     1       2.190   7.108  18.582  0.00  0.00    +0.000 C 
BRANCH  14  15
ATOM     15  C   UNL     1       3.287   6.152  19.083  0.00  0.00    +0.000 C 
BRANCH  15  24
ATOM     16  C   UNL     1       2.508   3.600  17.445  0.00  0.00    +0.000 C 
ATOM     17  C   UNL     1       3.753   4.393  17.293  0.00  0.00    +0.000 A 
ATOM     18  C   UNL     1       4.820   4.203  16.437  0.00  0.00    +0.000 A 
ATOM     19  C   UNL     1       5.701   5.268  16.707  0.00  0.00    +0.000 A 
ATOM     20  N   UNL     1       6.996   5.546  16.120  0.00  0.00    +0.000 N 
ATOM     21  O   UNL     1       7.361   4.786  15.211  0.00  0.00    +0.000 OA
ATOM     22  O   UNL     1       7.656   6.495  16.571  0.00  0.00    +0.000 OA
ATOM     23  N   UNL     1       5.220   6.095  17.647  0.00  0.00    +0.000 NA
ATOM     24  N   UNL     1       4.057   5.518  18.025  0.00  0.00    +0.000 N 
ENDBRANCH  15  24
ENDBRANCH  14  15
ENDBRANCH   1  14
TORSDOF 5
ENDMDL
MODEL 8
REMARK VINA RESULT:      -7.3      6.954      7.763
REMARK  Name = 
REMARK  6 active torsions:
REMARK  status: ('A' for Active; 'I' for Inactive)
REMARK    1  A    between atoms: C_1  and  C_2
REMARK    2  A    between atoms: N_9  and  C_10
REMARK    3  A    between atoms: C_10  and  C_11
REMARK    4  A    between atoms: C_11  and  C_12
REMARK    5  A    between atoms: C_12  and  C_13
REMARK    6  A    between atoms: N_15  and  C_16
REMARK                            x       y       z     vdW  Elec       q    Type
REMARK                         _______ _______ _______ _____ _____    ______ ____
ROOT
ATOM      1  C   UNL     1       1.510   8.846  17.593  0.00  0.00    +0.000 C 
ENDROOT
BRANCH   1   2
ATOM      2  C   UNL     1       1.135   9.952  18.559  0.00  0.00    +0.000 C 
ATOM      3  O   UNL     1       1.790  10.991  18.577  0.00  0.00    +0.000 OA
ATOM      4  N   UNL     1       0.036   9.672  19.351  0.00  0.00    +0.000 N 
ATOM      5  H   UNL     1      -0.291   8.708  19.383  0.00  0.00    +0.000 HD
BRANCH   4   6
ATOM      6  C   UNL     1      -0.523  10.536  20.331  0.00  0.00    +0.000 A 
ATOM      7  C   UNL     1      -1.362  11.605  19.995  0.00  0.00    +0.000 A 
ATOM      8  C   UNL     1      -1.837  12.485  20.971  0.00  0.00    +0.000 A 
ATOM      9  C   UNL     1      -1.492  12.294  22.303  0.00  0.00    +0.000 A 
ATOM     10 CL   UNL     1      -2.055  13.399  23.494  0.00  0.00    +0.000 Cl
ATOM     11  C   UNL     1      -0.696  11.214  22.673  0.00  0.00    +0.000 A 
ATOM     12  C   UNL     1      -0.224  10.334  21.692  0.00  0.00    +0.000 A 
ATOM     13 CL   UNL     1       0.749   9.002  22.208  0.00  0.00    +0.000 Cl
ENDBRANCH   4   6
ENDBRANCH   1   2
BRANCH   1  14
ATOM     14  C   UNL     1       2.849   8.201  17.989  0.00  0.00    +0.000 C 
BRANCH  14  15
ATOM     15  C   UNL     1       2.774   6.712  18.367  0.00  0.00    +0.000 C 
BRANCH  15  24
ATOM     16  C   UNL     1       2.438   3.718  17.514  0.00  0.00    +0.000 C 
ATOM     17  C   UNL     1       3.648   4.555  17.320  0.00  0.00    +0.000 A 
ATOM     18  C   UNL     1       4.863   4.229  16.749  0.00  0.00    +0.000 A 
ATOM     19  C   UNL     1       5.624   5.412  16.806  0.00  0.00    +0.000 A 
ATOM     20  N   UNL     1       6.990   5.635  16.375  0.00  0.00    +0.000 N 
ATOM     21  O   UNL     1       7.553   4.679  15.822  0.00  0.00    +0.000 OA
ATOM     22  O   UNL     1       7.507   6.739  16.603  0.00  0.00    +0.000 OA
ATOM     23  N   UNL     1       4.938   6.429  17.349  0.00  0.00    +0.000 NA
ATOM     24  N   UNL     1       3.756   5.874  17.700  0.00  0.00    +0.000 N 
ENDBRANCH  15  24
ENDBRANCH  14  15
ENDBRANCH   1  14
TORSDOF 5
ENDMDL
MODEL 9
REMARK VINA RESULT:      -7.3      4.169      8.959
REMARK  Name = 
REMARK  6 active torsions:
REMARK  status: ('A' for Active; 'I' for Inactive)
REMARK    1  A    between atoms: C_1  and  C_2
REMARK    2  A    between atoms: N_9  and  C_10
REMARK    3  A    between atoms: C_10  and  C_11
REMARK    4  A    between atoms: C_11  and  C_12
REMARK    5  A    between atoms: C_12  and  C_13
REMARK    6  A    between atoms: N_15  and  C_16
REMARK                            x       y       z     vdW  Elec       q    Type
REMARK                         _______ _______ _______ _____ _____    ______ ____
ROOT
ATOM      1  C   UNL     1       8.186   8.142  17.222  0.00  0.00    +0.000 C 
ENDROOT
BRANCH   1   2
ATOM      2  C   UNL     1       7.187   7.103  17.691  0.00  0.00    +0.000 C 
ATOM      3  O   UNL     1       7.435   6.427  18.687  0.00  0.00    +0.000 OA
ATOM      4  N   UNL     1       6.039   7.025  16.924  0.00  0.00    +0.000 N 
ATOM      5  H   UNL     1       6.043   7.491  16.018  0.00  0.00    +0.000 HD
BRANCH   4   6
ATOM      6  C   UNL     1       4.949   6.142  17.148  0.00  0.00    +0.000 A 
ATOM      7  C   UNL     1       3.786   6.544  17.817  0.00  0.00    +0.000 A 
ATOM      8  C   UNL     1       2.760   5.636  18.090  0.00  0.00    +0.000 A 
ATOM      9  C   UNL     1       2.877   4.313  17.682  0.00  0.00    +0.000 A 
ATOM     10 CL   UNL     1       1.624   3.195  18.050  0.00  0.00    +0.000 Cl
ATOM     11  C   UNL     1       4.002   3.895  16.976  0.00  0.00    +0.000 A 
ATOM     12  C   UNL     1       5.026   4.808  16.702  0.00  0.00    +0.000 A 
ATOM     13 CL   UNL     1       6.394   4.240  15.811  0.00  0.00    +0.000 Cl
ENDBRANCH   4   6
ENDBRANCH   1   2
BRANCH   1  14
ATOM     14  C   UNL     1       8.046   9.443  18.030  0.00  0.00    +0.000 C 
BRANCH  14  15
ATOM     15  C   UNL     1       9.157   9.696  19.064  0.00  0.00    +0.000 C 
BRANCH  15  24
ATOM     16  C   UNL     1       8.932  11.663  21.490  0.00  0.00    +0.000 C 
ATOM     17  C   UNL     1       9.526  11.969  20.165  0.00  0.00    +0.000 A 
ATOM     18  C   UNL     1      10.091  13.142  19.702  0.00  0.00    +0.000 A 
ATOM     19  C   UNL     1      10.513  12.852  18.390  0.00  0.00    +0.000 A 
ATOM     20  N   UNL     1      11.144  13.730  17.424  0.00  0.00    +0.000 N 
ATOM     21  O   UNL     1      11.411  14.876  17.817  0.00  0.00    +0.000 OA
ATOM     22  O   UNL     1      11.353  13.296  16.281  0.00  0.00    +0.000 OA
ATOM     23  N   UNL     1      10.262  11.580  18.047  0.00  0.00    +0.000 NA
ATOM     24  N   UNL     1       9.617  11.074  19.123  0.00  0.00    +0.000 N 
ENDBRANCH  15  24
ENDBRANCH  14  15
ENDBRANCH   1  14
TORSDOF 5
ENDMDL
