MODEL 1
REMARK VINA RESULT:      -6.1      0.000      0.000
REMARK  Name = 
REMARK  11 active torsions:
REMARK  status: ('A' for Active; 'I' for Inactive)
REMARK    1  A    between atoms: C_2  and  C_3
REMARK    2  A    between atoms: C_2  and  C_4
REMARK    3  A    between atoms: C_4  and  O_5
REMARK    4  A    between atoms: O_5  and  C_6
REMARK    5  A    between atoms: C_6  and  C_7
REMARK    6  A    between atoms: C_7  and  N_8
REMARK    7  A    between atoms: N_11  and  C_12
REMARK    8  A    between atoms: C_16  and  N_17
REMARK    9  A    between atoms: N_17  and  C_18
REMARK   10  A    between atoms: N_17  and  C_19
REMARK   11  A    between atoms: C_19  and  C_20
REMARK                            x       y       z     vdW  Elec       q    Type
REMARK                         _______ _______ _______ _____ _____    ______ ____
ROOT
ATOM      1  N   UNL     1       2.809   2.135  18.579  0.00  0.00    +0.000 N 
ATOM      2  C   UNL     1       3.295   3.046  17.659  0.00  0.00    +0.000 C 
ATOM      3  O   UNL     1       2.559   3.860  17.113  0.00  0.00    +0.000 OA
ATOM      4  N   UNL     1       4.645   2.883  17.432  0.00  0.00    +0.000 N 
ATOM      5  H   UNL     1       3.426   1.958  19.362  0.00  0.00    +0.000 HD
ATOM      6  H   UNL     1       5.023   1.979  17.676  0.00  0.00    +0.000 HD
ENDROOT
BRANCH   4   7
ATOM      7  C   UNL     1       5.438   3.716  16.606  0.00  0.00    +0.000 A 
ATOM      8  C   UNL     1       6.137   4.813  17.108  0.00  0.00    +0.000 A 
ATOM      9  C   UNL     1       6.893   5.612  16.259  0.00  0.00    +0.000 A 
ATOM     10  C   UNL     1       6.966   5.311  14.901  0.00  0.00    +0.000 A 
ATOM     11  C   UNL     1       6.299   4.206  14.348  0.00  0.00    +0.000 A 
ATOM     12  C   UNL     1       5.543   3.415  15.235  0.00  0.00    +0.000 A 
BRANCH  11  13
ATOM     13  N   UNL     1       6.406   3.904  12.996  0.00  0.00    +0.000 N 
ATOM     14  C   UNL     1       7.392   4.561  12.147  0.00  0.00    +0.000 C 
BRANCH  13  15
ATOM     15  C   UNL     1       5.616   2.832  12.382  0.00  0.00    +0.000 C 
ATOM     16  C   UNL     1       4.441   3.398  11.596  0.00  0.00    +0.000 C 
ENDBRANCH  13  15
ENDBRANCH  11  13
ENDBRANCH   4   7
BRANCH   1  17
ATOM     17  C   UNL     1       1.400   2.241  18.926  0.00  0.00    +0.000 C 
BRANCH  17  18
ATOM     18  C   UNL     1       1.158   2.939  20.257  0.00  0.00    +0.000 C 
BRANCH  18  19
ATOM     19  O   UNL     1       1.018   4.349  20.047  0.00  0.00    +0.000 OA
BRANCH  19  20
ATOM     20  C   UNL     1       2.095   5.058  20.659  0.00  0.00    +0.000 C 
BRANCH  20  22
ATOM     21  C   UNL     1       1.468   7.457  20.885  0.00  0.00    +0.000 C 
ATOM     22  C   UNL     1       2.079   6.488  20.188  0.00  0.00    +0.000 C 
ATOM     23  C   UNL     1       2.749   6.768  18.872  0.00  0.00    +0.000 C 
ENDBRANCH  20  22
ENDBRANCH  19  20
ENDBRANCH  18  19
ENDBRANCH  17  18
ENDBRANCH   1  17
TORSDOF 8
ENDMDL
MODEL 2
REMARK VINA RESULT:      -6.1      5.611      7.508
REMARK  Name = 
REMARK  11 active torsions:
REMARK  status: ('A' for Active; 'I' for Inactive)
REMARK    1  A    between atoms: C_2  and  C_3
REMARK    2  A    between atoms: C_2  and  C_4
REMARK    3  A    between atoms: C_4  and  O_5
REMARK    4  A    between atoms: O_5  and  C_6
REMARK    5  A    between atoms: C_6  and  C_7
REMARK    6  A    between atoms: C_7  and  N_8
REMARK    7  A    between atoms: N_11  and  C_12
REMARK    8  A    between atoms: C_16  and  N_17
REMARK    9  A    between atoms: N_17  and  C_18
REMARK   10  A    between atoms: N_17  and  C_19
REMARK   11  A    between atoms: C_19  and  C_20
REMARK                            x       y       z     vdW  Elec       q    Type
REMARK                         _______ _______ _______ _____ _____    ______ ____
ROOT
ATOM      1  N   UNL     1       8.088   9.217  17.843  0.00  0.00    +0.000 N 
ATOM      2  C   UNL     1       7.750   7.876  17.855  0.00  0.00    +0.000 C 
ATOM      3  O   UNL     1       8.237   7.100  18.670  0.00  0.00    +0.000 OA
ATOM      4  N   UNL     1       6.868   7.555  16.846  0.00  0.00    +0.000 N 
ATOM      5  H   UNL     1       7.318   9.842  17.640  0.00  0.00    +0.000 HD
ATOM      6  H   UNL     1       6.839   8.199  16.070  0.00  0.00    +0.000 HD
ENDROOT
BRANCH   4   7
ATOM      7  C   UNL     1       6.281   6.280  16.654  0.00  0.00    +0.000 A 
ATOM      8  C   UNL     1       6.924   5.263  15.950  0.00  0.00    +0.000 A 
ATOM      9  C   UNL     1       6.305   4.031  15.774  0.00  0.00    +0.000 A 
ATOM     10  C   UNL     1       5.041   3.803  16.314  0.00  0.00    +0.000 A 
ATOM     11  C   UNL     1       4.360   4.786  17.050  0.00  0.00    +0.000 A 
ATOM     12  C   UNL     1       5.014   6.023  17.212  0.00  0.00    +0.000 A 
BRANCH  11  13
ATOM     13  N   UNL     1       3.113   4.531  17.606  0.00  0.00    +0.000 N 
ATOM     14  C   UNL     1       2.368   5.569  18.308  0.00  0.00    +0.000 C 
BRANCH  13  15
ATOM     15  C   UNL     1       2.433   3.246  17.417  0.00  0.00    +0.000 C 
ATOM     16  C   UNL     1       1.813   2.757  18.719  0.00  0.00    +0.000 C 
ENDBRANCH  13  15
ENDBRANCH  11  13
ENDBRANCH   4   7
BRANCH   1  17
ATOM     17  C   UNL     1       8.985   9.676  18.893  0.00  0.00    +0.000 C 
BRANCH  17  18
ATOM     18  C   UNL     1       9.738  10.948  18.527  0.00  0.00    +0.000 C 
BRANCH  18  19
ATOM     19  O   UNL     1       9.400  11.994  19.446  0.00  0.00    +0.000 OA
BRANCH  19  20
ATOM     20  C   UNL     1      10.011  11.764  20.715  0.00  0.00    +0.000 C 
BRANCH  20  22
ATOM     21  C   UNL     1       9.500  13.831  22.006  0.00  0.00    +0.000 C 
ATOM     22  C   UNL     1       9.263  12.532  21.771  0.00  0.00    +0.000 C 
ATOM     23  C   UNL     1       8.262  11.756  22.582  0.00  0.00    +0.000 C 
ENDBRANCH  20  22
ENDBRANCH  19  20
ENDBRANCH  18  19
ENDBRANCH  17  18
ENDBRANCH   1  17
TORSDOF 8
ENDMDL
MODEL 3
REMARK VINA RESULT:      -6.1      2.232      7.530
REMARK  Name = 
REMARK  11 active torsions:
REMARK  status: ('A' for Active; 'I' for Inactive)
REMARK    1  A    between atoms: C_2  and  C_3
REMARK    2  A    between atoms: C_2  and  C_4
REMARK    3  A    between atoms: C_4  and  O_5
REMARK    4  A    between atoms: O_5  and  C_6
REMARK    5  A    between atoms: C_6  and  C_7
REMARK    6  A    between atoms: C_7  and  N_8
REMARK    7  A    between atoms: N_11  and  C_12
REMARK    8  A    between atoms: C_16  and  N_17
REMARK    9  A    between atoms: N_17  and  C_18
REMARK   10  A    between atoms: N_17  and  C_19
REMARK   11  A    between atoms: C_19  and  C_20
REMARK                            x       y       z     vdW  Elec       q    Type
REMARK                         _______ _______ _______ _____ _____    ______ ____
ROOT
ATOM      1  N   UNL     1       6.416   5.871  15.212  0.00  0.00    +0.000 N 
ATOM      2  C   UNL     1       5.463   5.478  16.134  0.00  0.00    +0.000 C 
ATOM      3  O   UNL     1       5.195   4.296  16.314  0.00  0.00    +0.000 OA
ATOM      4  N   UNL     1       4.866   6.556  16.753  0.00  0.00    +0.000 N 
ATOM      5  H   UNL     1       6.987   6.654  15.505  0.00  0.00    +0.000 HD
ATOM      6  H   UNL     1       4.935   7.435  16.262  0.00  0.00    +0.000 HD
ENDROOT
BRANCH   4   7
ATOM      7  C   UNL     1       3.914   6.469  17.798  0.00  0.00    +0.000 A 
ATOM      8  C   UNL     1       3.142   7.561  18.194  0.00  0.00    +0.000 A 
ATOM      9  C   UNL     1       2.229   7.435  19.233  0.00  0.00    +0.000 A 
ATOM     10  C   UNL     1       2.071   6.209  19.877  0.00  0.00    +0.000 A 
ATOM     11  C   UNL     1       2.807   5.073  19.503  0.00  0.00    +0.000 A 
ATOM     12  C   UNL     1       3.724   5.234  18.445  0.00  0.00    +0.000 A 
BRANCH  11  13
ATOM     13  N   UNL     1       2.616   3.852  20.137  0.00  0.00    +0.000 N 
ATOM     14  C   UNL     1       2.153   3.777  21.517  0.00  0.00    +0.000 C 
BRANCH  13  15
ATOM     15  C   UNL     1       2.758   2.582  19.418  0.00  0.00    +0.000 C 
ATOM     16  C   UNL     1       1.507   2.268  18.607  0.00  0.00    +0.000 C 
ENDBRANCH  13  15
ENDBRANCH  11  13
ENDBRANCH   4   7
BRANCH   1  17
ATOM     17  C   UNL     1       7.139   4.812  14.525  0.00  0.00    +0.000 C 
BRANCH  17  18
ATOM     18  C   UNL     1       7.565   5.191  13.113  0.00  0.00    +0.000 C 
BRANCH  18  19
ATOM     19  O   UNL     1       7.092   4.208  12.184  0.00  0.00    +0.000 OA
BRANCH  19  20
ATOM     20  C   UNL     1       6.063   3.414  12.772  0.00  0.00    +0.000 C 
BRANCH  20  22
ATOM     21  C   UNL     1       4.164   3.100  11.193  0.00  0.00    +0.000 C 
ATOM     22  C   UNL     1       5.332   2.667  11.689  0.00  0.00    +0.000 C 
ATOM     23  C   UNL     1       5.960   1.384  11.218  0.00  0.00    +0.000 C 
ENDBRANCH  20  22
ENDBRANCH  19  20
ENDBRANCH  18  19
ENDBRANCH  17  18
ENDBRANCH   1  17
TORSDOF 8
ENDMDL
MODEL 4
REMARK VINA RESULT:      -6.0      5.656      7.974
REMARK  Name = 
REMARK  11 active torsions:
REMARK  status: ('A' for Active; 'I' for Inactive)
REMARK    1  A    between atoms: C_2  and  C_3
REMARK    2  A    between atoms: C_2  and  C_4
REMARK    3  A    between atoms: C_4  and  O_5
REMARK    4  A    between atoms: O_5  and  C_6
REMARK    5  A    between atoms: C_6  and  C_7
REMARK    6  A    between atoms: C_7  and  N_8
REMARK    7  A    between atoms: N_11  and  C_12
REMARK    8  A    between atoms: C_16  and  N_17
REMARK    9  A    between atoms: N_17  and  C_18
REMARK   10  A    between atoms: N_17  and  C_19
REMARK   11  A    between atoms: C_19  and  C_20
REMARK                            x       y       z     vdW  Elec       q    Type
REMARK                         _______ _______ _______ _____ _____    ______ ____
ROOT
ATOM      1  N   UNL     1       8.827   8.513  18.900  0.00  0.00    +0.000 N 
ATOM      2  C   UNL     1       7.901   7.910  18.069  0.00  0.00    +0.000 C 
ATOM      3  O   UNL     1       7.239   8.561  17.269  0.00  0.00    +0.000 OA
ATOM      4  N   UNL     1       7.810   6.553  18.293  0.00  0.00    +0.000 N 
ATOM      5  H   UNL     1       9.673   7.977  19.046  0.00  0.00    +0.000 HD
ATOM      6  H   UNL     1       8.143   6.235  19.191  0.00  0.00    +0.000 HD
ENDROOT
BRANCH   4   7
ATOM      7  C   UNL     1       7.009   5.657  17.543  0.00  0.00    +0.000 A 
ATOM      8  C   UNL     1       7.314   5.309  16.227  0.00  0.00    +0.000 A 
ATOM      9  C   UNL     1       6.494   4.436  15.524  0.00  0.00    +0.000 A 
ATOM     10  C   UNL     1       5.367   3.892  16.137  0.00  0.00    +0.000 A 
ATOM     11  C   UNL     1       5.027   4.192  17.466  0.00  0.00    +0.000 A 
ATOM     12  C   UNL     1       5.880   5.079  18.153  0.00  0.00    +0.000 A 
BRANCH  11  13
ATOM     13  N   UNL     1       3.916   3.618  18.071  0.00  0.00    +0.000 N 
ATOM     14  C   UNL     1       3.857   3.416  19.513  0.00  0.00    +0.000 C 
BRANCH  13  15
ATOM     15  C   UNL     1       2.706   3.294  17.309  0.00  0.00    +0.000 C 
ATOM     16  C   UNL     1       1.534   4.164  17.745  0.00  0.00    +0.000 C 
ENDBRANCH  13  15
ENDBRANCH  11  13
ENDBRANCH   4   7
BRANCH   1  17
ATOM     17  C   UNL     1       9.035   9.943  18.724  0.00  0.00    +0.000 C 
BRANCH  17  18
ATOM     18  C   UNL     1       9.255  10.686  20.034  0.00  0.00    +0.000 C 
BRANCH  18  19
ATOM     19  O   UNL     1       9.967  11.904  19.788  0.00  0.00    +0.000 OA
BRANCH  19  20
ATOM     20  C   UNL     1      11.231  11.633  19.184  0.00  0.00    +0.000 C 
BRANCH  20  22
ATOM     21  C   UNL     1      12.333  13.864  19.104  0.00  0.00    +0.000 C 
ATOM     22  C   UNL     1      11.711  12.865  18.463  0.00  0.00    +0.000 C 
ATOM     23  C   UNL     1      11.418  12.936  16.990  0.00  0.00    +0.000 C 
ENDBRANCH  20  22
ENDBRANCH  19  20
ENDBRANCH  18  19
ENDBRANCH  17  18
ENDBRANCH   1  17
TORSDOF 8
ENDMDL
MODEL 5
REMARK VINA RESULT:      -6.0      2.024      7.531
REMARK  Name = 
REMARK  11 active torsions:
REMARK  status: ('A' for Active; 'I' for Inactive)
REMARK    1  A    between atoms: C_2  and  C_3
REMARK    2  A    between atoms: C_2  and  C_4
REMARK    3  A    between atoms: C_4  and  O_5
REMARK    4  A    between atoms: O_5  and  C_6
REMARK    5  A    between atoms: C_6  and  C_7
REMARK    6  A    between atoms: C_7  and  N_8
REMARK    7  A    between atoms: N_11  and  C_12
REMARK    8  A    between atoms: C_16  and  N_17
REMARK    9  A    between atoms: N_17  and  C_18
REMARK   10  A    between atoms: N_17  and  C_19
REMARK   11  A    between atoms: C_19  and  C_20
REMARK                            x       y       z     vdW  Elec       q    Type
REMARK                         _______ _______ _______ _____ _____    ______ ____
ROOT
ATOM      1  N   UNL     1       6.709   5.528  16.620  0.00  0.00    +0.000 N 
ATOM      2  C   UNL     1       5.499   5.135  17.161  0.00  0.00    +0.000 C 
ATOM      3  O   UNL     1       4.909   4.140  16.755  0.00  0.00    +0.000 OA
ATOM      4  N   UNL     1       5.062   6.002  18.139  0.00  0.00    +0.000 N 
ATOM      5  H   UNL     1       7.372   5.891  17.293  0.00  0.00    +0.000 HD
ATOM      6  H   UNL     1       5.463   6.928  18.112  0.00  0.00    +0.000 HD
ENDROOT
BRANCH   4   7
ATOM      7  C   UNL     1       3.900   5.820  18.928  0.00  0.00    +0.000 A 
ATOM      8  C   UNL     1       3.078   6.884  19.298  0.00  0.00    +0.000 A 
ATOM      9  C   UNL     1       1.954   6.662  20.084  0.00  0.00    +0.000 A 
ATOM     10  C   UNL     1       1.637   5.370  20.496  0.00  0.00    +0.000 A 
ATOM     11  C   UNL     1       2.418   4.261  20.134  0.00  0.00    +0.000 A 
ATOM     12  C   UNL     1       3.550   4.519  19.335  0.00  0.00    +0.000 A 
BRANCH  11  13
ATOM     13  N   UNL     1       2.070   2.976  20.530  0.00  0.00    +0.000 N 
ATOM     14  C   UNL     1       1.816   2.655  21.928  0.00  0.00    +0.000 C 
BRANCH  13  15
ATOM     15  C   UNL     1       1.830   1.909  19.553  0.00  0.00    +0.000 C 
ATOM     16  C   UNL     1       0.694   2.276  18.607  0.00  0.00    +0.000 C 
ENDBRANCH  13  15
ENDBRANCH  11  13
ENDBRANCH   4   7
BRANCH   1  17
ATOM     17  C   UNL     1       7.285   4.662  15.602  0.00  0.00    +0.000 C 
BRANCH  17  18
ATOM     18  C   UNL     1       6.765   4.950  14.200  0.00  0.00    +0.000 C 
BRANCH  18  19
ATOM     19  O   UNL     1       6.099   3.793  13.683  0.00  0.00    +0.000 OA
BRANCH  19  20
ATOM     20  C   UNL     1       6.585   3.474  12.380  0.00  0.00    +0.000 C 
BRANCH  20  22
ATOM     21  C   UNL     1       4.297   3.151  11.452  0.00  0.00    +0.000 C 
ATOM     22  C   UNL     1       5.539   2.683  11.640  0.00  0.00    +0.000 C 
ATOM     23  C   UNL     1       5.948   1.319  11.157  0.00  0.00    +0.000 C 
ENDBRANCH  20  22
ENDBRANCH  19  20
ENDBRANCH  18  19
ENDBRANCH  17  18
ENDBRANCH   1  17
TORSDOF 8
ENDMDL
MODEL 6
REMARK VINA RESULT:      -6.0      2.193      7.631
REMARK  Name = 
REMARK  11 active torsions:
REMARK  status: ('A' for Active; 'I' for Inactive)
REMARK    1  A    between atoms: C_2  and  C_3
REMARK    2  A    between atoms: C_2  and  C_4
REMARK    3  A    between atoms: C_4  and  O_5
REMARK    4  A    between atoms: O_5  and  C_6
REMARK    5  A    between atoms: C_6  and  C_7
REMARK    6  A    between atoms: C_7  and  N_8
REMARK    7  A    between atoms: N_11  and  C_12
REMARK    8  A    between atoms: C_16  and  N_17
REMARK    9  A    between atoms: N_17  and  C_18
REMARK   10  A    between atoms: N_17  and  C_19
REMARK   11  A    between atoms: C_19  and  C_20
REMARK                            x       y       z     vdW  Elec       q    Type
REMARK                         _______ _______ _______ _____ _____    ______ ____
ROOT
ATOM      1  N   UNL     1       6.378   5.739  15.090  0.00  0.00    +0.000 N 
ATOM      2  C   UNL     1       5.448   5.281  16.005  0.00  0.00    +0.000 C 
ATOM      3  O   UNL     1       5.281   4.083  16.203  0.00  0.00    +0.000 OA
ATOM      4  N   UNL     1       4.750   6.312  16.595  0.00  0.00    +0.000 N 
ATOM      5  H   UNL     1       6.874   6.574  15.377  0.00  0.00    +0.000 HD
ATOM      6  H   UNL     1       4.750   7.186  16.088  0.00  0.00    +0.000 HD
ENDROOT
BRANCH   4   7
ATOM      7  C   UNL     1       3.792   6.161  17.627  0.00  0.00    +0.000 A 
ATOM      8  C   UNL     1       3.275   7.251  18.328  0.00  0.00    +0.000 A 
ATOM      9  C   UNL     1       2.346   7.055  19.342  0.00  0.00    +0.000 A 
ATOM     10  C   UNL     1       1.916   5.767  19.655  0.00  0.00    +0.000 A 
ATOM     11  C   UNL     1       2.388   4.639  18.966  0.00  0.00    +0.000 A 
ATOM     12  C   UNL     1       3.328   4.870  17.942  0.00  0.00    +0.000 A 
BRANCH  11  13
ATOM     13  N   UNL     1       1.927   3.365  19.271  0.00  0.00    +0.000 N 
ATOM     14  C   UNL     1       2.284   2.212  18.455  0.00  0.00    +0.000 C 
BRANCH  13  15
ATOM     15  C   UNL     1       1.155   3.097  20.489  0.00  0.00    +0.000 C 
ATOM     16  C   UNL     1       2.072   2.739  21.651  0.00  0.00    +0.000 C 
ENDBRANCH  13  15
ENDBRANCH  11  13
ENDBRANCH   4   7
BRANCH   1  17
ATOM     17  C   UNL     1       7.203   4.735  14.434  0.00  0.00    +0.000 C 
BRANCH  17  18
ATOM     18  C   UNL     1       7.641   5.138  13.032  0.00  0.00    +0.000 C 
BRANCH  18  19
ATOM     19  O   UNL     1       6.930   4.363  12.060  0.00  0.00    +0.000 OA
BRANCH  19  20
ATOM     20  C   UNL     1       6.251   3.274  12.684  0.00  0.00    +0.000 C 
BRANCH  20  22
ATOM     21  C   UNL     1       5.971   1.337  11.145  0.00  0.00    +0.000 C 
ATOM     22  C   UNL     1       5.502   2.492  11.639  0.00  0.00    +0.000 C 
ATOM     23  C   UNL     1       4.216   3.095  11.144  0.00  0.00    +0.000 C 
ENDBRANCH  20  22
ENDBRANCH  19  20
ENDBRANCH  18  19
ENDBRANCH  17  18
ENDBRANCH   1  17
TORSDOF 8
ENDMDL
MODEL 7
REMARK VINA RESULT:      -6.0      1.102      1.574
REMARK  Name = 
REMARK  11 active torsions:
REMARK  status: ('A' for Active; 'I' for Inactive)
REMARK    1  A    between atoms: C_2  and  C_3
REMARK    2  A    between atoms: C_2  and  C_4
REMARK    3  A    between atoms: C_4  and  O_5
REMARK    4  A    between atoms: O_5  and  C_6
REMARK    5  A    between atoms: C_6  and  C_7
REMARK    6  A    between atoms: C_7  and  N_8
REMARK    7  A    between atoms: N_11  and  C_12
REMARK    8  A    between atoms: C_16  and  N_17
REMARK    9  A    between atoms: N_17  and  C_18
REMARK   10  A    between atoms: N_17  and  C_19
REMARK   11  A    between atoms: C_19  and  C_20
REMARK                            x       y       z     vdW  Elec       q    Type
REMARK                         _______ _______ _______ _____ _____    ______ ____
ROOT
ATOM      1  N   UNL     1       3.506   2.543  19.737  0.00  0.00    +0.000 N 
ATOM      2  C   UNL     1       3.961   3.350  18.711  0.00  0.00    +0.000 C 
ATOM      3  O   UNL     1       3.229   3.683  17.785  0.00  0.00    +0.000 OA
ATOM      4  N   UNL     1       5.294   3.670  18.855  0.00  0.00    +0.000 N 
ATOM      5  H   UNL     1       3.860   2.787  20.653  0.00  0.00    +0.000 HD
ATOM      6  H   UNL     1       5.829   3.054  19.450  0.00  0.00    +0.000 HD
ENDROOT
BRANCH   4   7
ATOM      7  C   UNL     1       6.017   4.544  18.008  0.00  0.00    +0.000 A 
ATOM      8  C   UNL     1       6.663   5.682  18.490  0.00  0.00    +0.000 A 
ATOM      9  C   UNL     1       7.351   6.520  17.621  0.00  0.00    +0.000 A 
ATOM     10  C   UNL     1       7.410   6.218  16.262  0.00  0.00    +0.000 A 
ATOM     11  C   UNL     1       6.796   5.074  15.729  0.00  0.00    +0.000 A 
ATOM     12  C   UNL     1       6.107   4.244  16.636  0.00  0.00    +0.000 A 
BRANCH  11  13
ATOM     13  N   UNL     1       6.889   4.772  14.376  0.00  0.00    +0.000 N 
ATOM     14  C   UNL     1       7.864   5.431  13.516  0.00  0.00    +0.000 C 
BRANCH  13  15
ATOM     15  C   UNL     1       6.094   3.699  13.770  0.00  0.00    +0.000 C 
ATOM     16  C   UNL     1       6.385   3.576  12.280  0.00  0.00    +0.000 C 
ENDBRANCH  13  15
ENDBRANCH  11  13
ENDBRANCH   4   7
BRANCH   1  17
ATOM     17  C   UNL     1       2.098   2.175  19.707  0.00  0.00    +0.000 C 
BRANCH  17  18
ATOM     18  C   UNL     1       1.240   2.998  20.659  0.00  0.00    +0.000 C 
BRANCH  18  19
ATOM     19  O   UNL     1       1.106   4.333  20.159  0.00  0.00    +0.000 OA
BRANCH  19  20
ATOM     20  C   UNL     1       1.819   5.252  20.985  0.00  0.00    +0.000 C 
BRANCH  20  22
ATOM     21  C   UNL     1       2.558   6.680  19.084  0.00  0.00    +0.000 C 
ATOM     22  C   UNL     1       1.942   6.571  20.270  0.00  0.00    +0.000 C 
ATOM     23  C   UNL     1       1.373   7.771  20.975  0.00  0.00    +0.000 C 
ENDBRANCH  20  22
ENDBRANCH  19  20
ENDBRANCH  18  19
ENDBRANCH  17  18
ENDBRANCH   1  17
TORSDOF 8
ENDMDL
MODEL 8
REMARK VINA RESULT:      -6.0      5.418      7.713
REMARK  Name = 
REMARK  11 active torsions:
REMARK  status: ('A' for Active; 'I' for Inactive)
REMARK    1  A    between atoms: C_2  and  C_3
REMARK    2  A    between atoms: C_2  and  C_4
REMARK    3  A    between atoms: C_4  and  O_5
REMARK    4  A    between atoms: O_5  and  C_6
REMARK    5  A    between atoms: C_6  and  C_7
REMARK    6  A    between atoms: C_7  and  N_8
REMARK    7  A    between atoms: N_11  and  C_12
REMARK    8  A    between atoms: C_16  and  N_17
REMARK    9  A    between atoms: N_17  and  C_18
REMARK   10  A    between atoms: N_17  and  C_19
REMARK   11  A    between atoms: C_19  and  C_20
REMARK                            x       y       z     vdW  Elec       q    Type
REMARK                         _______ _______ _______ _____ _____    ______ ____
ROOT
ATOM      1  N   UNL     1       8.664   8.374  18.770  0.00  0.00    +0.000 N 
ATOM      2  C   UNL     1       7.769   7.746  17.921  0.00  0.00    +0.000 C 
ATOM      3  O   UNL     1       7.124   8.375  17.091  0.00  0.00    +0.000 OA
ATOM      4  N   UNL     1       7.688   6.392  18.165  0.00  0.00    +0.000 N 
ATOM      5  H   UNL     1       9.511   7.850  18.949  0.00  0.00    +0.000 HD
ATOM      6  H   UNL     1       7.998   6.093  19.078  0.00  0.00    +0.000 HD
ENDROOT
BRANCH   4   7
ATOM      7  C   UNL     1       6.921   5.473  17.407  0.00  0.00    +0.000 A 
ATOM      8  C   UNL     1       7.246   5.139  16.093  0.00  0.00    +0.000 A 
ATOM      9  C   UNL     1       6.459   4.242  15.382  0.00  0.00    +0.000 A 
ATOM     10  C   UNL     1       5.344   3.663  15.985  0.00  0.00    +0.000 A 
ATOM     11  C   UNL     1       4.986   3.948  17.312  0.00  0.00    +0.000 A 
ATOM     12  C   UNL     1       5.806   4.860  18.007  0.00  0.00    +0.000 A 
BRANCH  11  13
ATOM     13  N   UNL     1       3.889   3.339  17.907  0.00  0.00    +0.000 N 
ATOM     14  C   UNL     1       3.989   2.706  19.217  0.00  0.00    +0.000 C 
BRANCH  13  15
ATOM     15  C   UNL     1       2.553   3.401  17.305  0.00  0.00    +0.000 C 
ATOM     16  C   UNL     1       1.501   3.776  18.341  0.00  0.00    +0.000 C 
ENDBRANCH  13  15
ENDBRANCH  11  13
ENDBRANCH   4   7
BRANCH   1  17
ATOM     17  C   UNL     1       8.859   9.803  18.575  0.00  0.00    +0.000 C 
BRANCH  17  18
ATOM     18  C   UNL     1       9.572  10.477  19.739  0.00  0.00    +0.000 C 
BRANCH  18  19
ATOM     19  O   UNL     1       9.160  11.845  19.833  0.00  0.00    +0.000 OA
BRANCH  19  20
ATOM     20  C   UNL     1       9.139  12.454  18.543  0.00  0.00    +0.000 C 
BRANCH  20  22
ATOM     21  C   UNL     1      11.206  12.853  17.214  0.00  0.00    +0.000 C 
ATOM     22  C   UNL     1      10.459  13.132  18.292  0.00  0.00    +0.000 C 
ATOM     23  C   UNL     1      10.919  14.111  19.336  0.00  0.00    +0.000 C 
ENDBRANCH  20  22
ENDBRANCH  19  20
ENDBRANCH  18  19
ENDBRANCH  17  18
ENDBRANCH   1  17
TORSDOF 8
ENDMDL
MODEL 9
REMARK VINA RESULT:      -6.0      2.072      2.730
REMARK  Name = 
REMARK  11 active torsions:
REMARK  status: ('A' for Active; 'I' for Inactive)
REMARK    1  A    between atoms: C_2  and  C_3
REMARK    2  A    between atoms: C_2  and  C_4
REMARK    3  A    between atoms: C_4  and  O_5
REMARK    4  A    between atoms: O_5  and  C_6
REMARK    5  A    between atoms: C_6  and  C_7
REMARK    6  A    between atoms: C_7  and  N_8
REMARK    7  A    between atoms: N_11  and  C_12
REMARK    8  A    between atoms: C_16  and  N_17
REMARK    9  A    between atoms: N_17  and  C_18
REMARK   10  A    between atoms: N_17  and  C_19
REMARK   11  A    between atoms: C_19  and  C_20
REMARK                            x       y       z     vdW  Elec       q    Type
REMARK                         _______ _______ _______ _____ _____    ______ ____
ROOT
ATOM      1  N   UNL     1       3.782   2.981  20.730  0.00  0.00    +0.000 N 
ATOM      2  C   UNL     1       4.238   4.018  19.936  0.00  0.00    +0.000 C 
ATOM      3  O   UNL     1       3.719   5.127  19.969  0.00  0.00    +0.000 OA
ATOM      4  N   UNL     1       5.277   3.625  19.119  0.00  0.00    +0.000 N 
ATOM      5  H   UNL     1       4.510   2.386  21.105  0.00  0.00    +0.000 HD
ATOM      6  H   UNL     1       5.352   2.632  18.955  0.00  0.00    +0.000 HD
ENDROOT
BRANCH   4   7
ATOM      7  C   UNL     1       6.002   4.483  18.256  0.00  0.00    +0.000 A 
ATOM      8  C   UNL     1       6.766   5.547  18.734  0.00  0.00    +0.000 A 
ATOM      9  C   UNL     1       7.451   6.371  17.851  0.00  0.00    +0.000 A 
ATOM     10  C   UNL     1       7.388   6.129  16.480  0.00  0.00    +0.000 A 
ATOM     11  C   UNL     1       6.652   5.059  15.948  0.00  0.00    +0.000 A 
ATOM     12  C   UNL     1       5.969   4.240  16.870  0.00  0.00    +0.000 A 
BRANCH  11  13
ATOM     13  N   UNL     1       6.623   4.815  14.581  0.00  0.00    +0.000 N 
ATOM     14  C   UNL     1       7.656   5.337  13.695  0.00  0.00    +0.000 C 
BRANCH  13  15
ATOM     15  C   UNL     1       5.623   3.928  13.978  0.00  0.00    +0.000 C 
ATOM     16  C   UNL     1       6.053   3.482  12.587  0.00  0.00    +0.000 C 
ENDBRANCH  13  15
ENDBRANCH  11  13
ENDBRANCH   4   7
BRANCH   1  17
ATOM     17  C   UNL     1       2.709   3.294  21.663  0.00  0.00    +0.000 C 
BRANCH  17  18
ATOM     18  C   UNL     1       1.410   2.561  21.355  0.00  0.00    +0.000 C 
BRANCH  18  19
ATOM     19  O   UNL     1       1.494   1.949  20.063  0.00  0.00    +0.000 OA
BRANCH  19  20
ATOM     20  C   UNL     1       0.721   2.678  19.111  0.00  0.00    +0.000 C 
BRANCH  20  22
ATOM     21  C   UNL     1       2.483   2.230  17.410  0.00  0.00    +0.000 C 
ATOM     22  C   UNL     1       1.602   3.079  17.958  0.00  0.00    +0.000 C 
ATOM     23  C   UNL     1       1.474   4.498  17.479  0.00  0.00    +0.000 C 
ENDBRANCH  20  22
ENDBRANCH  19  20
ENDBRANCH  18  19
ENDBRANCH  17  18
ENDBRANCH   1  17
TORSDOF 8
ENDMDL
