MODEL 1
REMARK VINA RESULT:      -8.1      0.000      0.000
REMARK  Name = 
REMARK  0 active torsions:
REMARK  status: ('A' for Active; 'I' for Inactive)
REMARK                            x       y       z     vdW  Elec       q    Type
REMARK                         _______ _______ _______ _____ _____    ______ ____
ROOT
ATOM      1  O   UNL     1       5.098   2.207  20.364  0.00  0.00    +0.000 OA
ATOM      2  C   UNL     1       4.550   2.946  19.584  0.00  0.00    +0.000 C 
ATOM      3  C   UNL     1       3.118   2.990  19.211  0.00  0.00    +0.000 A 
ATOM      4  C   UNL     1       2.096   2.186  19.685  0.00  0.00    +0.000 A 
ATOM      5  C   UNL     1       0.809   2.415  19.185  0.00  0.00    +0.000 A 
ATOM      6  C   UNL     1       0.568   3.428  18.234  0.00  0.00    +0.000 A 
ATOM      7  C   UNL     1       1.609   4.233  17.761  0.00  0.00    +0.000 A 
ATOM      8  C   UNL     1       2.874   3.997  18.263  0.00  0.00    +0.000 A 
ATOM      9  C   UNL     1       4.113   4.693  17.938  0.00  0.00    +0.000 A 
ATOM     10  N   UNL     1       4.316   5.673  17.119  0.00  0.00    +0.000 NA
ATOM     11  C   UNL     1       5.631   6.061  17.085  0.00  0.00    +0.000 A 
ATOM     12  N   UNL     1       6.236   7.003  16.392  0.00  0.00    +0.000 NA
ATOM     13  N   UNL     1       7.566   6.956  16.746  0.00  0.00    +0.000 NA
ATOM     14  N   UNL     1       7.796   6.005  17.643  0.00  0.00    +0.000 NA
ATOM     15  N   UNL     1       6.609   5.434  17.870  0.00  0.00    +0.000 N 
ATOM     16  N   UNL     1       6.438   4.397  18.746  0.00  0.00    +0.000 NA
ATOM     17  C   UNL     1       5.192   4.045  18.765  0.00  0.00    +0.000 A 
ENDROOT
TORSDOF 0
ENDMDL
MODEL 2
REMARK VINA RESULT:      -8.1      1.954      2.320
REMARK  Name = 
REMARK  0 active torsions:
REMARK  status: ('A' for Active; 'I' for Inactive)
REMARK                            x       y       z     vdW  Elec       q    Type
REMARK                         _______ _______ _______ _____ _____    ______ ____
ROOT
ATOM      1  O   UNL     1       2.974   6.910  19.586  0.00  0.00    +0.000 OA
ATOM      2  C   UNL     1       3.161   5.885  18.977  0.00  0.00    +0.000 C 
ATOM      3  C   UNL     1       2.376   4.631  19.024  0.00  0.00    +0.000 A 
ATOM      4  C   UNL     1       1.249   4.367  19.781  0.00  0.00    +0.000 A 
ATOM      5  C   UNL     1       0.670   3.099  19.657  0.00  0.00    +0.000 A 
ATOM      6  C   UNL     1       1.220   2.130  18.793  0.00  0.00    +0.000 A 
ATOM      7  C   UNL     1       2.361   2.407  18.033  0.00  0.00    +0.000 A 
ATOM      8  C   UNL     1       2.921   3.663  18.164  0.00  0.00    +0.000 A 
ATOM      9  C   UNL     1       4.098   4.195  17.487  0.00  0.00    +0.000 A 
ATOM     10  N   UNL     1       4.878   3.629  16.625  0.00  0.00    +0.000 NA
ATOM     11  C   UNL     1       5.887   4.460  16.211  0.00  0.00    +0.000 A 
ATOM     12  N   UNL     1       6.871   4.265  15.358  0.00  0.00    +0.000 NA
ATOM     13  N   UNL     1       7.595   5.436  15.320  0.00  0.00    +0.000 NA
ATOM     14  N   UNL     1       7.080   6.351  16.131  0.00  0.00    +0.000 NA
ATOM     15  N   UNL     1       6.017   5.769  16.697  0.00  0.00    +0.000 N 
ATOM     16  N   UNL     1       5.217   6.404  17.606  0.00  0.00    +0.000 NA
ATOM     17  C   UNL     1       4.271   5.606  17.986  0.00  0.00    +0.000 A 
ENDROOT
TORSDOF 0
ENDMDL
MODEL 3
REMARK VINA RESULT:      -8.0      1.129      1.129
REMARK  Name = 
REMARK  0 active torsions:
REMARK  status: ('A' for Active; 'I' for Inactive)
REMARK                            x       y       z     vdW  Elec       q    Type
REMARK                         _______ _______ _______ _____ _____    ______ ____
ROOT
ATOM      1  O   UNL     1       5.229   1.868  20.277  0.00  0.00    +0.000 OA
ATOM      2  C   UNL     1       4.658   2.855  19.884  0.00  0.00    +0.000 C 
ATOM      3  C   UNL     1       3.262   3.275  20.144  0.00  0.00    +0.000 A 
ATOM      4  C   UNL     1       2.309   2.618  20.902  0.00  0.00    +0.000 A 
ATOM      5  C   UNL     1       1.046   3.212  21.008  0.00  0.00    +0.000 A 
ATOM      6  C   UNL     1       0.761   4.433  20.364  0.00  0.00    +0.000 A 
ATOM      7  C   UNL     1       1.731   5.088  19.599  0.00  0.00    +0.000 A 
ATOM      8  C   UNL     1       2.973   4.492  19.503  0.00  0.00    +0.000 A 
ATOM      9  C   UNL     1       4.144   4.968  18.777  0.00  0.00    +0.000 A 
ATOM     10  N   UNL     1       4.292   6.038  18.065  0.00  0.00    +0.000 NA
ATOM     11  C   UNL     1       5.553   6.142  17.536  0.00  0.00    +0.000 A 
ATOM     12  N   UNL     1       6.094   7.065  16.769  0.00  0.00    +0.000 NA
ATOM     13  N   UNL     1       7.391   6.667  16.533  0.00  0.00    +0.000 NA
ATOM     14  N   UNL     1       7.665   5.519  17.139  0.00  0.00    +0.000 NA
ATOM     15  N   UNL     1       6.538   5.171  17.769  0.00  0.00    +0.000 N 
ATOM     16  N   UNL     1       6.423   4.028  18.513  0.00  0.00    +0.000 NA
ATOM     17  C   UNL     1       5.228   3.947  19.004  0.00  0.00    +0.000 A 
ENDROOT
TORSDOF 0
ENDMDL
MODEL 4
REMARK VINA RESULT:      -8.0      2.093      2.377
REMARK  Name = 
REMARK  0 active torsions:
REMARK  status: ('A' for Active; 'I' for Inactive)
REMARK                            x       y       z     vdW  Elec       q    Type
REMARK                         _______ _______ _______ _____ _____    ______ ____
ROOT
ATOM      1  O   UNL     1       2.498   2.067  17.123  0.00  0.00    +0.000 OA
ATOM      2  C   UNL     1       2.931   3.109  17.550  0.00  0.00    +0.000 C 
ATOM      3  C   UNL     1       2.411   3.933  18.665  0.00  0.00    +0.000 A 
ATOM      4  C   UNL     1       1.309   3.678  19.462  0.00  0.00    +0.000 A 
ATOM      5  C   UNL     1       1.008   4.607  20.465  0.00  0.00    +0.000 A 
ATOM      6  C   UNL     1       1.801   5.758  20.650  0.00  0.00    +0.000 A 
ATOM      7  C   UNL     1       2.912   6.006  19.838  0.00  0.00    +0.000 A 
ATOM      8  C   UNL     1       3.198   5.081  18.853  0.00  0.00    +0.000 A 
ATOM      9  C   UNL     1       4.290   5.107  17.888  0.00  0.00    +0.000 A 
ATOM     10  N   UNL     1       5.228   5.984  17.729  0.00  0.00    +0.000 NA
ATOM     11  C   UNL     1       6.080   5.656  16.706  0.00  0.00    +0.000 A 
ATOM     12  N   UNL     1       7.141   6.277  16.233  0.00  0.00    +0.000 NA
ATOM     13  N   UNL     1       7.618   5.503  15.199  0.00  0.00    +0.000 NA
ATOM     14  N   UNL     1       6.876   4.417  15.021  0.00  0.00    +0.000 NA
ATOM     15  N   UNL     1       5.912   4.490  15.945  0.00  0.00    +0.000 N 
ATOM     16  N   UNL     1       4.938   3.539  16.080  0.00  0.00    +0.000 NA
ATOM     17  C   UNL     1       4.144   3.864  17.049  0.00  0.00    +0.000 A 
ENDROOT
TORSDOF 0
ENDMDL
MODEL 5
REMARK VINA RESULT:      -7.9      2.125      2.799
REMARK  Name = 
REMARK  0 active torsions:
REMARK  status: ('A' for Active; 'I' for Inactive)
REMARK                            x       y       z     vdW  Elec       q    Type
REMARK                         _______ _______ _______ _____ _____    ______ ____
ROOT
ATOM      1  O   UNL     1       2.147   7.200  19.259  0.00  0.00    +0.000 OA
ATOM      2  C   UNL     1       2.810   6.193  19.259  0.00  0.00    +0.000 C 
ATOM      3  C   UNL     1       2.569   4.934  20.000  0.00  0.00    +0.000 A 
ATOM      4  C   UNL     1       1.520   4.643  20.854  0.00  0.00    +0.000 A 
ATOM      5  C   UNL     1       1.500   3.374  21.443  0.00  0.00    +0.000 A 
ATOM      6  C   UNL     1       2.513   2.431  21.174  0.00  0.00    +0.000 A 
ATOM      7  C   UNL     1       3.569   2.736  20.310  0.00  0.00    +0.000 A 
ATOM      8  C   UNL     1       3.576   3.991  19.734  0.00  0.00    +0.000 A 
ATOM      9  C   UNL     1       4.554   4.547  18.806  0.00  0.00    +0.000 A 
ATOM     10  N   UNL     1       5.622   4.008  18.314  0.00  0.00    +0.000 NA
ATOM     11  C   UNL     1       6.289   4.854  17.466  0.00  0.00    +0.000 A 
ATOM     12  N   UNL     1       7.399   4.686  16.777  0.00  0.00    +0.000 NA
ATOM     13  N   UNL     1       7.614   5.861  16.092  0.00  0.00    +0.000 NA
ATOM     14  N   UNL     1       6.662   6.751  16.341  0.00  0.00    +0.000 NA
ATOM     15  N   UNL     1       5.827   6.149  17.193  0.00  0.00    +0.000 N 
ATOM     16  N   UNL     1       4.706   6.756  17.690  0.00  0.00    +0.000 NA
ATOM     17  C   UNL     1       4.089   5.945  18.488  0.00  0.00    +0.000 A 
ENDROOT
TORSDOF 0
ENDMDL
MODEL 6
REMARK VINA RESULT:      -7.8      1.851      2.770
REMARK  Name = 
REMARK  0 active torsions:
REMARK  status: ('A' for Active; 'I' for Inactive)
REMARK                            x       y       z     vdW  Elec       q    Type
REMARK                         _______ _______ _______ _____ _____    ______ ____
ROOT
ATOM      1  O   UNL     1       1.191   4.594  17.153  0.00  0.00    +0.000 OA
ATOM      2  C   UNL     1       2.131   4.311  17.854  0.00  0.00    +0.000 C 
ATOM      3  C   UNL     1       2.124   3.668  19.187  0.00  0.00    +0.000 A 
ATOM      4  C   UNL     1       1.027   3.248  19.917  0.00  0.00    +0.000 A 
ATOM      5  C   UNL     1       1.267   2.658  21.163  0.00  0.00    +0.000 A 
ATOM      6  C   UNL     1       2.580   2.502  21.652  0.00  0.00    +0.000 A 
ATOM      7  C   UNL     1       3.682   2.932  20.907  0.00  0.00    +0.000 A 
ATOM      8  C   UNL     1       3.431   3.510  19.678  0.00  0.00    +0.000 A 
ATOM      9  C   UNL     1       4.396   4.032  18.718  0.00  0.00    +0.000 A 
ATOM     10  N   UNL     1       5.687   4.075  18.788  0.00  0.00    +0.000 NA
ATOM     11  C   UNL     1       6.251   4.644  17.676  0.00  0.00    +0.000 A 
ATOM     12  N   UNL     1       7.511   4.870  17.367  0.00  0.00    +0.000 NA
ATOM     13  N   UNL     1       7.507   5.468  16.126  0.00  0.00    +0.000 NA
ATOM     14  N   UNL     1       6.274   5.615  15.660  0.00  0.00    +0.000 NA
ATOM     15  N   UNL     1       5.474   5.112  16.607  0.00  0.00    +0.000 N 
ATOM     16  N   UNL     1       4.111   5.085  16.492  0.00  0.00    +0.000 NA
ATOM     17  C   UNL     1       3.596   4.545  17.549  0.00  0.00    +0.000 A 
ENDROOT
TORSDOF 0
ENDMDL
MODEL 7
REMARK VINA RESULT:      -7.7      3.077      5.254
REMARK  Name = 
REMARK  0 active torsions:
REMARK  status: ('A' for Active; 'I' for Inactive)
REMARK                            x       y       z     vdW  Elec       q    Type
REMARK                         _______ _______ _______ _____ _____    ______ ____
ROOT
ATOM      1  O   UNL     1       6.345   5.097  19.754  0.00  0.00    +0.000 OA
ATOM      2  C   UNL     1       5.692   4.708  18.818  0.00  0.00    +0.000 C 
ATOM      3  C   UNL     1       6.063   4.686  17.385  0.00  0.00    +0.000 A 
ATOM      4  C   UNL     1       7.249   5.109  16.812  0.00  0.00    +0.000 A 
ATOM      5  C   UNL     1       7.375   4.987  15.423  0.00  0.00    +0.000 A 
ATOM      6  C   UNL     1       6.329   4.454  14.642  0.00  0.00    +0.000 A 
ATOM      7  C   UNL     1       5.134   4.031  15.231  0.00  0.00    +0.000 A 
ATOM      8  C   UNL     1       5.023   4.155  16.602  0.00  0.00    +0.000 A 
ATOM      9  C   UNL     1       3.894   3.788  17.448  0.00  0.00    +0.000 A 
ATOM     10  N   UNL     1       2.754   3.272  17.122  0.00  0.00    +0.000 NA
ATOM     11  C   UNL     1       1.944   3.066  18.209  0.00  0.00    +0.000 A 
ATOM     12  N   UNL     1       0.727   2.570  18.297  0.00  0.00    +0.000 NA
ATOM     13  N   UNL     1       0.392   2.593  19.632  0.00  0.00    +0.000 NA
ATOM     14  N   UNL     1       1.374   3.092  20.372  0.00  0.00    +0.000 NA
ATOM     15  N   UNL     1       2.350   3.395  19.509  0.00  0.00    +0.000 N 
ATOM     16  N   UNL     1       3.543   3.941  19.898  0.00  0.00    +0.000 NA
ATOM     17  C   UNL     1       4.294   4.128  18.861  0.00  0.00    +0.000 A 
ENDROOT
TORSDOF 0
ENDMDL
MODEL 8
REMARK VINA RESULT:      -7.6      1.762      2.340
REMARK  Name = 
REMARK  0 active torsions:
REMARK  status: ('A' for Active; 'I' for Inactive)
REMARK                            x       y       z     vdW  Elec       q    Type
REMARK                         _______ _______ _______ _____ _____    ______ ____
ROOT
ATOM      1  O   UNL     1       2.233   2.957  16.398  0.00  0.00    +0.000 OA
ATOM      2  C   UNL     1       2.755   3.481  17.350  0.00  0.00    +0.000 C 
ATOM      3  C   UNL     1       2.324   3.454  18.766  0.00  0.00    +0.000 A 
ATOM      4  C   UNL     1       1.221   2.814  19.302  0.00  0.00    +0.000 A 
ATOM      5  C   UNL     1       1.015   2.927  20.682  0.00  0.00    +0.000 A 
ATOM      6  C   UNL     1       1.900   3.669  21.490  0.00  0.00    +0.000 A 
ATOM      7  C   UNL     1       3.011   4.314  20.938  0.00  0.00    +0.000 A 
ATOM      8  C   UNL     1       3.203   4.193  19.576  0.00  0.00    +0.000 A 
ATOM      9  C   UNL     1       4.275   4.761  18.767  0.00  0.00    +0.000 A 
ATOM     10  N   UNL     1       5.276   5.497  19.126  0.00  0.00    +0.000 NA
ATOM     11  C   UNL     1       6.079   5.838  18.068  0.00  0.00    +0.000 A 
ATOM     12  N   UNL     1       7.176   6.564  18.016  0.00  0.00    +0.000 NA
ATOM     13  N   UNL     1       7.570   6.582  16.696  0.00  0.00    +0.000 NA
ATOM     14  N   UNL     1       6.741   5.883  15.932  0.00  0.00    +0.000 NA
ATOM     15  N   UNL     1       5.804   5.411  16.761  0.00  0.00    +0.000 N 
ATOM     16  N   UNL     1       4.761   4.634  16.339  0.00  0.00    +0.000 NA
ATOM     17  C   UNL     1       4.014   4.323  17.349  0.00  0.00    +0.000 A 
ENDROOT
TORSDOF 0
ENDMDL
MODEL 9
REMARK VINA RESULT:      -7.6      2.214      2.546
REMARK  Name = 
REMARK  0 active torsions:
REMARK  status: ('A' for Active; 'I' for Inactive)
REMARK                            x       y       z     vdW  Elec       q    Type
REMARK                         _______ _______ _______ _____ _____    ______ ____
ROOT
ATOM      1  O   UNL     1       6.369   5.134  19.729  0.00  0.00    +0.000 OA
ATOM      2  C   UNL     1       5.745   4.633  18.827  0.00  0.00    +0.000 C 
ATOM      3  C   UNL     1       4.495   3.844  18.901  0.00  0.00    +0.000 A 
ATOM      4  C   UNL     1       3.770   3.512  20.032  0.00  0.00    +0.000 A 
ATOM      5  C   UNL     1       2.608   2.753  19.855  0.00  0.00    +0.000 A 
ATOM      6  C   UNL     1       2.196   2.343  18.570  0.00  0.00    +0.000 A 
ATOM      7  C   UNL     1       2.937   2.683  17.434  0.00  0.00    +0.000 A 
ATOM      8  C   UNL     1       4.081   3.433  17.623  0.00  0.00    +0.000 A 
ATOM      9  C   UNL     1       5.015   3.915  16.612  0.00  0.00    +0.000 A 
ATOM     10  N   UNL     1       4.994   3.755  15.329  0.00  0.00    +0.000 NA
ATOM     11  C   UNL     1       6.056   4.364  14.711  0.00  0.00    +0.000 A 
ATOM     12  N   UNL     1       6.391   4.432  13.439  0.00  0.00    +0.000 NA
ATOM     13  N   UNL     1       7.553   5.168  13.380  0.00  0.00    +0.000 NA
ATOM     14  N   UNL     1       7.943   5.558  14.587  0.00  0.00    +0.000 NA
ATOM     15  N   UNL     1       7.029   5.069  15.431  0.00  0.00    +0.000 N 
ATOM     16  N   UNL     1       7.089   5.262  16.784  0.00  0.00    +0.000 NA
ATOM     17  C   UNL     1       6.081   4.681  17.352  0.00  0.00    +0.000 A 
ENDROOT
TORSDOF 0
ENDMDL
