MODEL 1
REMARK VINA RESULT:      -7.4      0.000      0.000
REMARK  Name = 
REMARK  2 active torsions:
REMARK  status: ('A' for Active; 'I' for Inactive)
REMARK    1  A    between atoms: C_1  and  C_2
REMARK    2  A    between atoms: C_7  and  C_8
REMARK                            x       y       z     vdW  Elec       q    Type
REMARK                         _______ _______ _______ _____ _____    ______ ____
ROOT
ATOM      1  C   UNL     1       3.981   3.956  18.150  0.00  0.00    +0.000 A 
ATOM      2  N   UNL     1       3.819   3.709  16.861  0.00  0.00    +0.000 NA
ATOM      3  C   UNL     1       4.982   4.147  16.285  0.00  0.00    +0.000 A 
ATOM      4  C   UNL     1       5.401   4.142  14.949  0.00  0.00    +0.000 A 
ATOM      5  C   UNL     1       6.667   4.668  14.668  0.00  0.00    +0.000 A 
ATOM      6 CL   UNL     1       7.224   4.684  13.037  0.00  0.00    +0.000 Cl
ATOM      7  C   UNL     1       7.493   5.181  15.677  0.00  0.00    +0.000 A 
ATOM      8  C   UNL     1       7.083   5.188  17.016  0.00  0.00    +0.000 A 
ATOM      9  C   UNL     1       5.821   4.660  17.258  0.00  0.00    +0.000 A 
ATOM     10  O   UNL     1       5.187   4.544  18.458  0.00  0.00    +0.000 OA
ENDROOT
BRANCH   1  17
ATOM     11  C   UNL     1       4.669   1.915  20.250  0.00  0.00    +0.000 C 
ATOM     12  C   UNL     1       3.399   2.726  20.280  0.00  0.00    +0.000 A 
ATOM     13  C   UNL     1       2.505   2.515  21.347  0.00  0.00    +0.000 A 
ATOM     14  C   UNL     1       1.311   3.227  21.436  0.00  0.00    +0.000 A 
ATOM     15  C   UNL     1       0.987   4.156  20.457  0.00  0.00    +0.000 A 
ATOM     16  C   UNL     1       1.862   4.376  19.390  0.00  0.00    +0.000 A 
ATOM     17  C   UNL     1       3.081   3.676  19.280  0.00  0.00    +0.000 A 
ENDBRANCH   1  17
TORSDOF 1
ENDMDL
MODEL 2
REMARK VINA RESULT:      -7.3      0.771      1.744
REMARK  Name = 
REMARK  2 active torsions:
REMARK  status: ('A' for Active; 'I' for Inactive)
REMARK    1  A    between atoms: C_1  and  C_2
REMARK    2  A    between atoms: C_7  and  C_8
REMARK                            x       y       z     vdW  Elec       q    Type
REMARK                         _______ _______ _______ _____ _____    ______ ____
ROOT
ATOM      1  C   UNL     1       4.249   4.089  18.070  0.00  0.00    +0.000 A 
ATOM      2  N   UNL     1       3.926   3.759  16.831  0.00  0.00    +0.000 NA
ATOM      3  C   UNL     1       5.031   4.092  16.093  0.00  0.00    +0.000 A 
ATOM      4  C   UNL     1       5.290   3.969  14.723  0.00  0.00    +0.000 A 
ATOM      5  C   UNL     1       6.536   4.406  14.259  0.00  0.00    +0.000 A 
ATOM      6 CL   UNL     1       6.897   4.275  12.578  0.00  0.00    +0.000 Cl
ATOM      7  C   UNL     1       7.496   4.946  15.124  0.00  0.00    +0.000 A 
ATOM      8  C   UNL     1       7.247   5.071  16.497  0.00  0.00    +0.000 A 
ATOM      9  C   UNL     1       6.001   4.629  16.922  0.00  0.00    +0.000 A 
ATOM     10  O   UNL     1       5.508   4.633  18.192  0.00  0.00    +0.000 OA
ENDROOT
BRANCH   1  17
ATOM     11  C   UNL     1       2.544   6.319  19.149  0.00  0.00    +0.000 C 
ATOM     12  C   UNL     1       2.663   4.977  19.824  0.00  0.00    +0.000 A 
ATOM     13  C   UNL     1       1.933   4.767  21.011  0.00  0.00    +0.000 A 
ATOM     14  C   UNL     1       1.999   3.553  21.690  0.00  0.00    +0.000 A 
ATOM     15  C   UNL     1       2.801   2.530  21.199  0.00  0.00    +0.000 A 
ATOM     16  C   UNL     1       3.532   2.723  20.025  0.00  0.00    +0.000 A 
ATOM     17  C   UNL     1       3.478   3.939  19.313  0.00  0.00    +0.000 A 
ENDBRANCH   1  17
TORSDOF 1
ENDMDL
MODEL 3
REMARK VINA RESULT:      -7.0      2.909      6.263
REMARK  Name = 
REMARK  2 active torsions:
REMARK  status: ('A' for Active; 'I' for Inactive)
REMARK    1  A    between atoms: C_1  and  C_2
REMARK    2  A    between atoms: C_7  and  C_8
REMARK                            x       y       z     vdW  Elec       q    Type
REMARK                         _______ _______ _______ _____ _____    ______ ____
ROOT
ATOM      1  C   UNL     1       4.601   4.149  17.511  0.00  0.00    +0.000 A 
ATOM      2  N   UNL     1       4.363   3.038  18.186  0.00  0.00    +0.000 NA
ATOM      3  C   UNL     1       3.451   3.409  19.139  0.00  0.00    +0.000 A 
ATOM      4  C   UNL     1       2.817   2.664  20.140  0.00  0.00    +0.000 A 
ATOM      5  C   UNL     1       1.919   3.338  20.974  0.00  0.00    +0.000 A 
ATOM      6 CL   UNL     1       1.116   2.461  22.223  0.00  0.00    +0.000 Cl
ATOM      7  C   UNL     1       1.653   4.705  20.821  0.00  0.00    +0.000 A 
ATOM      8  C   UNL     1       2.281   5.458  19.820  0.00  0.00    +0.000 A 
ATOM      9  C   UNL     1       3.167   4.758  19.012  0.00  0.00    +0.000 A 
ATOM     10  O   UNL     1       3.902   5.242  17.972  0.00  0.00    +0.000 OA
ENDROOT
BRANCH   1  17
ATOM     11  C   UNL     1       7.437   5.102  17.821  0.00  0.00    +0.000 C 
ATOM     12  C   UNL     1       6.811   4.810  16.481  0.00  0.00    +0.000 A 
ATOM     13  C   UNL     1       7.603   4.990  15.330  0.00  0.00    +0.000 A 
ATOM     14  C   UNL     1       7.089   4.743  14.059  0.00  0.00    +0.000 A 
ATOM     15  C   UNL     1       5.774   4.319  13.917  0.00  0.00    +0.000 A 
ATOM     16  C   UNL     1       4.975   4.138  15.048  0.00  0.00    +0.000 A 
ATOM     17  C   UNL     1       5.472   4.373  16.347  0.00  0.00    +0.000 A 
ENDBRANCH   1  17
TORSDOF 1
ENDMDL
MODEL 4
REMARK VINA RESULT:      -6.9      5.029      7.123
REMARK  Name = 
REMARK  2 active torsions:
REMARK  status: ('A' for Active; 'I' for Inactive)
REMARK    1  A    between atoms: C_1  and  C_2
REMARK    2  A    between atoms: C_7  and  C_8
REMARK                            x       y       z     vdW  Elec       q    Type
REMARK                         _______ _______ _______ _____ _____    ______ ____
ROOT
ATOM      1  C   UNL     1       2.573   7.123  18.806  0.00  0.00    +0.000 A 
ATOM      2  N   UNL     1       2.276   7.034  20.091  0.00  0.00    +0.000 NA
ATOM      3  C   UNL     1       1.515   8.145  20.341  0.00  0.00    +0.000 A 
ATOM      4  C   UNL     1       0.903   8.592  21.518  0.00  0.00    +0.000 A 
ATOM      5  C   UNL     1       0.178   9.787  21.455  0.00  0.00    +0.000 A 
ATOM      6 CL   UNL     1      -0.591  10.375  22.882  0.00  0.00    +0.000 Cl
ATOM      7  C   UNL     1       0.059  10.516  20.265  0.00  0.00    +0.000 A 
ATOM      8  C   UNL     1       0.666  10.076  19.081  0.00  0.00    +0.000 A 
ATOM      9  C   UNL     1       1.379   8.888  19.181  0.00  0.00    +0.000 A 
ATOM     10  O   UNL     1       2.056   8.241  18.191  0.00  0.00    +0.000 OA
ENDROOT
BRANCH   1  17
ATOM     11  C   UNL     1       1.732   4.263  18.404  0.00  0.00    +0.000 C 
ATOM     12  C   UNL     1       2.950   4.860  17.748  0.00  0.00    +0.000 A 
ATOM     13  C   UNL     1       3.719   4.033  16.906  0.00  0.00    +0.000 A 
ATOM     14  C   UNL     1       4.860   4.516  16.271  0.00  0.00    +0.000 A 
ATOM     15  C   UNL     1       5.257   5.832  16.471  0.00  0.00    +0.000 A 
ATOM     16  C   UNL     1       4.507   6.665  17.305  0.00  0.00    +0.000 A 
ATOM     17  C   UNL     1       3.342   6.204  17.954  0.00  0.00    +0.000 A 
ENDBRANCH   1  17
TORSDOF 1
ENDMDL
MODEL 5
REMARK VINA RESULT:      -6.9      2.675      3.127
REMARK  Name = 
REMARK  2 active torsions:
REMARK  status: ('A' for Active; 'I' for Inactive)
REMARK    1  A    between atoms: C_1  and  C_2
REMARK    2  A    between atoms: C_7  and  C_8
REMARK                            x       y       z     vdW  Elec       q    Type
REMARK                         _______ _______ _______ _____ _____    ______ ____
ROOT
ATOM      1  C   UNL     1       4.076   4.820  18.576  0.00  0.00    +0.000 A 
ATOM      2  N   UNL     1       4.206   5.892  17.814  0.00  0.00    +0.000 NA
ATOM      3  C   UNL     1       5.497   6.299  18.020  0.00  0.00    +0.000 A 
ATOM      4  C   UNL     1       6.217   7.372  17.481  0.00  0.00    +0.000 A 
ATOM      5  C   UNL     1       7.545   7.530  17.893  0.00  0.00    +0.000 A 
ATOM      6 CL   UNL     1       8.469   8.839  17.256  0.00  0.00    +0.000 Cl
ATOM      7  C   UNL     1       8.143   6.654  18.807  0.00  0.00    +0.000 A 
ATOM      8  C   UNL     1       7.431   5.576  19.350  0.00  0.00    +0.000 A 
ATOM      9  C   UNL     1       6.117   5.450  18.921  0.00  0.00    +0.000 A 
ATOM     10  O   UNL     1       5.212   4.499  19.285  0.00  0.00    +0.000 OA
ENDROOT
BRANCH   1  17
ATOM     11  C   UNL     1       1.887   5.439  20.544  0.00  0.00    +0.000 C 
ATOM     12  C   UNL     1       1.879   4.214  19.667  0.00  0.00    +0.000 A 
ATOM     13  C   UNL     1       0.789   3.329  19.778  0.00  0.00    +0.000 A 
ATOM     14  C   UNL     1       0.717   2.175  19.002  0.00  0.00    +0.000 A 
ATOM     15  C   UNL     1       1.737   1.882  18.106  0.00  0.00    +0.000 A 
ATOM     16  C   UNL     1       2.827   2.748  17.985  0.00  0.00    +0.000 A 
ATOM     17  C   UNL     1       2.921   3.927  18.752  0.00  0.00    +0.000 A 
ENDBRANCH   1  17
TORSDOF 1
ENDMDL
MODEL 6
REMARK VINA RESULT:      -6.8      4.756      6.845
REMARK  Name = 
REMARK  2 active torsions:
REMARK  status: ('A' for Active; 'I' for Inactive)
REMARK    1  A    between atoms: C_1  and  C_2
REMARK    2  A    between atoms: C_7  and  C_8
REMARK                            x       y       z     vdW  Elec       q    Type
REMARK                         _______ _______ _______ _____ _____    ______ ____
ROOT
ATOM      1  C   UNL     1       2.785   7.161  18.385  0.00  0.00    +0.000 A 
ATOM      2  N   UNL     1       2.221   8.234  17.856  0.00  0.00    +0.000 NA
ATOM      3  C   UNL     1       1.556   8.817  18.902  0.00  0.00    +0.000 A 
ATOM      4  C   UNL     1       0.785   9.984  18.962  0.00  0.00    +0.000 A 
ATOM      5  C   UNL     1       0.225  10.325  20.198  0.00  0.00    +0.000 A 
ATOM      6 CL   UNL     1      -0.734  11.753  20.317  0.00  0.00    +0.000 Cl
ATOM      7  C   UNL     1       0.424   9.538  21.340  0.00  0.00    +0.000 A 
ATOM      8  C   UNL     1       1.197   8.371  21.290  0.00  0.00    +0.000 A 
ATOM      9  C   UNL     1       1.735   8.062  20.048  0.00  0.00    +0.000 A 
ATOM     10  O   UNL     1       2.520   6.996  19.726  0.00  0.00    +0.000 OA
ENDROOT
BRANCH   1  17
ATOM     11  C   UNL     1       1.843   4.346  17.901  0.00  0.00    +0.000 C 
ATOM     12  C   UNL     1       3.218   4.828  17.517  0.00  0.00    +0.000 A 
ATOM     13  C   UNL     1       4.090   3.911  16.899  0.00  0.00    +0.000 A 
ATOM     14  C   UNL     1       5.377   4.287  16.521  0.00  0.00    +0.000 A 
ATOM     15  C   UNL     1       5.816   5.583  16.760  0.00  0.00    +0.000 A 
ATOM     16  C   UNL     1       4.964   6.503  17.374  0.00  0.00    +0.000 A 
ATOM     17  C   UNL     1       3.654   6.152  17.760  0.00  0.00    +0.000 A 
ENDBRANCH   1  17
TORSDOF 1
ENDMDL
MODEL 7
REMARK VINA RESULT:      -6.8      4.431      6.684
REMARK  Name = 
REMARK  2 active torsions:
REMARK  status: ('A' for Active; 'I' for Inactive)
REMARK    1  A    between atoms: C_1  and  C_2
REMARK    2  A    between atoms: C_7  and  C_8
REMARK                            x       y       z     vdW  Elec       q    Type
REMARK                         _______ _______ _______ _____ _____    ______ ____
ROOT
ATOM      1  C   UNL     1       3.448   6.625  18.293  0.00  0.00    +0.000 A 
ATOM      2  N   UNL     1       3.032   6.427  19.532  0.00  0.00    +0.000 NA
ATOM      3  C   UNL     1       2.171   7.465  19.770  0.00  0.00    +0.000 A 
ATOM      4  C   UNL     1       1.414   7.788  20.902  0.00  0.00    +0.000 A 
ATOM      5  C   UNL     1       0.614   8.934  20.839  0.00  0.00    +0.000 A 
ATOM      6 CL   UNL     1      -0.335   9.369  22.211  0.00  0.00    +0.000 Cl
ATOM      7  C   UNL     1       0.563   9.735  19.691  0.00  0.00    +0.000 A 
ATOM      8  C   UNL     1       1.315   9.419  18.552  0.00  0.00    +0.000 A 
ATOM      9  C   UNL     1       2.098   8.277  18.651  0.00  0.00    +0.000 A 
ATOM     10  O   UNL     1       2.916   7.747  17.699  0.00  0.00    +0.000 OA
ENDROOT
BRANCH   1  17
ATOM     11  C   UNL     1       2.755   3.826  17.435  0.00  0.00    +0.000 C 
ATOM     12  C   UNL     1       4.044   4.507  17.051  0.00  0.00    +0.000 A 
ATOM     13  C   UNL     1       4.954   3.792  16.248  0.00  0.00    +0.000 A 
ATOM     14  C   UNL     1       6.167   4.357  15.859  0.00  0.00    +0.000 A 
ATOM     15  C   UNL     1       6.493   5.642  16.271  0.00  0.00    +0.000 A 
ATOM     16  C   UNL     1       5.601   6.364  17.069  0.00  0.00    +0.000 A 
ATOM     17  C   UNL     1       4.364   5.820  17.470  0.00  0.00    +0.000 A 
ENDBRANCH   1  17
TORSDOF 1
ENDMDL
MODEL 8
REMARK VINA RESULT:      -6.8      2.879      6.418
REMARK  Name = 
REMARK  2 active torsions:
REMARK  status: ('A' for Active; 'I' for Inactive)
REMARK    1  A    between atoms: C_1  and  C_2
REMARK    2  A    between atoms: C_7  and  C_8
REMARK                            x       y       z     vdW  Elec       q    Type
REMARK                         _______ _______ _______ _____ _____    ______ ____
ROOT
ATOM      1  C   UNL     1       4.708   4.050  16.973  0.00  0.00    +0.000 A 
ATOM      2  N   UNL     1       4.986   3.553  18.166  0.00  0.00    +0.000 NA
ATOM      3  C   UNL     1       3.770   3.477  18.793  0.00  0.00    +0.000 A 
ATOM      4  C   UNL     1       3.423   3.023  20.071  0.00  0.00    +0.000 A 
ATOM      5  C   UNL     1       2.071   3.071  20.428  0.00  0.00    +0.000 A 
ATOM      6 CL   UNL     1       1.599   2.523  21.993  0.00  0.00    +0.000 Cl
ATOM      7  C   UNL     1       1.093   3.553  19.549  0.00  0.00    +0.000 A 
ATOM      8  C   UNL     1       1.430   4.008  18.267  0.00  0.00    +0.000 A 
ATOM      9  C   UNL     1       2.779   3.946  17.947  0.00  0.00    +0.000 A 
ATOM     10  O   UNL     1       3.372   4.318  16.778  0.00  0.00    +0.000 OA
ENDROOT
BRANCH   1  17
ATOM     11  C   UNL     1       7.034   5.940  17.230  0.00  0.00    +0.000 C 
ATOM     12  C   UNL     1       6.708   5.209  15.954  0.00  0.00    +0.000 A 
ATOM     13  C   UNL     1       7.542   5.424  14.839  0.00  0.00    +0.000 A 
ATOM     14  C   UNL     1       7.298   4.785  13.625  0.00  0.00    +0.000 A 
ATOM     15  C   UNL     1       6.214   3.925  13.503  0.00  0.00    +0.000 A 
ATOM     16  C   UNL     1       5.376   3.703  14.599  0.00  0.00    +0.000 A 
ATOM     17  C   UNL     1       5.605   4.330  15.841  0.00  0.00    +0.000 A 
ENDBRANCH   1  17
TORSDOF 1
ENDMDL
MODEL 9
REMARK VINA RESULT:      -6.6      4.164      6.605
REMARK  Name = 
REMARK  2 active torsions:
REMARK  status: ('A' for Active; 'I' for Inactive)
REMARK    1  A    between atoms: C_1  and  C_2
REMARK    2  A    between atoms: C_7  and  C_8
REMARK                            x       y       z     vdW  Elec       q    Type
REMARK                         _______ _______ _______ _____ _____    ______ ____
ROOT
ATOM      1  C   UNL     1       3.977   6.424  17.856  0.00  0.00    +0.000 A 
ATOM      2  N   UNL     1       3.508   6.176  19.068  0.00  0.00    +0.000 NA
ATOM      3  C   UNL     1       2.631   7.200  19.307  0.00  0.00    +0.000 A 
ATOM      4  C   UNL     1       1.823   7.474  20.417  0.00  0.00    +0.000 A 
ATOM      5  C   UNL     1       1.018   8.617  20.362  0.00  0.00    +0.000 A 
ATOM      6 CL   UNL     1       0.007   8.995  21.707  0.00  0.00    +0.000 Cl
ATOM      7  C   UNL     1       1.010   9.461  19.244  0.00  0.00    +0.000 A 
ATOM      8  C   UNL     1       1.814   9.194  18.128  0.00  0.00    +0.000 A 
ATOM      9  C   UNL     1       2.600   8.053  18.217  0.00  0.00    +0.000 A 
ATOM     10  O   UNL     1       3.463   7.565  17.282  0.00  0.00    +0.000 OA
ENDROOT
BRANCH   1  17
ATOM     11  C   UNL     1       6.803   7.363  17.434  0.00  0.00    +0.000 C 
ATOM     12  C   UNL     1       6.268   6.082  16.848  0.00  0.00    +0.000 A 
ATOM     13  C   UNL     1       7.143   5.295  16.074  0.00  0.00    +0.000 A 
ATOM     14  C   UNL     1       6.715   4.101  15.498  0.00  0.00    +0.000 A 
ATOM     15  C   UNL     1       5.405   3.677  15.679  0.00  0.00    +0.000 A 
ATOM     16  C   UNL     1       4.524   4.447  16.442  0.00  0.00    +0.000 A 
ATOM     17  C   UNL     1       4.933   5.656  17.044  0.00  0.00    +0.000 A 
ENDBRANCH   1  17
TORSDOF 1
ENDMDL
