MODEL 1
REMARK VINA RESULT:      -8.4      0.000      0.000
REMARK  Name = 
REMARK  11 active torsions:
REMARK  status: ('A' for Active; 'I' for Inactive)
REMARK    1  A    between atoms: C_1  and  N_2
REMARK    2  A    between atoms: N_2  and  C_19
REMARK    3  A    between atoms: N_5  and  C_6
REMARK    4  A    between atoms: C_6  and  C_7
REMARK    5  A    between atoms: C_10  and  C_11
REMARK    6  A    between atoms: C_11  and  O_12
REMARK    7  A    between atoms: O_12  and  C_13
REMARK    8  A    between atoms: C_13  and  C_14
REMARK    9  A    between atoms: C_14  and  O_16
REMARK   10  A    between atoms: C_19  and  C_20
REMARK   11  A    between atoms: C_19  and  C_26
REMARK                            x       y       z     vdW  Elec       q    Type
REMARK                         _______ _______ _______ _____ _____    ______ ____
ROOT
ATOM      1  C   UNL     1       2.265   6.439  20.144  0.00  0.00    +0.000 C 
ATOM      2  N   UNL     1       2.569   6.828  18.772  0.00  0.00    +0.000 N 
ATOM      3  C   UNL     1       2.163   8.030  18.195  0.00  0.00    +0.000 C 
ATOM      4  O   UNL     1       2.280   8.316  17.012  0.00  0.00    +0.000 OA
ATOM      5  N   UNL     1       1.661   8.937  19.091  0.00  0.00    +0.000 N 
ATOM      6  H   UNL     1       2.132   8.916  19.982  0.00  0.00    +0.000 HD
ENDROOT
BRANCH   5   7
ATOM      7  C   UNL     1       1.229  10.256  18.667  0.00  0.00    +0.000 C 
BRANCH   7   8
ATOM      8  C   UNL     1      -0.301  10.363  18.701  0.00  0.00    +0.000 C 
ATOM      9  C   UNL     1      -0.761  11.817  18.901  0.00  0.00    +0.000 C 
ATOM     10  C   UNL     1      -2.276  11.954  18.833  0.00  0.00    +0.000 C 
ATOM     11  C   UNL     1      -2.827  11.384  17.518  0.00  0.00    +0.000 C 
ATOM     12  C   UNL     1      -2.420   9.916  17.369  0.00  0.00    +0.000 C 
ATOM     13  C   UNL     1      -0.900   9.759  17.422  0.00  0.00    +0.000 C 
BRANCH  11  14
ATOM     14  C   UNL     1      -4.344  11.567  17.436  0.00  0.00    +0.000 C 
BRANCH  14  15
ATOM     15  O   UNL     1      -4.941  10.623  18.329  0.00  0.00    +0.000 OA
BRANCH  15  16
ATOM     16  C   UNL     1      -6.310  10.938  18.611  0.00  0.00    +0.000 C 
BRANCH  16  17
ATOM     17  C   UNL     1      -6.808   9.936  19.640  0.00  0.00    +0.000 C 
ATOM     18  O   UNL     1      -6.895   8.731  19.449  0.00  0.00    +0.000 OA
BRANCH  17  19
ATOM     19  O   UNL     1      -7.146  10.526  20.814  0.00  0.00    +0.000 OA
ATOM     20  H   UNL     1      -7.602  11.371  20.592  0.00  0.00    +0.000 HD
ENDBRANCH  17  19
ENDBRANCH  16  17
ENDBRANCH  15  16
ENDBRANCH  14  15
ENDBRANCH  11  14
ENDBRANCH   7   8
ENDBRANCH   5   7
BRANCH   2  21
ATOM     21  C   UNL     1       3.320   5.837  17.966  0.00  0.00    +0.000 C 
BRANCH  21  22
ATOM     22  C   UNL     1       4.835   6.049  18.072  0.00  0.00    +0.000 A 
ATOM     23  C   UNL     1       5.580   5.452  19.105  0.00  0.00    +0.000 A 
ATOM     24  C   UNL     1       6.938   5.720  19.264  0.00  0.00    +0.000 A 
ATOM     25  C   UNL     1       7.579   6.585  18.385  0.00  0.00    +0.000 A 
ATOM     26  C   UNL     1       6.869   7.163  17.334  0.00  0.00    +0.000 A 
ATOM     27  C   UNL     1       5.505   6.897  17.175  0.00  0.00    +0.000 A 
ENDBRANCH  21  22
BRANCH  21  28
ATOM     28  C   UNL     1       2.854   4.381  18.128  0.00  0.00    +0.000 A 
ATOM     29  C   UNL     1       3.702   3.279  17.927  0.00  0.00    +0.000 A 
ATOM     30  C   UNL     1       3.218   1.972  17.991  0.00  0.00    +0.000 A 
ATOM     31  C   UNL     1       1.882   1.737  18.291  0.00  0.00    +0.000 A 
ATOM     32  C   UNL     1       1.030   2.810  18.537  0.00  0.00    +0.000 A 
ATOM     33  C   UNL     1       1.512   4.119  18.465  0.00  0.00    +0.000 A 
ENDBRANCH  21  28
ENDBRANCH   2  21
TORSDOF 10
ENDMDL
MODEL 2
REMARK VINA RESULT:      -8.3      2.862      3.557
REMARK  Name = 
REMARK  11 active torsions:
REMARK  status: ('A' for Active; 'I' for Inactive)
REMARK    1  A    between atoms: C_1  and  N_2
REMARK    2  A    between atoms: N_2  and  C_19
REMARK    3  A    between atoms: N_5  and  C_6
REMARK    4  A    between atoms: C_6  and  C_7
REMARK    5  A    between atoms: C_10  and  C_11
REMARK    6  A    between atoms: C_11  and  O_12
REMARK    7  A    between atoms: O_12  and  C_13
REMARK    8  A    between atoms: C_13  and  C_14
REMARK    9  A    between atoms: C_14  and  O_16
REMARK   10  A    between atoms: C_19  and  C_20
REMARK   11  A    between atoms: C_19  and  C_26
REMARK                            x       y       z     vdW  Elec       q    Type
REMARK                         _______ _______ _______ _____ _____    ______ ____
ROOT
ATOM      1  C   UNL     1       2.457   8.243  17.472  0.00  0.00    +0.000 C 
ATOM      2  N   UNL     1       2.790   7.102  18.318  0.00  0.00    +0.000 N 
ATOM      3  C   UNL     1       2.438   7.002  19.663  0.00  0.00    +0.000 C 
ATOM      4  O   UNL     1       2.825   6.128  20.427  0.00  0.00    +0.000 OA
ATOM      5  N   UNL     1       1.538   7.948  20.077  0.00  0.00    +0.000 N 
ATOM      6  H   UNL     1       0.855   8.180  19.373  0.00  0.00    +0.000 HD
ENDROOT
BRANCH   5   7
ATOM      7  C   UNL     1       1.033   7.965  21.437  0.00  0.00    +0.000 C 
BRANCH   7   8
ATOM      8  C   UNL     1      -0.044   9.045  21.603  0.00  0.00    +0.000 C 
ATOM      9  C   UNL     1      -0.141   9.526  23.061  0.00  0.00    +0.000 C 
ATOM     10  C   UNL     1      -1.132  10.671  23.222  0.00  0.00    +0.000 C 
ATOM     11  C   UNL     1      -0.791  11.838  22.285  0.00  0.00    +0.000 C 
ATOM     12  C   UNL     1      -0.768  11.357  20.831  0.00  0.00    +0.000 C 
ATOM     13  C   UNL     1       0.232  10.215  20.646  0.00  0.00    +0.000 C 
BRANCH  11  14
ATOM     14  C   UNL     1      -1.762  13.003  22.485  0.00  0.00    +0.000 C 
BRANCH  14  15
ATOM     15  O   UNL     1      -3.088  12.466  22.476  0.00  0.00    +0.000 OA
BRANCH  15  16
ATOM     16  C   UNL     1      -4.056  13.410  22.949  0.00  0.00    +0.000 C 
BRANCH  16  17
ATOM     17  C   UNL     1      -4.773  12.776  24.131  0.00  0.00    +0.000 C 
ATOM     18  O   UNL     1      -4.321  11.863  24.807  0.00  0.00    +0.000 OA
BRANCH  17  19
ATOM     19  O   UNL     1      -5.984  13.340  24.362  0.00  0.00    +0.000 OA
ATOM     20  H   UNL     1      -5.908  13.858  25.198  0.00  0.00    +0.000 HD
ENDBRANCH  17  19
ENDBRANCH  16  17
ENDBRANCH  15  16
ENDBRANCH  14  15
ENDBRANCH  11  14
ENDBRANCH   7   8
ENDBRANCH   5   7
BRANCH   2  21
ATOM     21  C   UNL     1       3.587   6.029  17.679  0.00  0.00    +0.000 C 
BRANCH  21  22
ATOM     22  C   UNL     1       5.079   6.158  18.005  0.00  0.00    +0.000 A 
ATOM     23  C   UNL     1       5.936   6.916  17.187  0.00  0.00    +0.000 A 
ATOM     24  C   UNL     1       7.309   6.956  17.422  0.00  0.00    +0.000 A 
ATOM     25  C   UNL     1       7.850   6.245  18.486  0.00  0.00    +0.000 A 
ATOM     26  C   UNL     1       7.015   5.513  19.331  0.00  0.00    +0.000 A 
ATOM     27  C   UNL     1       5.638   5.470  19.094  0.00  0.00    +0.000 A 
ENDBRANCH  21  22
BRANCH  21  28
ATOM     28  C   UNL     1       3.008   4.613  17.830  0.00  0.00    +0.000 A 
ATOM     29  C   UNL     1       1.647   4.363  18.076  0.00  0.00    +0.000 A 
ATOM     30  C   UNL     1       1.177   3.070  18.300  0.00  0.00    +0.000 A 
ATOM     31  C   UNL     1       2.052   1.991  18.250  0.00  0.00    +0.000 A 
ATOM     32  C   UNL     1       3.398   2.206  17.965  0.00  0.00    +0.000 A 
ATOM     33  C   UNL     1       3.870   3.503  17.748  0.00  0.00    +0.000 A 
ENDBRANCH  21  28
ENDBRANCH   2  21
TORSDOF 10
ENDMDL
MODEL 3
REMARK VINA RESULT:      -8.2      2.368      3.160
REMARK  Name = 
REMARK  11 active torsions:
REMARK  status: ('A' for Active; 'I' for Inactive)
REMARK    1  A    between atoms: C_1  and  N_2
REMARK    2  A    between atoms: N_2  and  C_19
REMARK    3  A    between atoms: N_5  and  C_6
REMARK    4  A    between atoms: C_6  and  C_7
REMARK    5  A    between atoms: C_10  and  C_11
REMARK    6  A    between atoms: C_11  and  O_12
REMARK    7  A    between atoms: O_12  and  C_13
REMARK    8  A    between atoms: C_13  and  C_14
REMARK    9  A    between atoms: C_14  and  O_16
REMARK   10  A    between atoms: C_19  and  C_20
REMARK   11  A    between atoms: C_19  and  C_26
REMARK                            x       y       z     vdW  Elec       q    Type
REMARK                         _______ _______ _______ _____ _____    ______ ____
ROOT
ATOM      1  C   UNL     1       2.630   8.272  17.453  0.00  0.00    +0.000 C 
ATOM      2  N   UNL     1       2.896   7.096  18.272  0.00  0.00    +0.000 N 
ATOM      3  C   UNL     1       2.516   6.974  19.608  0.00  0.00    +0.000 C 
ATOM      4  O   UNL     1       2.850   6.064  20.353  0.00  0.00    +0.000 OA
ATOM      5  N   UNL     1       1.653   7.949  20.033  0.00  0.00    +0.000 N 
ATOM      6  H   UNL     1       0.993   8.231  19.324  0.00  0.00    +0.000 HD
ENDROOT
BRANCH   5   7
ATOM      7  C   UNL     1       1.124   7.952  21.384  0.00  0.00    +0.000 C 
BRANCH   7   8
ATOM      8  C   UNL     1       0.054   9.039  21.547  0.00  0.00    +0.000 C 
ATOM      9  C   UNL     1      -0.120   9.442  23.021  0.00  0.00    +0.000 C 
ATOM     10  C   UNL     1      -1.104  10.593  23.187  0.00  0.00    +0.000 C 
ATOM     11  C   UNL     1      -0.693  11.803  22.336  0.00  0.00    +0.000 C 
ATOM     12  C   UNL     1      -0.593  11.400  20.862  0.00  0.00    +0.000 C 
ATOM     13  C   UNL     1       0.400  10.254  20.672  0.00  0.00    +0.000 C 
BRANCH  11  14
ATOM     14  C   UNL     1      -1.659  12.971  22.543  0.00  0.00    +0.000 C 
BRANCH  14  15
ATOM     15  O   UNL     1      -2.989  12.460  22.414  0.00  0.00    +0.000 OA
BRANCH  15  16
ATOM     16  C   UNL     1      -3.902  13.448  21.922  0.00  0.00    +0.000 C 
BRANCH  16  17
ATOM     17  C   UNL     1      -4.833  12.760  20.937  0.00  0.00    +0.000 C 
ATOM     18  O   UNL     1      -5.719  11.978  21.251  0.00  0.00    +0.000 OA
BRANCH  17  19
ATOM     19  O   UNL     1      -4.577  13.112  19.652  0.00  0.00    +0.000 OA
ATOM     20  H   UNL     1      -4.086  12.363  19.239  0.00  0.00    +0.000 HD
ENDBRANCH  17  19
ENDBRANCH  16  17
ENDBRANCH  15  16
ENDBRANCH  14  15
ENDBRANCH  11  14
ENDBRANCH   7   8
ENDBRANCH   5   7
BRANCH   2  21
ATOM     21  C   UNL     1       3.655   6.005  17.616  0.00  0.00    +0.000 C 
BRANCH  21  22
ATOM     22  C   UNL     1       5.157   6.103  17.908  0.00  0.00    +0.000 A 
ATOM     23  C   UNL     1       5.727   5.432  19.004  0.00  0.00    +0.000 A 
ATOM     24  C   UNL     1       7.071   5.595  19.332  0.00  0.00    +0.000 A 
ATOM     25  C   UNL     1       7.874   6.429  18.562  0.00  0.00    +0.000 A 
ATOM     26  C   UNL     1       7.338   7.080  17.451  0.00  0.00    +0.000 A 
ATOM     27  C   UNL     1       5.989   6.918  17.123  0.00  0.00    +0.000 A 
ENDBRANCH  21  22
BRANCH  21  28
ATOM     28  C   UNL     1       3.050   4.601  17.782  0.00  0.00    +0.000 A 
ATOM     29  C   UNL     1       1.676   4.377  17.974  0.00  0.00    +0.000 A 
ATOM     30  C   UNL     1       1.178   3.097  18.215  0.00  0.00    +0.000 A 
ATOM     31  C   UNL     1       2.040   2.006  18.236  0.00  0.00    +0.000 A 
ATOM     32  C   UNL     1       3.399   2.195  18.006  0.00  0.00    +0.000 A 
ATOM     33  C   UNL     1       3.899   3.478  17.773  0.00  0.00    +0.000 A 
ENDBRANCH  21  28
ENDBRANCH   2  21
TORSDOF 10
ENDMDL
MODEL 4
REMARK VINA RESULT:      -8.1      2.792      3.473
REMARK  Name = 
REMARK  11 active torsions:
REMARK  status: ('A' for Active; 'I' for Inactive)
REMARK    1  A    between atoms: C_1  and  N_2
REMARK    2  A    between atoms: N_2  and  C_19
REMARK    3  A    between atoms: N_5  and  C_6
REMARK    4  A    between atoms: C_6  and  C_7
REMARK    5  A    between atoms: C_10  and  C_11
REMARK    6  A    between atoms: C_11  and  O_12
REMARK    7  A    between atoms: O_12  and  C_13
REMARK    8  A    between atoms: C_13  and  C_14
REMARK    9  A    between atoms: C_14  and  O_16
REMARK   10  A    between atoms: C_19  and  C_20
REMARK   11  A    between atoms: C_19  and  C_26
REMARK                            x       y       z     vdW  Elec       q    Type
REMARK                         _______ _______ _______ _____ _____    ______ ____
ROOT
ATOM      1  C   UNL     1       2.430   8.117  17.469  0.00  0.00    +0.000 C 
ATOM      2  N   UNL     1       2.786   7.018  18.359  0.00  0.00    +0.000 N 
ATOM      3  C   UNL     1       2.444   6.968  19.710  0.00  0.00    +0.000 C 
ATOM      4  O   UNL     1       2.849   6.133  20.506  0.00  0.00    +0.000 OA
ATOM      5  N   UNL     1       1.532   7.918  20.090  0.00  0.00    +0.000 N 
ATOM      6  H   UNL     1       0.841   8.110  19.381  0.00  0.00    +0.000 HD
ENDROOT
BRANCH   5   7
ATOM      7  C   UNL     1       1.035   7.984  21.451  0.00  0.00    +0.000 C 
BRANCH   7   8
ATOM      8  C   UNL     1      -0.051   9.059  21.581  0.00  0.00    +0.000 C 
ATOM      9  C   UNL     1      -0.165   9.575  23.025  0.00  0.00    +0.000 C 
ATOM     10  C   UNL     1      -1.167  10.715  23.150  0.00  0.00    +0.000 C 
ATOM     11  C   UNL     1      -0.825  11.862  22.187  0.00  0.00    +0.000 C 
ATOM     12  C   UNL     1      -0.786  11.345  20.746  0.00  0.00    +0.000 C 
ATOM     13  C   UNL     1       0.224  10.207  20.598  0.00  0.00    +0.000 C 
BRANCH  11  14
ATOM     14  C   UNL     1      -1.808  13.024  22.350  0.00  0.00    +0.000 C 
BRANCH  14  15
ATOM     15  O   UNL     1      -2.492  12.838  23.592  0.00  0.00    +0.000 OA
BRANCH  15  16
ATOM     16  C   UNL     1      -3.709  13.593  23.657  0.00  0.00    +0.000 C 
BRANCH  16  17
ATOM     17  C   UNL     1      -4.841  12.613  23.919  0.00  0.00    +0.000 C 
ATOM     18  O   UNL     1      -5.904  12.604  23.315  0.00  0.00    +0.000 OA
BRANCH  17  19
ATOM     19  O   UNL     1      -4.543  11.733  24.908  0.00  0.00    +0.000 OA
ATOM     20  H   UNL     1      -4.008  11.011  24.502  0.00  0.00    +0.000 HD
ENDBRANCH  17  19
ENDBRANCH  16  17
ENDBRANCH  15  16
ENDBRANCH  14  15
ENDBRANCH  11  14
ENDBRANCH   7   8
ENDBRANCH   5   7
BRANCH   2  21
ATOM     21  C   UNL     1       3.595   5.931  17.760  0.00  0.00    +0.000 C 
BRANCH  21  22
ATOM     22  C   UNL     1       5.091   6.114  18.042  0.00  0.00    +0.000 A 
ATOM     23  C   UNL     1       5.899   6.886  17.189  0.00  0.00    +0.000 A 
ATOM     24  C   UNL     1       7.276   6.976  17.384  0.00  0.00    +0.000 A 
ATOM     25  C   UNL     1       7.869   6.299  18.443  0.00  0.00    +0.000 A 
ATOM     26  C   UNL     1       7.084   5.554  19.321  0.00  0.00    +0.000 A 
ATOM     27  C   UNL     1       5.702   5.461  19.124  0.00  0.00    +0.000 A 
ENDBRANCH  21  22
BRANCH  21  28
ATOM     28  C   UNL     1       3.056   4.511  18.002  0.00  0.00    +0.000 A 
ATOM     29  C   UNL     1       3.880   3.373  18.024  0.00  0.00    +0.000 A 
ATOM     30  C   UNL     1       3.342   2.092  18.152  0.00  0.00    +0.000 A 
ATOM     31  C   UNL     1       1.970   1.924  18.296  0.00  0.00    +0.000 A 
ATOM     32  C   UNL     1       1.135   3.037  18.322  0.00  0.00    +0.000 A 
ATOM     33  C   UNL     1       1.673   4.320  18.185  0.00  0.00    +0.000 A 
ENDBRANCH  21  28
ENDBRANCH   2  21
TORSDOF 10
ENDMDL
MODEL 5
REMARK VINA RESULT:      -8.0      2.753      3.520
REMARK  Name = 
REMARK  11 active torsions:
REMARK  status: ('A' for Active; 'I' for Inactive)
REMARK    1  A    between atoms: C_1  and  N_2
REMARK    2  A    between atoms: N_2  and  C_19
REMARK    3  A    between atoms: N_5  and  C_6
REMARK    4  A    between atoms: C_6  and  C_7
REMARK    5  A    between atoms: C_10  and  C_11
REMARK    6  A    between atoms: C_11  and  O_12
REMARK    7  A    between atoms: O_12  and  C_13
REMARK    8  A    between atoms: C_13  and  C_14
REMARK    9  A    between atoms: C_14  and  O_16
REMARK   10  A    between atoms: C_19  and  C_20
REMARK   11  A    between atoms: C_19  and  C_26
REMARK                            x       y       z     vdW  Elec       q    Type
REMARK                         _______ _______ _______ _____ _____    ______ ____
ROOT
ATOM      1  C   UNL     1       2.200   6.328  20.199  0.00  0.00    +0.000 C 
ATOM      2  N   UNL     1       2.551   6.845  18.882  0.00  0.00    +0.000 N 
ATOM      3  C   UNL     1       2.176   8.104  18.414  0.00  0.00    +0.000 C 
ATOM      4  O   UNL     1       2.334   8.503  17.269  0.00  0.00    +0.000 OA
ATOM      5  N   UNL     1       1.656   8.926  19.379  0.00  0.00    +0.000 N 
ATOM      6  H   UNL     1       2.099   8.811  20.278  0.00  0.00    +0.000 HD
ENDROOT
BRANCH   5   7
ATOM      7  C   UNL     1       1.251  10.285  19.075  0.00  0.00    +0.000 C 
BRANCH   7   8
ATOM      8  C   UNL     1       0.732  10.993  20.334  0.00  0.00    +0.000 C 
ATOM      9  C   UNL     1      -0.159  12.194  19.979  0.00  0.00    +0.000 C 
ATOM     10  C   UNL     1      -0.766  12.843  21.216  0.00  0.00    +0.000 C 
ATOM     11  C   UNL     1      -1.540  11.819  22.058  0.00  0.00    +0.000 C 
ATOM     12  C   UNL     1      -0.619  10.665  22.462  0.00  0.00    +0.000 C 
ATOM     13  C   UNL     1      -0.010   9.991  21.232  0.00  0.00    +0.000 C 
BRANCH  11  14
ATOM     14  C   UNL     1      -2.185  12.487  23.274  0.00  0.00    +0.000 C 
BRANCH  14  15
ATOM     15  O   UNL     1      -3.548  12.054  23.331  0.00  0.00    +0.000 OA
BRANCH  15  16
ATOM     16  C   UNL     1      -4.246  12.617  24.449  0.00  0.00    +0.000 C 
BRANCH  16  17
ATOM     17  C   UNL     1      -4.395  14.108  24.192  0.00  0.00    +0.000 C 
ATOM     18  O   UNL     1      -4.961  14.592  23.222  0.00  0.00    +0.000 OA
BRANCH  17  19
ATOM     19  O   UNL     1      -3.827  14.858  25.169  0.00  0.00    +0.000 OA
ATOM     20  H   UNL     1      -3.774  14.293  25.975  0.00  0.00    +0.000 HD
ENDBRANCH  17  19
ENDBRANCH  16  17
ENDBRANCH  15  16
ENDBRANCH  14  15
ENDBRANCH  11  14
ENDBRANCH   7   8
ENDBRANCH   5   7
BRANCH   2  21
ATOM     21  C   UNL     1       3.317   5.929  18.006  0.00  0.00    +0.000 C 
BRANCH  21  22
ATOM     22  C   UNL     1       4.830   6.119  18.166  0.00  0.00    +0.000 A 
ATOM     23  C   UNL     1       5.571   6.854  17.225  0.00  0.00    +0.000 A 
ATOM     24  C   UNL     1       6.959   6.948  17.311  0.00  0.00    +0.000 A 
ATOM     25  C   UNL     1       7.630   6.313  18.349  0.00  0.00    +0.000 A 
ATOM     26  C   UNL     1       6.914   5.605  19.313  0.00  0.00    +0.000 A 
ATOM     27  C   UNL     1       5.521   5.508  19.225  0.00  0.00    +0.000 A 
ENDBRANCH  21  22
BRANCH  21  28
ATOM     28  C   UNL     1       2.840   4.467  18.020  0.00  0.00    +0.000 A 
ATOM     29  C   UNL     1       1.514   4.097  18.298  0.00  0.00    +0.000 A 
ATOM     30  C   UNL     1       1.141   2.756  18.395  0.00  0.00    +0.000 A 
ATOM     31  C   UNL     1       2.080   1.754  18.181  0.00  0.00    +0.000 A 
ATOM     32  C   UNL     1       3.392   2.093  17.860  0.00  0.00    +0.000 A 
ATOM     33  C   UNL     1       3.767   3.436  17.771  0.00  0.00    +0.000 A 
ENDBRANCH  21  28
ENDBRANCH   2  21
TORSDOF 10
ENDMDL
MODEL 6
REMARK VINA RESULT:      -8.0      1.951      3.949
REMARK  Name = 
REMARK  11 active torsions:
REMARK  status: ('A' for Active; 'I' for Inactive)
REMARK    1  A    between atoms: C_1  and  N_2
REMARK    2  A    between atoms: N_2  and  C_19
REMARK    3  A    between atoms: N_5  and  C_6
REMARK    4  A    between atoms: C_6  and  C_7
REMARK    5  A    between atoms: C_10  and  C_11
REMARK    6  A    between atoms: C_11  and  O_12
REMARK    7  A    between atoms: O_12  and  C_13
REMARK    8  A    between atoms: C_13  and  C_14
REMARK    9  A    between atoms: C_14  and  O_16
REMARK   10  A    between atoms: C_19  and  C_20
REMARK   11  A    between atoms: C_19  and  C_26
REMARK                            x       y       z     vdW  Elec       q    Type
REMARK                         _______ _______ _______ _____ _____    ______ ____
ROOT
ATOM      1  C   UNL     1       3.279   7.527  17.399  0.00  0.00    +0.000 C 
ATOM      2  N   UNL     1       2.901   7.160  18.758  0.00  0.00    +0.000 N 
ATOM      3  C   UNL     1       2.091   7.943  19.579  0.00  0.00    +0.000 C 
ATOM      4  O   UNL     1       1.877   7.729  20.764  0.00  0.00    +0.000 OA
ATOM      5  N   UNL     1       1.469   8.975  18.928  0.00  0.00    +0.000 N 
ATOM      6  H   UNL     1       1.191   8.741  17.988  0.00  0.00    +0.000 HD
ENDROOT
BRANCH   5   7
ATOM      7  C   UNL     1       0.558   9.865  19.623  0.00  0.00    +0.000 C 
BRANCH   7   8
ATOM      8  C   UNL     1      -0.462  10.468  18.648  0.00  0.00    +0.000 C 
ATOM      9  C   UNL     1      -0.957   9.425  17.632  0.00  0.00    +0.000 C 
ATOM     10  C   UNL     1      -2.046   9.981  16.724  0.00  0.00    +0.000 C 
ATOM     11  C   UNL     1      -3.217  10.544  17.542  0.00  0.00    +0.000 C 
ATOM     12  C   UNL     1      -2.718  11.631  18.498  0.00  0.00    +0.000 C 
ATOM     13  C   UNL     1      -1.632  11.089  19.427  0.00  0.00    +0.000 C 
BRANCH  11  14
ATOM     14  C   UNL     1      -4.328  11.058  16.624  0.00  0.00    +0.000 C 
BRANCH  14  15
ATOM     15  O   UNL     1      -4.820  12.279  17.183  0.00  0.00    +0.000 OA
BRANCH  15  16
ATOM     16  C   UNL     1      -6.251  12.300  17.262  0.00  0.00    +0.000 C 
BRANCH  16  17
ATOM     17  C   UNL     1      -6.691  13.753  17.184  0.00  0.00    +0.000 C 
ATOM     18  O   UNL     1      -7.393  14.219  16.297  0.00  0.00    +0.000 OA
BRANCH  17  19
ATOM     19  O   UNL     1      -6.221  14.491  18.221  0.00  0.00    +0.000 OA
ATOM     20  H   UNL     1      -6.170  15.426  17.913  0.00  0.00    +0.000 HD
ENDBRANCH  17  19
ENDBRANCH  16  17
ENDBRANCH  15  16
ENDBRANCH  14  15
ENDBRANCH  11  14
ENDBRANCH   7   8
ENDBRANCH   5   7
BRANCH   2  21
ATOM     21  C   UNL     1       3.469   5.891  19.272  0.00  0.00    +0.000 C 
BRANCH  21  22
ATOM     22  C   UNL     1       2.404   4.793  19.378  0.00  0.00    +0.000 A 
ATOM     23  C   UNL     1       2.089   4.208  20.618  0.00  0.00    +0.000 A 
ATOM     24  C   UNL     1       1.195   3.143  20.708  0.00  0.00    +0.000 A 
ATOM     25  C   UNL     1       0.593   2.648  19.557  0.00  0.00    +0.000 A 
ATOM     26  C   UNL     1       0.865   3.233  18.321  0.00  0.00    +0.000 A 
ATOM     27  C   UNL     1       1.764   4.300  18.230  0.00  0.00    +0.000 A 
ENDBRANCH  21  22
BRANCH  21  28
ATOM     28  C   UNL     1       4.788   5.456  18.612  0.00  0.00    +0.000 A 
ATOM     29  C   UNL     1       6.050   5.761  19.150  0.00  0.00    +0.000 A 
ATOM     30  C   UNL     1       7.225   5.431  18.474  0.00  0.00    +0.000 A 
ATOM     31  C   UNL     1       7.164   4.758  17.259  0.00  0.00    +0.000 A 
ATOM     32  C   UNL     1       5.928   4.405  16.725  0.00  0.00    +0.000 A 
ATOM     33  C   UNL     1       4.751   4.743  17.399  0.00  0.00    +0.000 A 
ENDBRANCH  21  28
ENDBRANCH   2  21
TORSDOF 10
ENDMDL
MODEL 7
REMARK VINA RESULT:      -8.0      1.682      3.687
REMARK  Name = 
REMARK  11 active torsions:
REMARK  status: ('A' for Active; 'I' for Inactive)
REMARK    1  A    between atoms: C_1  and  N_2
REMARK    2  A    between atoms: N_2  and  C_19
REMARK    3  A    between atoms: N_5  and  C_6
REMARK    4  A    between atoms: C_6  and  C_7
REMARK    5  A    between atoms: C_10  and  C_11
REMARK    6  A    between atoms: C_11  and  O_12
REMARK    7  A    between atoms: O_12  and  C_13
REMARK    8  A    between atoms: C_13  and  C_14
REMARK    9  A    between atoms: C_14  and  O_16
REMARK   10  A    between atoms: C_19  and  C_20
REMARK   11  A    between atoms: C_19  and  C_26
REMARK                            x       y       z     vdW  Elec       q    Type
REMARK                         _______ _______ _______ _____ _____    ______ ____
ROOT
ATOM      1  C   UNL     1       3.139   7.495  17.438  0.00  0.00    +0.000 C 
ATOM      2  N   UNL     1       2.857   7.151  18.826  0.00  0.00    +0.000 N 
ATOM      3  C   UNL     1       2.127   7.960  19.696  0.00  0.00    +0.000 C 
ATOM      4  O   UNL     1       1.999   7.764  20.896  0.00  0.00    +0.000 OA
ATOM      5  N   UNL     1       1.479   8.999  19.081  0.00  0.00    +0.000 N 
ATOM      6  H   UNL     1       1.126   8.760  18.167  0.00  0.00    +0.000 HD
ENDROOT
BRANCH   5   7
ATOM      7  C   UNL     1       0.641   9.915  19.831  0.00  0.00    +0.000 C 
BRANCH   7   8
ATOM      8  C   UNL     1      -0.760  10.001  19.211  0.00  0.00    +0.000 C 
ATOM      9  C   UNL     1      -1.439  11.342  19.534  0.00  0.00    +0.000 C 
ATOM     10  C   UNL     1      -2.788  11.484  18.840  0.00  0.00    +0.000 C 
ATOM     11  C   UNL     1      -2.655  11.291  17.323  0.00  0.00    +0.000 C 
ATOM     12  C   UNL     1      -2.042   9.921  17.018  0.00  0.00    +0.000 C 
ATOM     13  C   UNL     1      -0.681   9.764  17.695  0.00  0.00    +0.000 C 
BRANCH  11  14
ATOM     14  C   UNL     1      -4.004  11.481  16.627  0.00  0.00    +0.000 C 
BRANCH  14  15
ATOM     15  O   UNL     1      -5.025  11.098  17.553  0.00  0.00    +0.000 OA
BRANCH  15  16
ATOM     16  C   UNL     1      -6.206  11.896  17.415  0.00  0.00    +0.000 C 
BRANCH  16  17
ATOM     17  C   UNL     1      -6.142  12.995  18.464  0.00  0.00    +0.000 C 
ATOM     18  O   UNL     1      -6.043  12.800  19.667  0.00  0.00    +0.000 OA
BRANCH  17  19
ATOM     19  O   UNL     1      -6.202  14.235  17.917  0.00  0.00    +0.000 OA
ATOM     20  H   UNL     1      -5.479  14.293  17.250  0.00  0.00    +0.000 HD
ENDBRANCH  17  19
ENDBRANCH  16  17
ENDBRANCH  15  16
ENDBRANCH  14  15
ENDBRANCH  11  14
ENDBRANCH   7   8
ENDBRANCH   5   7
BRANCH   2  21
ATOM     21  C   UNL     1       3.436   5.877  19.311  0.00  0.00    +0.000 C 
BRANCH  21  22
ATOM     22  C   UNL     1       2.367   4.789  19.466  0.00  0.00    +0.000 A 
ATOM     23  C   UNL     1       2.042   4.268  20.732  0.00  0.00    +0.000 A 
ATOM     24  C   UNL     1       1.144   3.212  20.869  0.00  0.00    +0.000 A 
ATOM     25  C   UNL     1       0.548   2.661  19.741  0.00  0.00    +0.000 A 
ATOM     26  C   UNL     1       0.830   3.181  18.479  0.00  0.00    +0.000 A 
ATOM     27  C   UNL     1       1.733   4.240  18.340  0.00  0.00    +0.000 A 
ENDBRANCH  21  22
BRANCH  21  28
ATOM     28  C   UNL     1       4.719   5.431  18.591  0.00  0.00    +0.000 A 
ATOM     29  C   UNL     1       6.007   5.712  19.077  0.00  0.00    +0.000 A 
ATOM     30  C   UNL     1       7.147   5.373  18.347  0.00  0.00    +0.000 A 
ATOM     31  C   UNL     1       7.024   4.713  17.130  0.00  0.00    +0.000 A 
ATOM     32  C   UNL     1       5.761   4.383  16.647  0.00  0.00    +0.000 A 
ATOM     33  C   UNL     1       4.619   4.730  17.374  0.00  0.00    +0.000 A 
ENDBRANCH  21  28
ENDBRANCH   2  21
TORSDOF 10
ENDMDL
MODEL 8
REMARK VINA RESULT:      -7.9      2.998      3.618
REMARK  Name = 
REMARK  11 active torsions:
REMARK  status: ('A' for Active; 'I' for Inactive)
REMARK    1  A    between atoms: C_1  and  N_2
REMARK    2  A    between atoms: N_2  and  C_19
REMARK    3  A    between atoms: N_5  and  C_6
REMARK    4  A    between atoms: C_6  and  C_7
REMARK    5  A    between atoms: C_10  and  C_11
REMARK    6  A    between atoms: C_11  and  O_12
REMARK    7  A    between atoms: O_12  and  C_13
REMARK    8  A    between atoms: C_13  and  C_14
REMARK    9  A    between atoms: C_14  and  O_16
REMARK   10  A    between atoms: C_19  and  C_20
REMARK   11  A    between atoms: C_19  and  C_26
REMARK                            x       y       z     vdW  Elec       q    Type
REMARK                         _______ _______ _______ _____ _____    ______ ____
ROOT
ATOM      1  C   UNL     1       2.624   8.258  17.535  0.00  0.00    +0.000 C 
ATOM      2  N   UNL     1       2.851   7.078  18.361  0.00  0.00    +0.000 N 
ATOM      3  C   UNL     1       2.459   6.974  19.695  0.00  0.00    +0.000 C 
ATOM      4  O   UNL     1       2.762   6.057  20.446  0.00  0.00    +0.000 OA
ATOM      5  N   UNL     1       1.620   7.974  20.110  0.00  0.00    +0.000 N 
ATOM      6  H   UNL     1       0.974   8.272  19.395  0.00  0.00    +0.000 HD
ENDROOT
BRANCH   5   7
ATOM      7  C   UNL     1       1.083   7.998  21.457  0.00  0.00    +0.000 C 
BRANCH   7   8
ATOM      8  C   UNL     1       0.702   9.427  21.865  0.00  0.00    +0.000 C 
ATOM      9  C   UNL     1       0.479  10.324  20.636  0.00  0.00    +0.000 C 
ATOM     10  C   UNL     1      -0.002  11.717  21.023  0.00  0.00    +0.000 C 
ATOM     11  C   UNL     1      -1.270  11.648  21.885  0.00  0.00    +0.000 C 
ATOM     12  C   UNL     1      -1.010  10.810  23.139  0.00  0.00    +0.000 C 
ATOM     13  C   UNL     1      -0.539   9.403  22.772  0.00  0.00    +0.000 C 
BRANCH  11  14
ATOM     14  C   UNL     1      -1.774  13.051  22.230  0.00  0.00    +0.000 C 
BRANCH  14  15
ATOM     15  O   UNL     1      -1.778  13.169  23.656  0.00  0.00    +0.000 OA
BRANCH  15  16
ATOM     16  C   UNL     1      -2.943  13.849  24.138  0.00  0.00    +0.000 C 
BRANCH  16  17
ATOM     17  C   UNL     1      -4.156  13.039  23.711  0.00  0.00    +0.000 C 
ATOM     18  O   UNL     1      -4.967  13.397  22.868  0.00  0.00    +0.000 OA
BRANCH  17  19
ATOM     19  O   UNL     1      -4.244  11.856  24.369  0.00  0.00    +0.000 OA
ATOM     20  H   UNL     1      -5.180  11.554  24.299  0.00  0.00    +0.000 HD
ENDBRANCH  17  19
ENDBRANCH  16  17
ENDBRANCH  15  16
ENDBRANCH  14  15
ENDBRANCH  11  14
ENDBRANCH   7   8
ENDBRANCH   5   7
BRANCH   2  21
ATOM     21  C   UNL     1       3.584   5.963  17.716  0.00  0.00    +0.000 C 
BRANCH  21  22
ATOM     22  C   UNL     1       5.090   6.038  17.992  0.00  0.00    +0.000 A 
ATOM     23  C   UNL     1       5.651   5.414  19.121  0.00  0.00    +0.000 A 
ATOM     24  C   UNL     1       7.002   5.560  19.430  0.00  0.00    +0.000 A 
ATOM     25  C   UNL     1       7.819   6.328  18.610  0.00  0.00    +0.000 A 
ATOM     26  C   UNL     1       7.293   6.929  17.468  0.00  0.00    +0.000 A 
ATOM     27  C   UNL     1       5.937   6.785  17.158  0.00  0.00    +0.000 A 
ENDBRANCH  21  22
BRANCH  21  28
ATOM     28  C   UNL     1       2.954   4.574  17.910  0.00  0.00    +0.000 A 
ATOM     29  C   UNL     1       1.568   4.368  18.008  0.00  0.00    +0.000 A 
ATOM     30  C   UNL     1       1.041   3.105  18.278  0.00  0.00    +0.000 A 
ATOM     31  C   UNL     1       1.888   2.013  18.422  0.00  0.00    +0.000 A 
ATOM     32  C   UNL     1       3.263   2.181  18.286  0.00  0.00    +0.000 A 
ATOM     33  C   UNL     1       3.791   3.447  18.023  0.00  0.00    +0.000 A 
ENDBRANCH  21  28
ENDBRANCH   2  21
TORSDOF 10
ENDMDL
MODEL 9
REMARK VINA RESULT:      -7.9      2.839      3.539
REMARK  Name = 
REMARK  11 active torsions:
REMARK  status: ('A' for Active; 'I' for Inactive)
REMARK    1  A    between atoms: C_1  and  N_2
REMARK    2  A    between atoms: N_2  and  C_19
REMARK    3  A    between atoms: N_5  and  C_6
REMARK    4  A    between atoms: C_6  and  C_7
REMARK    5  A    between atoms: C_10  and  C_11
REMARK    6  A    between atoms: C_11  and  O_12
REMARK    7  A    between atoms: O_12  and  C_13
REMARK    8  A    between atoms: C_13  and  C_14
REMARK    9  A    between atoms: C_14  and  O_16
REMARK   10  A    between atoms: C_19  and  C_20
REMARK   11  A    between atoms: C_19  and  C_26
REMARK                            x       y       z     vdW  Elec       q    Type
REMARK                         _______ _______ _______ _____ _____    ______ ____
ROOT
ATOM      1  C   UNL     1       2.658   7.974  17.540  0.00  0.00    +0.000 C 
ATOM      2  N   UNL     1       2.801   6.797  18.389  0.00  0.00    +0.000 N 
ATOM      3  C   UNL     1       2.445   6.761  19.736  0.00  0.00    +0.000 C 
ATOM      4  O   UNL     1       2.686   5.838  20.501  0.00  0.00    +0.000 OA
ATOM      5  N   UNL     1       1.717   7.845  20.150  0.00  0.00    +0.000 N 
ATOM      6  H   UNL     1       1.078   8.185  19.448  0.00  0.00    +0.000 HD
ENDROOT
BRANCH   5   7
ATOM      7  C   UNL     1       1.229   7.950  21.512  0.00  0.00    +0.000 C 
BRANCH   7   8
ATOM      8  C   UNL     1       0.106   8.991  21.608  0.00  0.00    +0.000 C 
ATOM      9  C   UNL     1       0.022   9.603  23.016  0.00  0.00    +0.000 C 
ATOM     10  C   UNL     1      -1.019  10.712  23.098  0.00  0.00    +0.000 C 
ATOM     11  C   UNL     1      -0.758  11.799  22.046  0.00  0.00    +0.000 C 
ATOM     12  C   UNL     1      -0.748  11.183  20.644  0.00  0.00    +0.000 C 
ATOM     13  C   UNL     1       0.300  10.076  20.537  0.00  0.00    +0.000 C 
BRANCH  11  14
ATOM     14  C   UNL     1      -1.779  12.932  22.165  0.00  0.00    +0.000 C 
BRANCH  14  15
ATOM     15  O   UNL     1      -3.083  12.348  22.088  0.00  0.00    +0.000 OA
BRANCH  15  16
ATOM     16  C   UNL     1      -4.092  13.205  22.635  0.00  0.00    +0.000 C 
BRANCH  16  17
ATOM     17  C   UNL     1      -4.028  13.078  24.149  0.00  0.00    +0.000 C 
ATOM     18  O   UNL     1      -3.569  13.930  24.897  0.00  0.00    +0.000 OA
BRANCH  17  19
ATOM     19  O   UNL     1      -4.545  11.904  24.590  0.00  0.00    +0.000 OA
ATOM     20  H   UNL     1      -4.246  11.203  23.966  0.00  0.00    +0.000 HD
ENDBRANCH  17  19
ENDBRANCH  16  17
ENDBRANCH  15  16
ENDBRANCH  14  15
ENDBRANCH  11  14
ENDBRANCH   7   8
ENDBRANCH   5   7
BRANCH   2  21
ATOM     21  C   UNL     1       3.405   5.604  17.751  0.00  0.00    +0.000 C 
BRANCH  21  22
ATOM     22  C   UNL     1       4.935   5.618  17.852  0.00  0.00    +0.000 A 
ATOM     23  C   UNL     1       5.578   5.701  19.100  0.00  0.00    +0.000 A 
ATOM     24  C   UNL     1       6.963   5.813  19.193  0.00  0.00    +0.000 A 
ATOM     25  C   UNL     1       7.734   5.837  18.037  0.00  0.00    +0.000 A 
ATOM     26  C   UNL     1       7.122   5.724  16.789  0.00  0.00    +0.000 A 
ATOM     27  C   UNL     1       5.731   5.613  16.695  0.00  0.00    +0.000 A 
ENDBRANCH  21  22
BRANCH  21  28
ATOM     28  C   UNL     1       2.741   4.266  18.115  0.00  0.00    +0.000 A 
ATOM     29  C   UNL     1       1.357   4.045  18.017  0.00  0.00    +0.000 A 
ATOM     30  C   UNL     1       0.782   2.850  18.446  0.00  0.00    +0.000 A 
ATOM     31  C   UNL     1       1.583   1.833  18.953  0.00  0.00    +0.000 A 
ATOM     32  C   UNL     1       2.962   2.009  19.022  0.00  0.00    +0.000 A 
ATOM     33  C   UNL     1       3.538   3.210  18.599  0.00  0.00    +0.000 A 
ENDBRANCH  21  28
ENDBRANCH   2  21
TORSDOF 10
ENDMDL
