MODEL 1
REMARK VINA RESULT:      -8.2      0.000      0.000
REMARK  Name = 
REMARK  8 active torsions:
REMARK  status: ('A' for Active; 'I' for Inactive)
REMARK    1  A    between atoms: C_1  and  O_2
REMARK    2  A    between atoms: O_2  and  N_3
REMARK    3  A    between atoms: C_4  and  C_5
REMARK    4  A    between atoms: C_4  and  C_15
REMARK    5  A    between atoms: C_5  and  C_6
REMARK    6  A    between atoms: C_7  and  C_8
REMARK    7  A    between atoms: C_10  and  C_11
REMARK    8  A    between atoms: C_13  and  C_14
REMARK                            x       y       z     vdW  Elec       q    Type
REMARK                         _______ _______ _______ _____ _____    ______ ____
ROOT
ATOM      1  N   UNL     1       2.192   4.457  20.494  0.00  0.00    +0.000 NA
ATOM      2  C   UNL     1       3.061   5.255  19.935  0.00  0.00    +0.000 C 
ENDROOT
BRANCH   2   3
ATOM      3  C   UNL     1       2.613   6.589  19.580  0.00  0.00    +0.000 A 
ATOM      4  C   UNL     1       2.708   7.303  18.398  0.00  0.00    +0.000 A 
ATOM      5  C   UNL     1       2.012   8.525  18.594  0.00  0.00    +0.000 A 
ATOM      6  C   UNL     1       1.712   9.651  17.811  0.00  0.00    +0.000 A 
ATOM      7  C   UNL     1       0.972  10.694  18.387  0.00  0.00    +0.000 A 
ATOM      8  C   UNL     1       0.532  10.621  19.712  0.00  0.00    +0.000 A 
ATOM      9  C   UNL     1       0.813   9.504  20.505  0.00  0.00    +0.000 A 
ATOM     10  C   UNL     1       1.549   8.486  19.906  0.00  0.00    +0.000 A 
ATOM     11  O   UNL     1       1.915   7.321  20.500  0.00  0.00    +0.000 OA
ENDBRANCH   2   3
BRANCH   1  13
ATOM     12  C   UNL     1       1.807   2.470  21.575  0.00  0.00    +0.000 C 
ATOM     13  O   UNL     1       2.765   3.225  20.843  0.00  0.00    +0.000 OA
ENDBRANCH   1  13
BRANCH   2  14
ATOM     14  C   UNL     1       4.509   4.903  19.666  0.00  0.00    +0.000 C 
BRANCH  14  15
ATOM     15  C   UNL     1       5.006   4.694  18.233  0.00  0.00    +0.000 A 
ATOM     16  C   UNL     1       4.286   4.123  17.154  0.00  0.00    +0.000 A 
ATOM     17  C   UNL     1       2.923   3.483  17.181  0.00  0.00    +0.000 C 
ATOM     18  C   UNL     1       4.884   4.071  15.872  0.00  0.00    +0.000 A 
ATOM     19  C   UNL     1       6.158   4.567  15.617  0.00  0.00    +0.000 A 
ATOM     20  C   UNL     1       6.721   4.565  14.229  0.00  0.00    +0.000 C 
ATOM     21  C   UNL     1       6.887   5.090  16.677  0.00  0.00    +0.000 A 
ATOM     22  C   UNL     1       6.340   5.153  17.971  0.00  0.00    +0.000 A 
ATOM     23  C   UNL     1       7.223   5.727  19.058  0.00  0.00    +0.000 C 
ENDBRANCH  14  15
ENDBRANCH   2  14
TORSDOF 4
ENDMDL
MODEL 2
REMARK VINA RESULT:      -7.7      0.506      1.897
REMARK  Name = 
REMARK  8 active torsions:
REMARK  status: ('A' for Active; 'I' for Inactive)
REMARK    1  A    between atoms: C_1  and  O_2
REMARK    2  A    between atoms: O_2  and  N_3
REMARK    3  A    between atoms: C_4  and  C_5
REMARK    4  A    between atoms: C_4  and  C_15
REMARK    5  A    between atoms: C_5  and  C_6
REMARK    6  A    between atoms: C_7  and  C_8
REMARK    7  A    between atoms: C_10  and  C_11
REMARK    8  A    between atoms: C_13  and  C_14
REMARK                            x       y       z     vdW  Elec       q    Type
REMARK                         _______ _______ _______ _____ _____    ______ ____
ROOT
ATOM      1  N   UNL     1       1.639   3.984  20.143  0.00  0.00    +0.000 NA
ATOM      2  C   UNL     1       2.661   4.682  19.727  0.00  0.00    +0.000 C 
ENDROOT
BRANCH   2   3
ATOM      3  C   UNL     1       2.439   6.085  19.431  0.00  0.00    +0.000 A 
ATOM      4  C   UNL     1       2.686   6.832  18.292  0.00  0.00    +0.000 A 
ATOM      5  C   UNL     1       2.181   8.137  18.532  0.00  0.00    +0.000 A 
ATOM      6  C   UNL     1       2.088   9.332  17.802  0.00  0.00    +0.000 A 
ATOM      7  C   UNL     1       1.496  10.448  18.411  0.00  0.00    +0.000 A 
ATOM      8  C   UNL     1       1.002  10.381  19.717  0.00  0.00    +0.000 A 
ATOM      9  C   UNL     1       1.077   9.197  20.457  0.00  0.00    +0.000 A 
ATOM     10  C   UNL     1       1.669   8.107  19.826  0.00  0.00    +0.000 A 
ATOM     11  O   UNL     1       1.829   6.872  20.368  0.00  0.00    +0.000 OA
ENDBRANCH   2   3
BRANCH   1  13
ATOM     12  C   UNL     1       1.666   2.409  21.810  0.00  0.00    +0.000 C 
ATOM     13  O   UNL     1       2.000   2.664  20.451  0.00  0.00    +0.000 OA
ENDBRANCH   1  13
BRANCH   2  14
ATOM     14  C   UNL     1       4.068   4.142  19.569  0.00  0.00    +0.000 C 
BRANCH  14  15
ATOM     15  C   UNL     1       4.863   4.406  18.287  0.00  0.00    +0.000 A 
ATOM     16  C   UNL     1       6.121   5.050  18.180  0.00  0.00    +0.000 A 
ATOM     17  C   UNL     1       6.913   5.730  19.266  0.00  0.00    +0.000 C 
ATOM     18  C   UNL     1       6.743   5.148  16.913  0.00  0.00    +0.000 A 
ATOM     19  C   UNL     1       6.176   4.626  15.755  0.00  0.00    +0.000 A 
ATOM     20  C   UNL     1       6.907   4.679  14.448  0.00  0.00    +0.000 C 
ATOM     21  C   UNL     1       4.925   4.030  15.843  0.00  0.00    +0.000 A 
ATOM     22  C   UNL     1       4.262   3.919  17.079  0.00  0.00    +0.000 A 
ATOM     23  C   UNL     1       2.897   3.267  17.064  0.00  0.00    +0.000 C 
ENDBRANCH  14  15
ENDBRANCH   2  14
TORSDOF 4
ENDMDL
MODEL 3
REMARK VINA RESULT:      -7.6      3.064      7.142
REMARK  Name = 
REMARK  8 active torsions:
REMARK  status: ('A' for Active; 'I' for Inactive)
REMARK    1  A    between atoms: C_1  and  O_2
REMARK    2  A    between atoms: O_2  and  N_3
REMARK    3  A    between atoms: C_4  and  C_5
REMARK    4  A    between atoms: C_4  and  C_15
REMARK    5  A    between atoms: C_5  and  C_6
REMARK    6  A    between atoms: C_7  and  C_8
REMARK    7  A    between atoms: C_10  and  C_11
REMARK    8  A    between atoms: C_13  and  C_14
REMARK                            x       y       z     vdW  Elec       q    Type
REMARK                         _______ _______ _______ _____ _____    ______ ____
ROOT
ATOM      1  N   UNL     1       7.721   6.848  17.152  0.00  0.00    +0.000 NA
ATOM      2  C   UNL     1       6.500   6.586  16.772  0.00  0.00    +0.000 C 
ENDROOT
BRANCH   2   3
ATOM      3  C   UNL     1       6.327   5.695  15.639  0.00  0.00    +0.000 A 
ATOM      4  C   UNL     1       5.264   4.898  15.254  0.00  0.00    +0.000 A 
ATOM      5  C   UNL     1       5.613   4.311  14.009  0.00  0.00    +0.000 A 
ATOM      6  C   UNL     1       4.992   3.450  13.091  0.00  0.00    +0.000 A 
ATOM      7  C   UNL     1       5.690   3.086  11.931  0.00  0.00    +0.000 A 
ATOM      8  C   UNL     1       6.978   3.570  11.682  0.00  0.00    +0.000 A 
ATOM      9  C   UNL     1       7.610   4.435  12.580  0.00  0.00    +0.000 A 
ATOM     10  C   UNL     1       6.892   4.778  13.722  0.00  0.00    +0.000 A 
ATOM     11  O   UNL     1       7.323   5.608  14.707  0.00  0.00    +0.000 OA
ENDBRANCH   2   3
BRANCH   1  13
ATOM     12  C   UNL     1       8.261   8.942  17.918  0.00  0.00    +0.000 C 
ATOM     13  O   UNL     1       7.748   7.668  18.290  0.00  0.00    +0.000 OA
ENDBRANCH   1  13
BRANCH   2  14
ATOM     14  C   UNL     1       5.252   7.113  17.450  0.00  0.00    +0.000 C 
BRANCH  14  15
ATOM     15  C   UNL     1       4.359   6.179  18.271  0.00  0.00    +0.000 A 
ATOM     16  C   UNL     1       4.744   4.977  18.915  0.00  0.00    +0.000 A 
ATOM     17  C   UNL     1       6.074   4.272  18.849  0.00  0.00    +0.000 C 
ATOM     18  C   UNL     1       3.794   4.271  19.691  0.00  0.00    +0.000 A 
ATOM     19  C   UNL     1       2.486   4.713  19.862  0.00  0.00    +0.000 A 
ATOM     20  C   UNL     1       1.537   3.980  20.759  0.00  0.00    +0.000 C 
ATOM     21  C   UNL     1       2.088   5.868  19.202  0.00  0.00    +0.000 A 
ATOM     22  C   UNL     1       2.994   6.598  18.409  0.00  0.00    +0.000 A 
ATOM     23  C   UNL     1       2.455   7.832  17.720  0.00  0.00    +0.000 C 
ENDBRANCH  14  15
ENDBRANCH   2  14
TORSDOF 4
ENDMDL
MODEL 4
REMARK VINA RESULT:      -7.5      3.330      6.942
REMARK  Name = 
REMARK  8 active torsions:
REMARK  status: ('A' for Active; 'I' for Inactive)
REMARK    1  A    between atoms: C_1  and  O_2
REMARK    2  A    between atoms: O_2  and  N_3
REMARK    3  A    between atoms: C_4  and  C_5
REMARK    4  A    between atoms: C_4  and  C_15
REMARK    5  A    between atoms: C_5  and  C_6
REMARK    6  A    between atoms: C_7  and  C_8
REMARK    7  A    between atoms: C_10  and  C_11
REMARK    8  A    between atoms: C_13  and  C_14
REMARK                            x       y       z     vdW  Elec       q    Type
REMARK                         _______ _______ _______ _____ _____    ______ ____
ROOT
ATOM      1  N   UNL     1       7.507   7.432  16.983  0.00  0.00    +0.000 NA
ATOM      2  C   UNL     1       6.765   6.365  17.101  0.00  0.00    +0.000 C 
ENDROOT
BRANCH   2   3
ATOM      3  C   UNL     1       6.550   5.563  15.910  0.00  0.00    +0.000 A 
ATOM      4  C   UNL     1       5.500   4.744  15.534  0.00  0.00    +0.000 A 
ATOM      5  C   UNL     1       5.782   4.283  14.221  0.00  0.00    +0.000 A 
ATOM      6  C   UNL     1       5.136   3.469  13.278  0.00  0.00    +0.000 A 
ATOM      7  C   UNL     1       5.761   3.242  12.043  0.00  0.00    +0.000 A 
ATOM      8  C   UNL     1       7.002   3.815  11.746  0.00  0.00    +0.000 A 
ATOM      9  C   UNL     1       7.658   4.635  12.670  0.00  0.00    +0.000 A 
ATOM     10  C   UNL     1       7.012   4.841  13.885  0.00  0.00    +0.000 A 
ATOM     11  O   UNL     1       7.475   5.609  14.905  0.00  0.00    +0.000 OA
ENDBRANCH   2   3
BRANCH   1  13
ATOM     12  C   UNL     1       8.313   9.336  17.978  0.00  0.00    +0.000 C 
ATOM     13  O   UNL     1       7.686   8.082  18.214  0.00  0.00    +0.000 OA
ENDBRANCH   1  13
BRANCH   2  14
ATOM     14  C   UNL     1       6.145   5.884  18.397  0.00  0.00    +0.000 C 
BRANCH  14  15
ATOM     15  C   UNL     1       4.686   5.419  18.435  0.00  0.00    +0.000 A 
ATOM     16  C   UNL     1       3.545   6.152  18.023  0.00  0.00    +0.000 A 
ATOM     17  C   UNL     1       3.476   7.586  17.568  0.00  0.00    +0.000 C 
ATOM     18  C   UNL     1       2.272   5.535  18.068  0.00  0.00    +0.000 A 
ATOM     19  C   UNL     1       2.087   4.224  18.494  0.00  0.00    +0.000 A 
ATOM     20  C   UNL     1       0.734   3.583  18.448  0.00  0.00    +0.000 C 
ATOM     21  C   UNL     1       3.193   3.512  18.939  0.00  0.00    +0.000 A 
ATOM     22  C   UNL     1       4.478   4.086  18.924  0.00  0.00    +0.000 A 
ATOM     23  C   UNL     1       5.613   3.231  19.445  0.00  0.00    +0.000 C 
ENDBRANCH  14  15
ENDBRANCH   2  14
TORSDOF 4
ENDMDL
MODEL 5
REMARK VINA RESULT:      -7.4      3.071      6.671
REMARK  Name = 
REMARK  8 active torsions:
REMARK  status: ('A' for Active; 'I' for Inactive)
REMARK    1  A    between atoms: C_1  and  O_2
REMARK    2  A    between atoms: O_2  and  N_3
REMARK    3  A    between atoms: C_4  and  C_5
REMARK    4  A    between atoms: C_4  and  C_15
REMARK    5  A    between atoms: C_5  and  C_6
REMARK    6  A    between atoms: C_7  and  C_8
REMARK    7  A    between atoms: C_10  and  C_11
REMARK    8  A    between atoms: C_13  and  C_14
REMARK                            x       y       z     vdW  Elec       q    Type
REMARK                         _______ _______ _______ _____ _____    ______ ____
ROOT
ATOM      1  N   UNL     1       7.674   5.112  18.624  0.00  0.00    +0.000 NA
ATOM      2  C   UNL     1       6.543   5.218  17.979  0.00  0.00    +0.000 C 
ENDROOT
BRANCH   2   3
ATOM      3  C   UNL     1       6.529   4.823  16.583  0.00  0.00    +0.000 A 
ATOM      4  C   UNL     1       5.709   3.953  15.885  0.00  0.00    +0.000 A 
ATOM      5  C   UNL     1       6.093   4.025  14.520  0.00  0.00    +0.000 A 
ATOM      6  C   UNL     1       5.663   3.438  13.319  0.00  0.00    +0.000 A 
ATOM      7  C   UNL     1       6.323   3.777  12.130  0.00  0.00    +0.000 A 
ATOM      8  C   UNL     1       7.388   4.684  12.128  0.00  0.00    +0.000 A 
ATOM      9  C   UNL     1       7.825   5.286  13.312  0.00  0.00    +0.000 A 
ATOM     10  C   UNL     1       7.150   4.929  14.476  0.00  0.00    +0.000 A 
ATOM     11  O   UNL     1       7.414   5.406  15.720  0.00  0.00    +0.000 OA
ENDBRANCH   2   3
BRANCH   1  13
ATOM     12  C   UNL     1       8.718   5.074  20.666  0.00  0.00    +0.000 C 
ATOM     13  O   UNL     1       7.538   5.466  19.975  0.00  0.00    +0.000 OA
ENDBRANCH   1  13
BRANCH   2  14
ATOM     14  C   UNL     1       5.240   5.685  18.593  0.00  0.00    +0.000 C 
BRANCH  14  15
ATOM     15  C   UNL     1       4.028   4.751  18.649  0.00  0.00    +0.000 A 
ATOM     16  C   UNL     1       3.988   3.432  19.167  0.00  0.00    +0.000 A 
ATOM     17  C   UNL     1       5.136   2.596  19.670  0.00  0.00    +0.000 C 
ATOM     18  C   UNL     1       2.756   2.736  19.198  0.00  0.00    +0.000 A 
ATOM     19  C   UNL     1       1.565   3.296  18.747  0.00  0.00    +0.000 A 
ATOM     20  C   UNL     1       0.270   2.556  18.873  0.00  0.00    +0.000 C 
ATOM     21  C   UNL     1       1.602   4.572  18.199  0.00  0.00    +0.000 A 
ATOM     22  C   UNL     1       2.805   5.299  18.136  0.00  0.00    +0.000 A 
ATOM     23  C   UNL     1       2.738   6.673  17.507  0.00  0.00    +0.000 C 
ENDBRANCH  14  15
ENDBRANCH   2  14
TORSDOF 4
ENDMDL
MODEL 6
REMARK VINA RESULT:      -7.3      2.568      6.897
REMARK  Name = 
REMARK  8 active torsions:
REMARK  status: ('A' for Active; 'I' for Inactive)
REMARK    1  A    between atoms: C_1  and  O_2
REMARK    2  A    between atoms: O_2  and  N_3
REMARK    3  A    between atoms: C_4  and  C_5
REMARK    4  A    between atoms: C_4  and  C_15
REMARK    5  A    between atoms: C_5  and  C_6
REMARK    6  A    between atoms: C_7  and  C_8
REMARK    7  A    between atoms: C_10  and  C_11
REMARK    8  A    between atoms: C_13  and  C_14
REMARK                            x       y       z     vdW  Elec       q    Type
REMARK                         _______ _______ _______ _____ _____    ______ ____
ROOT
ATOM      1  N   UNL     1       7.262   4.766  18.252  0.00  0.00    +0.000 NA
ATOM      2  C   UNL     1       6.182   4.573  17.544  0.00  0.00    +0.000 C 
ENDROOT
BRANCH   2   3
ATOM      3  C   UNL     1       6.345   4.363  16.117  0.00  0.00    +0.000 A 
ATOM      4  C   UNL     1       5.672   3.543  15.229  0.00  0.00    +0.000 A 
ATOM      5  C   UNL     1       6.191   3.815  13.936  0.00  0.00    +0.000 A 
ATOM      6  C   UNL     1       5.935   3.365  12.631  0.00  0.00    +0.000 A 
ATOM      7  C   UNL     1       6.690   3.896  11.575  0.00  0.00    +0.000 A 
ATOM      8  C   UNL     1       7.676   4.860  11.807  0.00  0.00    +0.000 A 
ATOM      9  C   UNL     1       7.940   5.328  13.098  0.00  0.00    +0.000 A 
ATOM     10  C   UNL     1       7.175   4.781  14.124  0.00  0.00    +0.000 A 
ATOM     11  O   UNL     1       7.270   5.107  15.439  0.00  0.00    +0.000 OA
ENDBRANCH   2   3
BRANCH   1  13
ATOM     12  C   UNL     1       8.057   5.565  20.250  0.00  0.00    +0.000 C 
ATOM     13  O   UNL     1       6.973   4.894  19.619  0.00  0.00    +0.000 OA
ENDBRANCH   1  13
BRANCH   2  14
ATOM     14  C   UNL     1       4.778   4.512  18.110  0.00  0.00    +0.000 C 
BRANCH  14  15
ATOM     15  C   UNL     1       3.960   5.793  18.299  0.00  0.00    +0.000 A 
ATOM     16  C   UNL     1       3.942   6.928  17.451  0.00  0.00    +0.000 A 
ATOM     17  C   UNL     1       4.800   7.200  16.243  0.00  0.00    +0.000 C 
ATOM     18  C   UNL     1       3.069   8.001  17.748  0.00  0.00    +0.000 A 
ATOM     19  C   UNL     1       2.209   7.990  18.842  0.00  0.00    +0.000 A 
ATOM     20  C   UNL     1       1.243   9.110  19.074  0.00  0.00    +0.000 C 
ATOM     21  C   UNL     1       2.250   6.900  19.702  0.00  0.00    +0.000 A 
ATOM     22  C   UNL     1       3.110   5.814  19.454  0.00  0.00    +0.000 A 
ATOM     23  C   UNL     1       3.087   4.684  20.460  0.00  0.00    +0.000 C 
ENDBRANCH  14  15
ENDBRANCH   2  14
TORSDOF 4
ENDMDL
MODEL 7
REMARK VINA RESULT:      -7.3      0.942      1.447
REMARK  Name = 
REMARK  8 active torsions:
REMARK  status: ('A' for Active; 'I' for Inactive)
REMARK    1  A    between atoms: C_1  and  O_2
REMARK    2  A    between atoms: O_2  and  N_3
REMARK    3  A    between atoms: C_4  and  C_5
REMARK    4  A    between atoms: C_4  and  C_15
REMARK    5  A    between atoms: C_5  and  C_6
REMARK    6  A    between atoms: C_7  and  C_8
REMARK    7  A    between atoms: C_10  and  C_11
REMARK    8  A    between atoms: C_13  and  C_14
REMARK                            x       y       z     vdW  Elec       q    Type
REMARK                         _______ _______ _______ _____ _____    ______ ____
ROOT
ATOM      1  N   UNL     1       2.877   3.909  20.154  0.00  0.00    +0.000 NA
ATOM      2  C   UNL     1       3.518   4.968  19.740  0.00  0.00    +0.000 C 
ENDROOT
BRANCH   2   3
ATOM      3  C   UNL     1       2.775   6.213  19.663  0.00  0.00    +0.000 A 
ATOM      4  C   UNL     1       1.955   6.849  20.579  0.00  0.00    +0.000 A 
ATOM      5  C   UNL     1       1.570   8.088  20.002  0.00  0.00    +0.000 A 
ATOM      6  C   UNL     1       0.793   9.187  20.400  0.00  0.00    +0.000 A 
ATOM      7  C   UNL     1       0.644  10.263  19.513  0.00  0.00    +0.000 A 
ATOM      8  C   UNL     1       1.257  10.253  18.257  0.00  0.00    +0.000 A 
ATOM      9  C   UNL     1       2.042   9.171  17.845  0.00  0.00    +0.000 A 
ATOM     10  C   UNL     1       2.171   8.119  18.747  0.00  0.00    +0.000 A 
ATOM     11  O   UNL     1       2.893   6.987  18.542  0.00  0.00    +0.000 OA
ENDBRANCH   2   3
BRANCH   1  13
ATOM     12  C   UNL     1       3.164   1.742  19.458  0.00  0.00    +0.000 C 
ATOM     13  O   UNL     1       3.720   2.791  20.241  0.00  0.00    +0.000 OA
ENDBRANCH   1  13
BRANCH   2  14
ATOM     14  C   UNL     1       4.987   5.000  19.372  0.00  0.00    +0.000 C 
BRANCH  14  15
ATOM     15  C   UNL     1       5.429   4.827  17.916  0.00  0.00    +0.000 A 
ATOM     16  C   UNL     1       4.642   4.358  16.835  0.00  0.00    +0.000 A 
ATOM     17  C   UNL     1       3.240   3.808  16.875  0.00  0.00    +0.000 C 
ATOM     18  C   UNL     1       5.199   4.326  15.534  0.00  0.00    +0.000 A 
ATOM     19  C   UNL     1       6.496   4.749  15.262  0.00  0.00    +0.000 A 
ATOM     20  C   UNL     1       7.018   4.776  13.859  0.00  0.00    +0.000 C 
ATOM     21  C   UNL     1       7.288   5.172  16.321  0.00  0.00    +0.000 A 
ATOM     22  C   UNL     1       6.782   5.210  17.634  0.00  0.00    +0.000 A 
ATOM     23  C   UNL     1       7.732   5.672  18.717  0.00  0.00    +0.000 C 
ENDBRANCH  14  15
ENDBRANCH   2  14
TORSDOF 4
ENDMDL
MODEL 8
REMARK VINA RESULT:      -7.3      2.095      6.558
REMARK  Name = 
REMARK  8 active torsions:
REMARK  status: ('A' for Active; 'I' for Inactive)
REMARK    1  A    between atoms: C_1  and  O_2
REMARK    2  A    between atoms: O_2  and  N_3
REMARK    3  A    between atoms: C_4  and  C_5
REMARK    4  A    between atoms: C_4  and  C_15
REMARK    5  A    between atoms: C_5  and  C_6
REMARK    6  A    between atoms: C_7  and  C_8
REMARK    7  A    between atoms: C_10  and  C_11
REMARK    8  A    between atoms: C_13  and  C_14
REMARK                            x       y       z     vdW  Elec       q    Type
REMARK                         _______ _______ _______ _____ _____    ______ ____
ROOT
ATOM      1  N   UNL     1       5.376   3.738  18.710  0.00  0.00    +0.000 NA
ATOM      2  C   UNL     1       4.668   4.155  17.696  0.00  0.00    +0.000 C 
ENDROOT
BRANCH   2   3
ATOM      3  C   UNL     1       5.364   4.386  16.443  0.00  0.00    +0.000 A 
ATOM      4  C   UNL     1       6.459   5.175  16.135  0.00  0.00    +0.000 A 
ATOM      5  C   UNL     1       6.767   4.943  14.768  0.00  0.00    +0.000 A 
ATOM      6  C   UNL     1       7.744   5.390  13.866  0.00  0.00    +0.000 A 
ATOM      7  C   UNL     1       7.713   4.911  12.548  0.00  0.00    +0.000 A 
ATOM      8  C   UNL     1       6.735   4.002  12.133  0.00  0.00    +0.000 A 
ATOM      9  C   UNL     1       5.758   3.538  13.020  0.00  0.00    +0.000 A 
ATOM     10  C   UNL     1       5.815   4.032  14.320  0.00  0.00    +0.000 A 
ATOM     11  O   UNL     1       4.968   3.700  15.329  0.00  0.00    +0.000 OA
ENDBRANCH   2   3
BRANCH   1  13
ATOM     12  C   UNL     1       4.581   2.098  20.103  0.00  0.00    +0.000 C 
ATOM     13  O   UNL     1       4.578   3.495  19.838  0.00  0.00    +0.000 OA
ENDBRANCH   1  13
BRANCH   2  14
ATOM     14  C   UNL     1       3.170   4.375  17.721  0.00  0.00    +0.000 C 
BRANCH  14  15
ATOM     15  C   UNL     1       2.543   5.345  18.727  0.00  0.00    +0.000 A 
ATOM     16  C   UNL     1       1.759   5.011  19.860  0.00  0.00    +0.000 A 
ATOM     17  C   UNL     1       1.257   3.653  20.276  0.00  0.00    +0.000 C 
ATOM     18  C   UNL     1       1.316   6.041  20.724  0.00  0.00    +0.000 A 
ATOM     19  C   UNL     1       1.625   7.381  20.515  0.00  0.00    +0.000 A 
ATOM     20  C   UNL     1       1.204   8.430  21.498  0.00  0.00    +0.000 C 
ATOM     21  C   UNL     1       2.357   7.722  19.386  0.00  0.00    +0.000 A 
ATOM     22  C   UNL     1       2.811   6.734  18.492  0.00  0.00    +0.000 A 
ATOM     23  C   UNL     1       3.587   7.213  17.284  0.00  0.00    +0.000 C 
ENDBRANCH  14  15
ENDBRANCH   2  14
TORSDOF 4
ENDMDL
MODEL 9
REMARK VINA RESULT:      -7.2      2.638      6.893
REMARK  Name = 
REMARK  8 active torsions:
REMARK  status: ('A' for Active; 'I' for Inactive)
REMARK    1  A    between atoms: C_1  and  O_2
REMARK    2  A    between atoms: O_2  and  N_3
REMARK    3  A    between atoms: C_4  and  C_5
REMARK    4  A    between atoms: C_4  and  C_15
REMARK    5  A    between atoms: C_5  and  C_6
REMARK    6  A    between atoms: C_7  and  C_8
REMARK    7  A    between atoms: C_10  and  C_11
REMARK    8  A    between atoms: C_13  and  C_14
REMARK                            x       y       z     vdW  Elec       q    Type
REMARK                         _______ _______ _______ _____ _____    ______ ____
ROOT
ATOM      1  N   UNL     1       6.981   4.843  18.255  0.00  0.00    +0.000 NA
ATOM      2  C   UNL     1       5.986   5.029  17.430  0.00  0.00    +0.000 C 
ENDROOT
BRANCH   2   3
ATOM      3  C   UNL     1       6.200   4.686  16.035  0.00  0.00    +0.000 A 
ATOM      4  C   UNL     1       5.559   3.783  15.205  0.00  0.00    +0.000 A 
ATOM      5  C   UNL     1       6.123   3.934  13.911  0.00  0.00    +0.000 A 
ATOM      6  C   UNL     1       5.914   3.362  12.647  0.00  0.00    +0.000 A 
ATOM      7  C   UNL     1       6.705   3.795  11.573  0.00  0.00    +0.000 A 
ATOM      8  C   UNL     1       7.682   4.780  11.746  0.00  0.00    +0.000 A 
ATOM      9  C   UNL     1       7.899   5.369  12.996  0.00  0.00    +0.000 A 
ATOM     10  C   UNL     1       7.099   4.918  14.042  0.00  0.00    +0.000 A 
ATOM     11  O   UNL     1       7.147   5.367  15.323  0.00  0.00    +0.000 OA
ENDBRANCH   2   3
BRANCH   1  13
ATOM     12  C   UNL     1       7.789   5.597  20.265  0.00  0.00    +0.000 C 
ATOM     13  O   UNL     1       6.626   5.154  19.576  0.00  0.00    +0.000 OA
ENDBRANCH   1  13
BRANCH   2  14
ATOM     14  C   UNL     1       4.617   5.537  17.829  0.00  0.00    +0.000 C 
BRANCH  14  15
ATOM     15  C   UNL     1       3.713   4.705  18.743  0.00  0.00    +0.000 A 
ATOM     16  C   UNL     1       3.641   3.292  18.814  0.00  0.00    +0.000 A 
ATOM     17  C   UNL     1       4.332   2.280  17.939  0.00  0.00    +0.000 C 
ATOM     18  C   UNL     1       2.791   2.689  19.773  0.00  0.00    +0.000 A 
ATOM     19  C   UNL     1       2.022   3.428  20.665  0.00  0.00    +0.000 A 
ATOM     20  C   UNL     1       1.199   2.751  21.717  0.00  0.00    +0.000 C 
ATOM     21  C   UNL     1       2.055   4.814  20.575  0.00  0.00    +0.000 A 
ATOM     22  C   UNL     1       2.876   5.459  19.631  0.00  0.00    +0.000 A 
ATOM     23  C   UNL     1       2.827   6.971  19.606  0.00  0.00    +0.000 C 
ENDBRANCH  14  15
ENDBRANCH   2  14
TORSDOF 4
ENDMDL
