MODEL 1
REMARK VINA RESULT:      -8.1      0.000      0.000
REMARK  Name = 
REMARK  6 active torsions:
REMARK  status: ('A' for Active; 'I' for Inactive)
REMARK    1  A    between atoms: C_1  and  N_2
REMARK    2  A    between atoms: N_2  and  C_3
REMARK    3  A    between atoms: C_3  and  C_4
REMARK    4  A    between atoms: N_6  and  C_7
REMARK    5  A    between atoms: C_14  and  C_16
REMARK    6  A    between atoms: C_16  and  C_17
REMARK                            x       y       z     vdW  Elec       q    Type
REMARK                         _______ _______ _______ _____ _____    ______ ____
ROOT
ATOM      1  C   UNL     1       5.937   6.738  17.488  0.00  0.00    +0.000 C 
ENDROOT
BRANCH   1   3
ATOM      2  C   UNL     1       7.680   5.374  18.705  0.00  0.00    +0.000 C 
ATOM      3  N   UNL     1       6.298   5.819  18.576  0.00  0.00    +0.000 N 
ATOM      4  C   UNL     1       5.356   4.843  18.981  0.00  0.00    +0.000 C 
ATOM      5  O   UNL     1       5.715   3.784  19.497  0.00  0.00    +0.000 OA
BRANCH   4   6
ATOM      6  C   UNL     1       3.873   5.181  18.785  0.00  0.00    +0.000 C 
BRANCH   6   7
ATOM      7  C   UNL     1       3.177   4.493  17.587  0.00  0.00    +0.000 C 
ATOM      8  C   UNL     1       3.598   3.039  17.334  0.00  0.00    +0.000 C 
ATOM      9  C   UNL     1       3.094   2.069  18.397  0.00  0.00    +0.000 C 
ATOM     10  C   UNL     1       1.584   2.161  18.579  0.00  0.00    +0.000 C 
ATOM     11  C   UNL     1       1.132   3.595  18.837  0.00  0.00    +0.000 C 
ATOM     12  C   UNL     1       1.640   4.552  17.757  0.00  0.00    +0.000 C 
ENDBRANCH   6   7
ENDBRANCH   4   6
ENDBRANCH   1   3
BRANCH   1  13
ATOM     13  C   UNL     1       5.824   6.291  16.024  0.00  0.00    +0.000 C 
ATOM     14  O   UNL     1       5.022   6.850  15.276  0.00  0.00    +0.000 OA
ATOM     15  N   UNL     1       6.735   5.332  15.619  0.00  0.00    +0.000 N 
ATOM     16  H   UNL     1       7.131   4.750  16.346  0.00  0.00    +0.000 HD
BRANCH  15  17
ATOM     17  C   UNL     1       6.784   4.849  14.294  0.00  0.00    +0.000 A 
ATOM     18  C   UNL     1       7.720   5.405  13.415  0.00  0.00    +0.000 A 
ATOM     19  C   UNL     1       7.834   4.915  12.110  0.00  0.00    +0.000 A 
ATOM     20  C   UNL     1       6.973   3.916  11.665  0.00  0.00    +0.000 A 
ATOM     21  C   UNL     1       6.011   3.408  12.526  0.00  0.00    +0.000 A 
ATOM     22  F   UNL     1       5.163   2.467  12.084  0.00  0.00    +0.000 F 
ATOM     23  C   UNL     1       5.921   3.847  13.844  0.00  0.00    +0.000 A 
ENDBRANCH  15  17
ENDBRANCH   1  13
TORSDOF 5
ENDMDL
MODEL 2
REMARK VINA RESULT:      -8.0      1.048      1.418
REMARK  Name = 
REMARK  6 active torsions:
REMARK  status: ('A' for Active; 'I' for Inactive)
REMARK    1  A    between atoms: C_1  and  N_2
REMARK    2  A    between atoms: N_2  and  C_3
REMARK    3  A    between atoms: C_3  and  C_4
REMARK    4  A    between atoms: N_6  and  C_7
REMARK    5  A    between atoms: C_14  and  C_16
REMARK    6  A    between atoms: C_16  and  C_17
REMARK                            x       y       z     vdW  Elec       q    Type
REMARK                         _______ _______ _______ _____ _____    ______ ____
ROOT
ATOM      1  C   UNL     1       4.813   6.338  17.196  0.00  0.00    +0.000 C 
ENDROOT
BRANCH   1   3
ATOM      2  C   UNL     1       7.197   6.546  18.006  0.00  0.00    +0.000 C 
ATOM      3  N   UNL     1       5.797   6.250  18.284  0.00  0.00    +0.000 N 
ATOM      4  C   UNL     1       5.621   5.258  19.279  0.00  0.00    +0.000 C 
ATOM      5  O   UNL     1       6.580   4.804  19.905  0.00  0.00    +0.000 OA
BRANCH   4   6
ATOM      6  C   UNL     1       4.185   4.804  19.566  0.00  0.00    +0.000 C 
BRANCH   6   7
ATOM      7  C   UNL     1       3.918   3.287  19.433  0.00  0.00    +0.000 C 
ATOM      8  C   UNL     1       2.851   2.725  20.385  0.00  0.00    +0.000 C 
ATOM      9  C   UNL     1       1.436   3.174  20.039  0.00  0.00    +0.000 C 
ATOM     10  C   UNL     1       1.077   2.856  18.592  0.00  0.00    +0.000 C 
ATOM     11  C   UNL     1       2.116   3.404  17.619  0.00  0.00    +0.000 C 
ATOM     12  C   UNL     1       3.529   2.938  17.976  0.00  0.00    +0.000 C 
ENDBRANCH   6   7
ENDBRANCH   4   6
ENDBRANCH   1   3
BRANCH   1  13
ATOM     13  C   UNL     1       5.170   6.071  15.728  0.00  0.00    +0.000 C 
ATOM     14  O   UNL     1       5.128   6.992  14.912  0.00  0.00    +0.000 OA
ATOM     15  N   UNL     1       5.627   4.796  15.445  0.00  0.00    +0.000 N 
ATOM     16  H   UNL     1       5.353   4.065  16.089  0.00  0.00    +0.000 HD
BRANCH  15  17
ATOM     17  C   UNL     1       6.034   4.409  14.150  0.00  0.00    +0.000 A 
ATOM     18  C   UNL     1       7.211   4.955  13.628  0.00  0.00    +0.000 A 
ATOM     19  C   UNL     1       7.673   4.555  12.370  0.00  0.00    +0.000 A 
ATOM     20  C   UNL     1       6.927   3.659  11.609  0.00  0.00    +0.000 A 
ATOM     21  C   UNL     1       5.732   3.165  12.111  0.00  0.00    +0.000 A 
ATOM     22  F   UNL     1       5.001   2.325  11.361  0.00  0.00    +0.000 F 
ATOM     23  C   UNL     1       5.287   3.512  13.383  0.00  0.00    +0.000 A 
ENDBRANCH  15  17
ENDBRANCH   1  13
TORSDOF 5
ENDMDL
MODEL 3
REMARK VINA RESULT:      -7.8      1.871      2.245
REMARK  Name = 
REMARK  6 active torsions:
REMARK  status: ('A' for Active; 'I' for Inactive)
REMARK    1  A    between atoms: C_1  and  N_2
REMARK    2  A    between atoms: N_2  and  C_3
REMARK    3  A    between atoms: C_3  and  C_4
REMARK    4  A    between atoms: N_6  and  C_7
REMARK    5  A    between atoms: C_14  and  C_16
REMARK    6  A    between atoms: C_16  and  C_17
REMARK                            x       y       z     vdW  Elec       q    Type
REMARK                         _______ _______ _______ _____ _____    ______ ____
ROOT
ATOM      1  C   UNL     1       4.828   6.596  17.487  0.00  0.00    +0.000 C 
ENDROOT
BRANCH   1   3
ATOM      2  C   UNL     1       2.866   8.185  17.574  0.00  0.00    +0.000 C 
ATOM      3  N   UNL     1       3.471   6.914  17.954  0.00  0.00    +0.000 N 
ATOM      4  C   UNL     1       3.072   6.466  19.236  0.00  0.00    +0.000 C 
ATOM      5  O   UNL     1       2.206   7.059  19.879  0.00  0.00    +0.000 OA
BRANCH   4   6
ATOM      6  C   UNL     1       3.737   5.190  19.767  0.00  0.00    +0.000 C 
BRANCH   6   7
ATOM      7  C   UNL     1       3.169   3.857  19.226  0.00  0.00    +0.000 C 
ATOM      8  C   UNL     1       3.489   2.618  20.074  0.00  0.00    +0.000 C 
ATOM      9  C   UNL     1       2.746   2.588  21.405  0.00  0.00    +0.000 C 
ATOM     10  C   UNL     1       1.241   2.728  21.219  0.00  0.00    +0.000 C 
ATOM     11  C   UNL     1       0.887   3.954  20.383  0.00  0.00    +0.000 C 
ATOM     12  C   UNL     1       1.635   3.965  19.048  0.00  0.00    +0.000 C 
ENDBRANCH   6   7
ENDBRANCH   4   6
ENDBRANCH   1   3
BRANCH   1  13
ATOM     13  C   UNL     1       5.153   6.299  16.017  0.00  0.00    +0.000 C 
ATOM     14  O   UNL     1       4.953   7.161  15.162  0.00  0.00    +0.000 OA
ATOM     15  N   UNL     1       5.764   5.083  15.773  0.00  0.00    +0.000 N 
ATOM     16  H   UNL     1       5.619   4.358  16.464  0.00  0.00    +0.000 HD
BRANCH  15  17
ATOM     17  C   UNL     1       6.162   4.683  14.479  0.00  0.00    +0.000 A 
ATOM     18  C   UNL     1       7.340   5.218  13.947  0.00  0.00    +0.000 A 
ATOM     19  C   UNL     1       7.793   4.805  12.690  0.00  0.00    +0.000 A 
ATOM     20  C   UNL     1       7.038   3.906  11.940  0.00  0.00    +0.000 A 
ATOM     21  C   UNL     1       5.844   3.422  12.452  0.00  0.00    +0.000 A 
ATOM     22  F   UNL     1       5.105   2.581  11.713  0.00  0.00    +0.000 F 
ATOM     23  C   UNL     1       5.407   3.782  13.723  0.00  0.00    +0.000 A 
ENDBRANCH  15  17
ENDBRANCH   1  13
TORSDOF 5
ENDMDL
MODEL 4
REMARK VINA RESULT:      -7.7      1.134      1.379
REMARK  Name = 
REMARK  6 active torsions:
REMARK  status: ('A' for Active; 'I' for Inactive)
REMARK    1  A    between atoms: C_1  and  N_2
REMARK    2  A    between atoms: N_2  and  C_3
REMARK    3  A    between atoms: C_3  and  C_4
REMARK    4  A    between atoms: N_6  and  C_7
REMARK    5  A    between atoms: C_14  and  C_16
REMARK    6  A    between atoms: C_16  and  C_17
REMARK                            x       y       z     vdW  Elec       q    Type
REMARK                         _______ _______ _______ _____ _____    ______ ____
ROOT
ATOM      1  C   UNL     1       4.952   6.495  17.410  0.00  0.00    +0.000 C 
ENDROOT
BRANCH   1   3
ATOM      2  C   UNL     1       6.995   5.770  18.706  0.00  0.00    +0.000 C 
ATOM      3  N   UNL     1       5.553   5.721  18.506  0.00  0.00    +0.000 N 
ATOM      4  C   UNL     1       4.983   4.470  18.844  0.00  0.00    +0.000 C 
ATOM      5  O   UNL     1       5.656   3.582  19.366  0.00  0.00    +0.000 OA
BRANCH   4   6
ATOM      6  C   UNL     1       3.485   4.289  18.568  0.00  0.00    +0.000 C 
BRANCH   6   7
ATOM      7  C   UNL     1       2.922   2.869  18.811  0.00  0.00    +0.000 C 
ATOM      8  C   UNL     1       3.364   2.205  20.123  0.00  0.00    +0.000 C 
ATOM      9  C   UNL     1       2.745   2.843  21.362  0.00  0.00    +0.000 C 
ATOM     10  C   UNL     1       1.224   2.890  21.276  0.00  0.00    +0.000 C 
ATOM     11  C   UNL     1       0.751   3.548  19.984  0.00  0.00    +0.000 C 
ATOM     12  C   UNL     1       1.376   2.891  18.752  0.00  0.00    +0.000 C 
ENDBRANCH   6   7
ENDBRANCH   4   6
ENDBRANCH   1   3
BRANCH   1  13
ATOM     13  C   UNL     1       5.246   6.210  15.931  0.00  0.00    +0.000 C 
ATOM     14  O   UNL     1       5.029   7.079  15.088  0.00  0.00    +0.000 OA
ATOM     15  N   UNL     1       5.848   4.994  15.664  0.00  0.00    +0.000 N 
ATOM     16  H   UNL     1       5.715   4.264  16.352  0.00  0.00    +0.000 HD
BRANCH  15  17
ATOM     17  C   UNL     1       6.217   4.603  14.359  0.00  0.00    +0.000 A 
ATOM     18  C   UNL     1       7.352   5.185  13.784  0.00  0.00    +0.000 A 
ATOM     19  C   UNL     1       7.778   4.784  12.514  0.00  0.00    +0.000 A 
ATOM     20  C   UNL     1       7.036   3.850  11.795  0.00  0.00    +0.000 A 
ATOM     21  C   UNL     1       5.882   3.320  12.350  0.00  0.00    +0.000 A 
ATOM     22  F   UNL     1       5.153   2.444  11.640  0.00  0.00    +0.000 F 
ATOM     23  C   UNL     1       5.475   3.668  13.634  0.00  0.00    +0.000 A 
ENDBRANCH  15  17
ENDBRANCH   1  13
TORSDOF 5
ENDMDL
MODEL 5
REMARK VINA RESULT:      -7.7      1.098      1.481
REMARK  Name = 
REMARK  6 active torsions:
REMARK  status: ('A' for Active; 'I' for Inactive)
REMARK    1  A    between atoms: C_1  and  N_2
REMARK    2  A    between atoms: N_2  and  C_3
REMARK    3  A    between atoms: C_3  and  C_4
REMARK    4  A    between atoms: N_6  and  C_7
REMARK    5  A    between atoms: C_14  and  C_16
REMARK    6  A    between atoms: C_16  and  C_17
REMARK                            x       y       z     vdW  Elec       q    Type
REMARK                         _______ _______ _______ _____ _____    ______ ____
ROOT
ATOM      1  C   UNL     1       5.058   6.482  17.573  0.00  0.00    +0.000 C 
ENDROOT
BRANCH   1   3
ATOM      2  C   UNL     1       6.934   5.666  19.055  0.00  0.00    +0.000 C 
ATOM      3  N   UNL     1       5.539   5.591  18.639  0.00  0.00    +0.000 N 
ATOM      4  C   UNL     1       4.997   4.287  18.730  0.00  0.00    +0.000 C 
ATOM      5  O   UNL     1       5.638   3.362  19.229  0.00  0.00    +0.000 OA
BRANCH   4   6
ATOM      6  C   UNL     1       3.566   4.089  18.215  0.00  0.00    +0.000 C 
BRANCH   6   7
ATOM      7  C   UNL     1       2.449   4.743  19.059  0.00  0.00    +0.000 C 
ATOM      8  C   UNL     1       1.039   4.179  18.829  0.00  0.00    +0.000 C 
ATOM      9  C   UNL     1       0.856   2.768  19.377  0.00  0.00    +0.000 C 
ATOM     10  C   UNL     1       1.229   2.679  20.851  0.00  0.00    +0.000 C 
ATOM     11  C   UNL     1       2.628   3.228  21.115  0.00  0.00    +0.000 C 
ATOM     12  C   UNL     1       2.791   4.647  20.566  0.00  0.00    +0.000 C 
ENDBRANCH   6   7
ENDBRANCH   4   6
ENDBRANCH   1   3
BRANCH   1  13
ATOM     13  C   UNL     1       5.299   6.202  16.084  0.00  0.00    +0.000 C 
ATOM     14  O   UNL     1       4.939   7.025  15.243  0.00  0.00    +0.000 OA
ATOM     15  N   UNL     1       6.018   5.056  15.798  0.00  0.00    +0.000 N 
ATOM     16  H   UNL     1       6.007   4.329  16.502  0.00  0.00    +0.000 HD
BRANCH  15  17
ATOM     17  C   UNL     1       6.355   4.684  14.479  0.00  0.00    +0.000 A 
ATOM     18  C   UNL     1       7.456   5.298  13.873  0.00  0.00    +0.000 A 
ATOM     19  C   UNL     1       7.852   4.917  12.586  0.00  0.00    +0.000 A 
ATOM     20  C   UNL     1       7.112   3.970  11.884  0.00  0.00    +0.000 A 
ATOM     21  C   UNL     1       5.989   3.405  12.472  0.00  0.00    +0.000 A 
ATOM     22  F   UNL     1       5.262   2.516  11.780  0.00  0.00    +0.000 F 
ATOM     23  C   UNL     1       5.615   3.735  13.771  0.00  0.00    +0.000 A 
ENDBRANCH  15  17
ENDBRANCH   1  13
TORSDOF 5
ENDMDL
MODEL 6
REMARK VINA RESULT:      -7.7      1.728      2.365
REMARK  Name = 
REMARK  6 active torsions:
REMARK  status: ('A' for Active; 'I' for Inactive)
REMARK    1  A    between atoms: C_1  and  N_2
REMARK    2  A    between atoms: N_2  and  C_3
REMARK    3  A    between atoms: C_3  and  C_4
REMARK    4  A    between atoms: N_6  and  C_7
REMARK    5  A    between atoms: C_14  and  C_16
REMARK    6  A    between atoms: C_16  and  C_17
REMARK                            x       y       z     vdW  Elec       q    Type
REMARK                         _______ _______ _______ _____ _____    ______ ____
ROOT
ATOM      1  C   UNL     1       4.716   6.122  17.797  0.00  0.00    +0.000 C 
ENDROOT
BRANCH   1   3
ATOM      2  C   UNL     1       3.071   8.038  17.724  0.00  0.00    +0.000 C 
ATOM      3  N   UNL     1       3.412   6.691  18.165  0.00  0.00    +0.000 N 
ATOM      4  C   UNL     1       2.856   6.357  19.423  0.00  0.00    +0.000 C 
ATOM      5  O   UNL     1       2.071   7.113  19.996  0.00  0.00    +0.000 OA
BRANCH   4   6
ATOM      6  C   UNL     1       3.244   4.998  20.018  0.00  0.00    +0.000 C 
BRANCH   6   7
ATOM      7  C   UNL     1       2.178   3.883  19.907  0.00  0.00    +0.000 C 
ATOM      8  C   UNL     1       1.434   3.821  18.565  0.00  0.00    +0.000 C 
ATOM      9  C   UNL     1       2.305   3.333  17.413  0.00  0.00    +0.000 C 
ATOM     10  C   UNL     1       2.955   1.990  17.722  0.00  0.00    +0.000 C 
ATOM     11  C   UNL     1       3.707   2.018  19.049  0.00  0.00    +0.000 C 
ATOM     12  C   UNL     1       2.816   2.503  20.195  0.00  0.00    +0.000 C 
ENDBRANCH   6   7
ENDBRANCH   4   6
ENDBRANCH   1   3
BRANCH   1  13
ATOM     13  C   UNL     1       5.194   6.006  16.344  0.00  0.00    +0.000 C 
ATOM     14  O   UNL     1       5.427   7.026  15.696  0.00  0.00    +0.000 OA
ATOM     15  N   UNL     1       5.431   4.721  15.892  0.00  0.00    +0.000 N 
ATOM     16  H   UNL     1       4.946   3.976  16.375  0.00  0.00    +0.000 HD
BRANCH  15  17
ATOM     17  C   UNL     1       5.913   4.454  14.592  0.00  0.00    +0.000 A 
ATOM     18  C   UNL     1       7.133   5.017  14.203  0.00  0.00    +0.000 A 
ATOM     19  C   UNL     1       7.667   4.731  12.942  0.00  0.00    +0.000 A 
ATOM     20  C   UNL     1       6.953   3.936  12.050  0.00  0.00    +0.000 A 
ATOM     21  C   UNL     1       5.718   3.427  12.423  0.00  0.00    +0.000 A 
ATOM     22  F   UNL     1       5.020   2.687  11.548  0.00  0.00    +0.000 F 
ATOM     23  C   UNL     1       5.199   3.658  13.693  0.00  0.00    +0.000 A 
ENDBRANCH  15  17
ENDBRANCH   1  13
TORSDOF 5
ENDMDL
MODEL 7
REMARK VINA RESULT:      -7.5      2.023      2.797
REMARK  Name = 
REMARK  6 active torsions:
REMARK  status: ('A' for Active; 'I' for Inactive)
REMARK    1  A    between atoms: C_1  and  N_2
REMARK    2  A    between atoms: N_2  and  C_3
REMARK    3  A    between atoms: C_3  and  C_4
REMARK    4  A    between atoms: N_6  and  C_7
REMARK    5  A    between atoms: C_14  and  C_16
REMARK    6  A    between atoms: C_16  and  C_17
REMARK                            x       y       z     vdW  Elec       q    Type
REMARK                         _______ _______ _______ _____ _____    ______ ____
ROOT
ATOM      1  C   UNL     1       4.635   6.342  17.794  0.00  0.00    +0.000 C 
ENDROOT
BRANCH   1   3
ATOM      2  C   UNL     1       2.838   8.117  17.765  0.00  0.00    +0.000 C 
ATOM      3  N   UNL     1       3.291   6.796  18.180  0.00  0.00    +0.000 N 
ATOM      4  C   UNL     1       2.775   6.396  19.436  0.00  0.00    +0.000 C 
ATOM      5  O   UNL     1       1.936   7.076  20.027  0.00  0.00    +0.000 OA
BRANCH   4   6
ATOM      6  C   UNL     1       3.278   5.064  20.005  0.00  0.00    +0.000 C 
BRANCH   6   7
ATOM      7  C   UNL     1       2.261   3.900  19.999  0.00  0.00    +0.000 C 
ATOM      8  C   UNL     1       1.384   3.804  18.741  0.00  0.00    +0.000 C 
ATOM      9  C   UNL     1       2.152   3.360  17.502  0.00  0.00    +0.000 C 
ATOM     10  C   UNL     1       2.894   2.049  17.733  0.00  0.00    +0.000 C 
ATOM     11  C   UNL     1       3.778   2.111  18.974  0.00  0.00    +0.000 C 
ATOM     12  C   UNL     1       2.990   2.551  20.210  0.00  0.00    +0.000 C 
ENDBRANCH   6   7
ENDBRANCH   4   6
ENDBRANCH   1   3
BRANCH   1  13
ATOM     13  C   UNL     1       5.073   6.191  16.331  0.00  0.00    +0.000 C 
ATOM     14  O   UNL     1       5.011   7.158  15.573  0.00  0.00    +0.000 OA
ATOM     15  N   UNL     1       5.619   4.966  15.993  0.00  0.00    +0.000 N 
ATOM     16  H   UNL     1       5.362   4.181  16.577  0.00  0.00    +0.000 HD
BRANCH  15  17
ATOM     17  C   UNL     1       6.106   4.687  14.698  0.00  0.00    +0.000 A 
ATOM     18  C   UNL     1       5.408   3.770  13.905  0.00  0.00    +0.000 A 
ATOM     19  C   UNL     1       5.830   3.509  12.598  0.00  0.00    +0.000 A 
ATOM     20  C   UNL     1       6.983   4.115  12.106  0.00  0.00    +0.000 A 
ATOM     21  C   UNL     1       7.701   4.980  12.918  0.00  0.00    +0.000 A 
ATOM     22  F   UNL     1       8.829   5.538  12.451  0.00  0.00    +0.000 F 
ATOM     23  C   UNL     1       7.264   5.292  14.202  0.00  0.00    +0.000 A 
ENDBRANCH  15  17
ENDBRANCH   1  13
TORSDOF 5
ENDMDL
MODEL 8
REMARK VINA RESULT:      -7.5      1.412      1.825
REMARK  Name = 
REMARK  6 active torsions:
REMARK  status: ('A' for Active; 'I' for Inactive)
REMARK    1  A    between atoms: C_1  and  N_2
REMARK    2  A    between atoms: N_2  and  C_3
REMARK    3  A    between atoms: C_3  and  C_4
REMARK    4  A    between atoms: N_6  and  C_7
REMARK    5  A    between atoms: C_14  and  C_16
REMARK    6  A    between atoms: C_16  and  C_17
REMARK                            x       y       z     vdW  Elec       q    Type
REMARK                         _______ _______ _______ _____ _____    ______ ____
ROOT
ATOM      1  C   UNL     1       4.989   6.521  17.457  0.00  0.00    +0.000 C 
ENDROOT
BRANCH   1   3
ATOM      2  C   UNL     1       2.910   7.826  18.055  0.00  0.00    +0.000 C 
ATOM      3  N   UNL     1       3.635   6.562  18.027  0.00  0.00    +0.000 N 
ATOM      4  C   UNL     1       3.337   5.721  19.127  0.00  0.00    +0.000 C 
ATOM      5  O   UNL     1       2.457   6.017  19.937  0.00  0.00    +0.000 OA
BRANCH   4   6
ATOM      6  C   UNL     1       4.128   4.413  19.239  0.00  0.00    +0.000 C 
BRANCH   6   7
ATOM      7  C   UNL     1       3.741   3.301  18.237  0.00  0.00    +0.000 C 
ATOM      8  C   UNL     1       3.365   1.953  18.869  0.00  0.00    +0.000 C 
ATOM      9  C   UNL     1       2.031   1.983  19.608  0.00  0.00    +0.000 C 
ATOM     10  C   UNL     1       0.901   2.486  18.719  0.00  0.00    +0.000 C 
ATOM     11  C   UNL     1       1.241   3.828  18.077  0.00  0.00    +0.000 C 
ATOM     12  C   UNL     1       2.577   3.778  17.334  0.00  0.00    +0.000 C 
ENDBRANCH   6   7
ENDBRANCH   4   6
ENDBRANCH   1   3
BRANCH   1  13
ATOM     13  C   UNL     1       5.258   6.226  15.975  0.00  0.00    +0.000 C 
ATOM     14  O   UNL     1       4.984   7.073  15.125  0.00  0.00    +0.000 OA
ATOM     15  N   UNL     1       5.906   5.033  15.710  0.00  0.00    +0.000 N 
ATOM     16  H   UNL     1       5.821   4.308  16.412  0.00  0.00    +0.000 HD
BRANCH  15  17
ATOM     17  C   UNL     1       6.259   4.639  14.402  0.00  0.00    +0.000 A 
ATOM     18  C   UNL     1       7.389   5.218  13.813  0.00  0.00    +0.000 A 
ATOM     19  C   UNL     1       7.800   4.814  12.539  0.00  0.00    +0.000 A 
ATOM     20  C   UNL     1       7.049   3.879  11.830  0.00  0.00    +0.000 A 
ATOM     21  C   UNL     1       5.900   3.352  12.399  0.00  0.00    +0.000 A 
ATOM     22  F   UNL     1       5.163   2.475  11.700  0.00  0.00    +0.000 F 
ATOM     23  C   UNL     1       5.508   3.704  13.687  0.00  0.00    +0.000 A 
ENDBRANCH  15  17
ENDBRANCH   1  13
TORSDOF 5
ENDMDL
MODEL 9
REMARK VINA RESULT:      -7.2      4.770      6.786
REMARK  Name = 
REMARK  6 active torsions:
REMARK  status: ('A' for Active; 'I' for Inactive)
REMARK    1  A    between atoms: C_1  and  N_2
REMARK    2  A    between atoms: N_2  and  C_3
REMARK    3  A    between atoms: C_3  and  C_4
REMARK    4  A    between atoms: N_6  and  C_7
REMARK    5  A    between atoms: C_14  and  C_16
REMARK    6  A    between atoms: C_16  and  C_17
REMARK                            x       y       z     vdW  Elec       q    Type
REMARK                         _______ _______ _______ _____ _____    ______ ____
ROOT
ATOM      1  C   UNL     1       3.286   6.414  17.885  0.00  0.00    +0.000 C 
ENDROOT
BRANCH   1   3
ATOM      2  C   UNL     1       5.746   6.431  17.313  0.00  0.00    +0.000 C 
ATOM      3  N   UNL     1       4.679   6.128  18.258  0.00  0.00    +0.000 N 
ATOM      4  C   UNL     1       4.947   4.994  19.061  0.00  0.00    +0.000 C 
ATOM      5  O   UNL     1       6.037   4.423  19.017  0.00  0.00    +0.000 OA
BRANCH   4   6
ATOM      6  C   UNL     1       3.837   4.535  20.014  0.00  0.00    +0.000 C 
BRANCH   6   7
ATOM      7  C   UNL     1       3.527   3.020  20.010  0.00  0.00    +0.000 C 
ATOM      8  C   UNL     1       2.381   2.584  20.934  0.00  0.00    +0.000 C 
ATOM      9  C   UNL     1       1.008   3.035  20.448  0.00  0.00    +0.000 C 
ATOM     10  C   UNL     1       0.736   2.587  19.017  0.00  0.00    +0.000 C 
ATOM     11  C   UNL     1       1.856   3.008  18.071  0.00  0.00    +0.000 C 
ATOM     12  C   UNL     1       3.225   2.541  18.569  0.00  0.00    +0.000 C 
ENDBRANCH   6   7
ENDBRANCH   4   6
ENDBRANCH   1   3
BRANCH   1  13
ATOM     13  C   UNL     1       2.488   7.581  18.480  0.00  0.00    +0.000 C 
ATOM     14  O   UNL     1       2.241   7.599  19.686  0.00  0.00    +0.000 OA
ATOM     15  N   UNL     1       2.187   8.609  17.605  0.00  0.00    +0.000 N 
ATOM     16  H   UNL     1       2.171   8.374  16.621  0.00  0.00    +0.000 HD
BRANCH  15  17
ATOM     17  C   UNL     1       1.494   9.769  18.011  0.00  0.00    +0.000 A 
ATOM     18  C   UNL     1       0.100   9.716  18.105  0.00  0.00    +0.000 A 
ATOM     19  C   UNL     1      -0.616  10.830  18.555  0.00  0.00    +0.000 A 
ATOM     20  C   UNL     1       0.055  12.014  18.852  0.00  0.00    +0.000 A 
ATOM     21  C   UNL     1       1.432  12.075  18.704  0.00  0.00    +0.000 A 
ATOM     22  F   UNL     1       2.071  13.227  18.961  0.00  0.00    +0.000 F 
ATOM     23  C   UNL     1       2.164  10.959  18.308  0.00  0.00    +0.000 A 
ENDBRANCH  15  17
ENDBRANCH   1  13
TORSDOF 5
ENDMDL
