MODEL 1
REMARK VINA RESULT:      -6.7      0.000      0.000
REMARK  Name = 
REMARK  12 active torsions:
REMARK  status: ('A' for Active; 'I' for Inactive)
REMARK    1  A    between atoms: C_1  and  O_2
REMARK    2  A    between atoms: O_2  and  C_3
REMARK    3  A    between atoms: C_6  and  S_7
REMARK    4  A    between atoms: S_7  and  N_10
REMARK    5  A    between atoms: N_10  and  C_11
REMARK    6  A    between atoms: N_10  and  C_18
REMARK    7  A    between atoms: C_11  and  C_12
REMARK    8  A    between atoms: C_18  and  C_19
REMARK    9  A    between atoms: C_18  and  C_27
REMARK   10  A    between atoms: C_19  and  C_20
REMARK   11  A    between atoms: C_20  and  N_21
REMARK   12  A    between atoms: N_29  and  O_30
REMARK                            x       y       z     vdW  Elec       q    Type
REMARK                         _______ _______ _______ _____ _____    ______ ____
ROOT
ATOM      1  N   UNL     1      -0.323  11.184  19.570  0.00  0.00    +0.000 NA
ENDROOT
BRANCH   1   2
ATOM      2  S   UNL     1       0.296  10.055  20.745  0.00  0.00    +0.000 S 
ATOM      3  O   UNL     1      -0.794   9.303  21.317  0.00  0.00    +0.000 OA
ATOM      4  O   UNL     1       1.205  10.750  21.626  0.00  0.00    +0.000 OA
BRANCH   2   8
ATOM      5  C   UNL     1       2.595   6.917  18.365  0.00  0.00    +0.000 A 
ATOM      6  C   UNL     1       2.429   6.727  19.747  0.00  0.00    +0.000 A 
ATOM      7  C   UNL     1       1.802   7.696  20.547  0.00  0.00    +0.000 A 
ATOM      8  C   UNL     1       1.378   8.881  19.953  0.00  0.00    +0.000 A 
ATOM      9  C   UNL     1       1.595   9.099  18.581  0.00  0.00    +0.000 A 
ATOM     10  C   UNL     1       2.200   8.120  17.789  0.00  0.00    +0.000 A 
BRANCH   5  12
ATOM     11  C   UNL     1       4.572   5.861  17.598  0.00  0.00    +0.000 C 
ATOM     12  O   UNL     1       3.147   5.870  17.674  0.00  0.00    +0.000 OA
ENDBRANCH   5  12
ENDBRANCH   2   8
ENDBRANCH   1   2
BRANCH   1  13
ATOM     13  C   UNL     1      -1.855  11.226  19.493  0.00  0.00    +0.000 C 
BRANCH  13  14
ATOM     14  C   UNL     1      -2.511  10.871  18.170  0.00  0.00    +0.000 A 
ATOM     15  C   UNL     1      -1.900  10.030  17.228  0.00  0.00    +0.000 A 
ATOM     16  C   UNL     1      -2.409   9.909  15.931  0.00  0.00    +0.000 A 
ATOM     17  C   UNL     1      -3.570  10.584  15.574  0.00  0.00    +0.000 A 
ATOM     18  C   UNL     1      -4.257  11.318  16.534  0.00  0.00    +0.000 A 
ATOM     19  C   UNL     1      -3.744  11.443  17.827  0.00  0.00    +0.000 A 
ENDBRANCH  13  14
ENDBRANCH   1  13
BRANCH   1  20
ATOM     20  C   UNL     1       0.289  12.602  19.701  0.00  0.00    +0.000 C 
BRANCH  20  21
ATOM     21  C   UNL     1      -0.709  13.582  20.342  0.00  0.00    +0.000 C 
ATOM     22  O   UNL     1      -0.939  13.627  21.553  0.00  0.00    +0.000 OA
ATOM     23  N   UNL     1      -1.265  14.512  19.494  0.00  0.00    +0.000 N 
ATOM     24  H   UNL     1      -1.281  14.402  18.485  0.00  0.00    +0.000 HD
BRANCH  23  25
ATOM     25  O   UNL     1      -2.190  15.407  20.076  0.00  0.00    +0.000 OA
ATOM     26  H   UNL     1      -2.490  14.919  20.875  0.00  0.00    +0.000 HD
ENDBRANCH  23  25
ENDBRANCH  20  21
BRANCH  20  27
ATOM     27  C   UNL     1       0.672  13.279  18.361  0.00  0.00    +0.000 C 
BRANCH  27  28
ATOM     28  C   UNL     1       2.061  13.952  18.433  0.00  0.00    +0.000 C 
BRANCH  28  29
ATOM     29  N   UNL     1       2.109  15.145  19.296  0.00  0.00    +0.000 NA
ATOM     30  C   UNL     1       1.723  16.355  18.526  0.00  0.00    +0.000 C 
ATOM     31  C   UNL     1       2.795  16.836  17.525  0.00  0.00    +0.000 C 
ATOM     32  O   UNL     1       4.073  17.018  18.151  0.00  0.00    +0.000 OA
ATOM     33  C   UNL     1       4.489  15.827  18.831  0.00  0.00    +0.000 C 
ATOM     34  C   UNL     1       3.445  15.407  19.876  0.00  0.00    +0.000 C 
ENDBRANCH  28  29
ENDBRANCH  27  28
ENDBRANCH  20  27
ENDBRANCH   1  20
TORSDOF 11
ENDMDL
MODEL 2
REMARK VINA RESULT:      -6.5      1.020      1.413
REMARK  Name = 
REMARK  12 active torsions:
REMARK  status: ('A' for Active; 'I' for Inactive)
REMARK    1  A    between atoms: C_1  and  O_2
REMARK    2  A    between atoms: O_2  and  C_3
REMARK    3  A    between atoms: C_6  and  S_7
REMARK    4  A    between atoms: S_7  and  N_10
REMARK    5  A    between atoms: N_10  and  C_11
REMARK    6  A    between atoms: N_10  and  C_18
REMARK    7  A    between atoms: C_11  and  C_12
REMARK    8  A    between atoms: C_18  and  C_19
REMARK    9  A    between atoms: C_18  and  C_27
REMARK   10  A    between atoms: C_19  and  C_20
REMARK   11  A    between atoms: C_20  and  N_21
REMARK   12  A    between atoms: N_29  and  O_30
REMARK                            x       y       z     vdW  Elec       q    Type
REMARK                         _______ _______ _______ _____ _____    ______ ____
ROOT
ATOM      1  N   UNL     1      -0.062  11.110  19.594  0.00  0.00    +0.000 NA
ENDROOT
BRANCH   1   2
ATOM      2  S   UNL     1       0.402   9.857  20.714  0.00  0.00    +0.000 S 
ATOM      3  O   UNL     1      -0.765   9.118  21.127  0.00  0.00    +0.000 OA
ATOM      4  O   UNL     1       1.261  10.431  21.724  0.00  0.00    +0.000 OA
BRANCH   2   8
ATOM      5  C   UNL     1       2.747   6.785  18.293  0.00  0.00    +0.000 A 
ATOM      6  C   UNL     1       2.512   6.533  19.655  0.00  0.00    +0.000 A 
ATOM      7  C   UNL     1       1.868   7.478  20.472  0.00  0.00    +0.000 A 
ATOM      8  C   UNL     1       1.497   8.699  19.917  0.00  0.00    +0.000 A 
ATOM      9  C   UNL     1       1.782   8.977  18.568  0.00  0.00    +0.000 A 
ATOM     10  C   UNL     1       2.404   8.023  17.759  0.00  0.00    +0.000 A 
BRANCH   5  12
ATOM     11  C   UNL     1       3.574   4.566  18.313  0.00  0.00    +0.000 C 
ATOM     12  O   UNL     1       3.309   5.760  17.579  0.00  0.00    +0.000 OA
ENDBRANCH   5  12
ENDBRANCH   2   8
ENDBRANCH   1   2
BRANCH   1  13
ATOM     13  C   UNL     1      -1.569  11.396  19.569  0.00  0.00    +0.000 C 
BRANCH  13  14
ATOM     14  C   UNL     1      -2.348  11.000  18.326  0.00  0.00    +0.000 A 
ATOM     15  C   UNL     1      -1.827  10.131  17.356  0.00  0.00    +0.000 A 
ATOM     16  C   UNL     1      -2.459   9.969  16.118  0.00  0.00    +0.000 A 
ATOM     17  C   UNL     1      -3.652  10.631  15.855  0.00  0.00    +0.000 A 
ATOM     18  C   UNL     1      -4.247  11.393  16.855  0.00  0.00    +0.000 A 
ATOM     19  C   UNL     1      -3.612  11.559  18.088  0.00  0.00    +0.000 A 
ENDBRANCH  13  14
ENDBRANCH   1  13
BRANCH   1  20
ATOM     20  C   UNL     1       0.772  12.407  19.745  0.00  0.00    +0.000 C 
BRANCH  20  21
ATOM     21  C   UNL     1       0.010  13.466  20.559  0.00  0.00    +0.000 C 
ATOM     22  O   UNL     1      -0.649  14.376  20.048  0.00  0.00    +0.000 OA
ATOM     23  N   UNL     1      -0.001  13.282  21.923  0.00  0.00    +0.000 N 
ATOM     24  H   UNL     1       0.671  12.696  22.408  0.00  0.00    +0.000 HD
BRANCH  23  25
ATOM     25  O   UNL     1      -0.691  14.258  22.676  0.00  0.00    +0.000 OA
ATOM     26  H   UNL     1      -0.021  14.973  22.769  0.00  0.00    +0.000 HD
ENDBRANCH  23  25
ENDBRANCH  20  21
BRANCH  20  27
ATOM     27  C   UNL     1       1.112  13.129  18.416  0.00  0.00    +0.000 C 
BRANCH  27  28
ATOM     28  C   UNL     1       2.626  13.405  18.283  0.00  0.00    +0.000 C 
BRANCH  28  29
ATOM     29  N   UNL     1       2.956  14.787  17.893  0.00  0.00    +0.000 NA
ATOM     30  C   UNL     1       4.425  14.998  17.931  0.00  0.00    +0.000 C 
ATOM     31  C   UNL     1       5.013  15.087  19.355  0.00  0.00    +0.000 C 
ATOM     32  O   UNL     1       4.338  16.067  20.157  0.00  0.00    +0.000 OA
ATOM     33  C   UNL     1       2.927  15.823  20.189  0.00  0.00    +0.000 C 
ATOM     34  C   UNL     1       2.346  15.814  18.767  0.00  0.00    +0.000 C 
ENDBRANCH  28  29
ENDBRANCH  27  28
ENDBRANCH  20  27
ENDBRANCH   1  20
TORSDOF 11
ENDMDL
MODEL 3
REMARK VINA RESULT:      -6.5      0.846      1.074
REMARK  Name = 
REMARK  12 active torsions:
REMARK  status: ('A' for Active; 'I' for Inactive)
REMARK    1  A    between atoms: C_1  and  O_2
REMARK    2  A    between atoms: O_2  and  C_3
REMARK    3  A    between atoms: C_6  and  S_7
REMARK    4  A    between atoms: S_7  and  N_10
REMARK    5  A    between atoms: N_10  and  C_11
REMARK    6  A    between atoms: N_10  and  C_18
REMARK    7  A    between atoms: C_11  and  C_12
REMARK    8  A    between atoms: C_18  and  C_19
REMARK    9  A    between atoms: C_18  and  C_27
REMARK   10  A    between atoms: C_19  and  C_20
REMARK   11  A    between atoms: C_20  and  N_21
REMARK   12  A    between atoms: N_29  and  O_30
REMARK                            x       y       z     vdW  Elec       q    Type
REMARK                         _______ _______ _______ _____ _____    ______ ____
ROOT
ATOM      1  N   UNL     1      -0.004  11.413  19.638  0.00  0.00    +0.000 NA
ENDROOT
BRANCH   1   2
ATOM      2  S   UNL     1       0.399  10.150  20.769  0.00  0.00    +0.000 S 
ATOM      3  O   UNL     1      -0.802   9.476  21.194  0.00  0.00    +0.000 OA
ATOM      4  O   UNL     1       1.291  10.688  21.770  0.00  0.00    +0.000 OA
BRANCH   2   8
ATOM      5  C   UNL     1       2.569   6.927  18.380  0.00  0.00    +0.000 A 
ATOM      6  C   UNL     1       2.351   6.717  19.752  0.00  0.00    +0.000 A 
ATOM      7  C   UNL     1       1.762   7.707  20.557  0.00  0.00    +0.000 A 
ATOM      8  C   UNL     1       1.430   8.929  19.980  0.00  0.00    +0.000 A 
ATOM      9  C   UNL     1       1.699   9.162  18.619  0.00  0.00    +0.000 A 
ATOM     10  C   UNL     1       2.265   8.165  17.822  0.00  0.00    +0.000 A 
BRANCH   5  12
ATOM     11  C   UNL     1       2.376   4.629  17.840  0.00  0.00    +0.000 C 
ATOM     12  O   UNL     1       3.074   5.863  17.680  0.00  0.00    +0.000 OA
ENDBRANCH   5  12
ENDBRANCH   2   8
ENDBRANCH   1   2
BRANCH   1  13
ATOM     13  C   UNL     1      -1.508  11.701  19.536  0.00  0.00    +0.000 C 
BRANCH  13  14
ATOM     14  C   UNL     1      -2.269  11.102  18.366  0.00  0.00    +0.000 A 
ATOM     15  C   UNL     1      -1.672  10.227  17.447  0.00  0.00    +0.000 A 
ATOM     16  C   UNL     1      -2.318   9.880  16.256  0.00  0.00    +0.000 A 
ATOM     17  C   UNL     1      -3.596  10.357  15.993  0.00  0.00    +0.000 A 
ATOM     18  C   UNL     1      -4.252  11.120  16.954  0.00  0.00    +0.000 A 
ATOM     19  C   UNL     1      -3.603  11.472  18.140  0.00  0.00    +0.000 A 
ENDBRANCH  13  14
ENDBRANCH   1  13
BRANCH   1  20
ATOM     20  C   UNL     1       0.821  12.708  19.845  0.00  0.00    +0.000 C 
BRANCH  20  21
ATOM     21  C   UNL     1      -0.095  13.916  20.103  0.00  0.00    +0.000 C 
ATOM     22  O   UNL     1      -0.347  14.352  21.229  0.00  0.00    +0.000 OA
ATOM     23  N   UNL     1      -0.542  14.581  18.984  0.00  0.00    +0.000 N 
ATOM     24  H   UNL     1      -0.545  14.166  18.058  0.00  0.00    +0.000 HD
BRANCH  23  25
ATOM     25  O   UNL     1      -1.393  15.685  19.216  0.00  0.00    +0.000 OA
ATOM     26  H   UNL     1      -1.145  16.305  18.494  0.00  0.00    +0.000 HD
ENDBRANCH  23  25
ENDBRANCH  20  21
BRANCH  20  27
ATOM     27  C   UNL     1       1.680  13.142  18.630  0.00  0.00    +0.000 C 
BRANCH  27  28
ATOM     28  C   UNL     1       2.729  14.207  19.019  0.00  0.00    +0.000 C 
BRANCH  28  29
ATOM     29  N   UNL     1       2.606  15.474  18.277  0.00  0.00    +0.000 NA
ATOM     30  C   UNL     1       3.876  15.785  17.572  0.00  0.00    +0.000 C 
ATOM     31  C   UNL     1       5.016  16.253  18.502  0.00  0.00    +0.000 C 
ATOM     32  O   UNL     1       4.615  17.349  19.336  0.00  0.00    +0.000 OA
ATOM     33  C   UNL     1       3.433  17.027  20.079  0.00  0.00    +0.000 C 
ATOM     34  C   UNL     1       2.287  16.638  19.133  0.00  0.00    +0.000 C 
ENDBRANCH  28  29
ENDBRANCH  27  28
ENDBRANCH  20  27
ENDBRANCH   1  20
TORSDOF 11
ENDMDL
MODEL 4
REMARK VINA RESULT:      -6.4      1.361      2.132
REMARK  Name = 
REMARK  12 active torsions:
REMARK  status: ('A' for Active; 'I' for Inactive)
REMARK    1  A    between atoms: C_1  and  O_2
REMARK    2  A    between atoms: O_2  and  C_3
REMARK    3  A    between atoms: C_6  and  S_7
REMARK    4  A    between atoms: S_7  and  N_10
REMARK    5  A    between atoms: N_10  and  C_11
REMARK    6  A    between atoms: N_10  and  C_18
REMARK    7  A    between atoms: C_11  and  C_12
REMARK    8  A    between atoms: C_18  and  C_19
REMARK    9  A    between atoms: C_18  and  C_27
REMARK   10  A    between atoms: C_19  and  C_20
REMARK   11  A    between atoms: C_20  and  N_21
REMARK   12  A    between atoms: N_29  and  O_30
REMARK                            x       y       z     vdW  Elec       q    Type
REMARK                         _______ _______ _______ _____ _____    ______ ____
ROOT
ATOM      1  N   UNL     1      -0.766  11.222  20.001  0.00  0.00    +0.000 NA
ENDROOT
BRANCH   1   2
ATOM      2  S   UNL     1       0.334  10.192  20.876  0.00  0.00    +0.000 S 
ATOM      3  O   UNL     1      -0.396   9.407  21.840  0.00  0.00    +0.000 OA
ATOM      4  O   UNL     1       1.456  10.983  21.324  0.00  0.00    +0.000 OA
BRANCH   2   8
ATOM      5  C   UNL     1       2.836   7.332  18.353  0.00  0.00    +0.000 A 
ATOM      6  C   UNL     1       2.307   8.483  17.744  0.00  0.00    +0.000 A 
ATOM      7  C   UNL     1       1.462   9.357  18.447  0.00  0.00    +0.000 A 
ATOM      8  C   UNL     1       1.118   9.046  19.759  0.00  0.00    +0.000 A 
ATOM      9  C   UNL     1       1.600   7.865  20.353  0.00  0.00    +0.000 A 
ATOM     10  C   UNL     1       2.457   7.012  19.653  0.00  0.00    +0.000 A 
BRANCH   5  12
ATOM     11  C   UNL     1       3.517   5.184  17.623  0.00  0.00    +0.000 C 
ATOM     12  O   UNL     1       3.711   6.598  17.597  0.00  0.00    +0.000 OA
ENDBRANCH   5  12
ENDBRANCH   2   8
ENDBRANCH   1   2
BRANCH   1  13
ATOM     13  C   UNL     1      -2.071  10.528  19.587  0.00  0.00    +0.000 C 
BRANCH  13  14
ATOM     14  C   UNL     1      -2.541  10.696  18.152  0.00  0.00    +0.000 A 
ATOM     15  C   UNL     1      -3.638  11.500  17.807  0.00  0.00    +0.000 A 
ATOM     16  C   UNL     1      -4.193  11.452  16.524  0.00  0.00    +0.000 A 
ATOM     17  C   UNL     1      -3.623  10.641  15.550  0.00  0.00    +0.000 A 
ATOM     18  C   UNL     1      -2.459   9.938  15.840  0.00  0.00    +0.000 A 
ATOM     19  C   UNL     1      -1.910   9.982  17.124  0.00  0.00    +0.000 A 
ENDBRANCH  13  14
ENDBRANCH   1  13
BRANCH   1  20
ATOM     20  C   UNL     1      -1.028  12.577  20.704  0.00  0.00    +0.000 C 
BRANCH  20  21
ATOM     21  C   UNL     1      -2.278  12.508  21.598  0.00  0.00    +0.000 C 
ATOM     22  O   UNL     1      -3.395  12.887  21.238  0.00  0.00    +0.000 OA
ATOM     23  N   UNL     1      -2.116  11.879  22.811  0.00  0.00    +0.000 N 
ATOM     24  H   UNL     1      -1.208  11.737  23.243  0.00  0.00    +0.000 HD
BRANCH  23  25
ATOM     25  O   UNL     1      -3.258  11.822  23.639  0.00  0.00    +0.000 OA
ATOM     26  H   UNL     1      -3.976  12.126  23.038  0.00  0.00    +0.000 HD
ENDBRANCH  23  25
ENDBRANCH  20  21
BRANCH  20  27
ATOM     27  C   UNL     1      -1.313  13.767  19.753  0.00  0.00    +0.000 C 
BRANCH  27  28
ATOM     28  C   UNL     1      -0.022  14.287  19.081  0.00  0.00    +0.000 C 
BRANCH  28  29
ATOM     29  N   UNL     1       1.191  14.130  19.903  0.00  0.00    +0.000 NA
ATOM     30  C   UNL     1       1.626  15.446  20.438  0.00  0.00    +0.000 C 
ATOM     31  C   UNL     1       2.264  16.376  19.385  0.00  0.00    +0.000 C 
ATOM     32  O   UNL     1       3.335  15.736  18.677  0.00  0.00    +0.000 OA
ATOM     33  C   UNL     1       2.901  14.503  18.091  0.00  0.00    +0.000 C 
ATOM     34  C   UNL     1       2.340  13.559  19.166  0.00  0.00    +0.000 C 
ENDBRANCH  28  29
ENDBRANCH  27  28
ENDBRANCH  20  27
ENDBRANCH   1  20
TORSDOF 11
ENDMDL
MODEL 5
REMARK VINA RESULT:      -6.4      5.471     10.385
REMARK  Name = 
REMARK  12 active torsions:
REMARK  status: ('A' for Active; 'I' for Inactive)
REMARK    1  A    between atoms: C_1  and  O_2
REMARK    2  A    between atoms: O_2  and  C_3
REMARK    3  A    between atoms: C_6  and  S_7
REMARK    4  A    between atoms: S_7  and  N_10
REMARK    5  A    between atoms: N_10  and  C_11
REMARK    6  A    between atoms: N_10  and  C_18
REMARK    7  A    between atoms: C_11  and  C_12
REMARK    8  A    between atoms: C_18  and  C_19
REMARK    9  A    between atoms: C_18  and  C_27
REMARK   10  A    between atoms: C_19  and  C_20
REMARK   11  A    between atoms: C_20  and  N_21
REMARK   12  A    between atoms: N_29  and  O_30
REMARK                            x       y       z     vdW  Elec       q    Type
REMARK                         _______ _______ _______ _____ _____    ______ ____
ROOT
ATOM      1  N   UNL     1       5.297   5.221  16.465  0.00  0.00    +0.000 NA
ENDROOT
BRANCH   1   2
ATOM      2  S   UNL     1       5.050   6.943  16.582  0.00  0.00    +0.000 S 
ATOM      3  O   UNL     1       4.763   7.483  15.276  0.00  0.00    +0.000 OA
ATOM      4  O   UNL     1       6.126   7.516  17.355  0.00  0.00    +0.000 OA
BRANCH   2   8
ATOM      5  C   UNL     1       1.675   8.374  19.296  0.00  0.00    +0.000 A 
ATOM      6  C   UNL     1       2.444   7.269  19.700  0.00  0.00    +0.000 A 
ATOM      7  C   UNL     1       3.442   6.732  18.871  0.00  0.00    +0.000 A 
ATOM      8  C   UNL     1       3.636   7.288  17.610  0.00  0.00    +0.000 A 
ATOM      9  C   UNL     1       2.830   8.357  17.180  0.00  0.00    +0.000 A 
ATOM     10  C   UNL     1       1.854   8.899  18.020  0.00  0.00    +0.000 A 
BRANCH   5  12
ATOM     11  C   UNL     1       0.788  10.278  20.389  0.00  0.00    +0.000 C 
ATOM     12  O   UNL     1       0.788   8.861  20.218  0.00  0.00    +0.000 OA
ENDBRANCH   5  12
ENDBRANCH   2   8
ENDBRANCH   1   2
BRANCH   1  13
ATOM     13  C   UNL     1       6.506   4.823  15.608  0.00  0.00    +0.000 C 
BRANCH  13  14
ATOM     14  C   UNL     1       6.255   4.432  14.161  0.00  0.00    +0.000 A 
ATOM     15  C   UNL     1       5.035   3.896  13.727  0.00  0.00    +0.000 A 
ATOM     16  C   UNL     1       4.907   3.328  12.455  0.00  0.00    +0.000 A 
ATOM     17  C   UNL     1       5.984   3.341  11.577  0.00  0.00    +0.000 A 
ATOM     18  C   UNL     1       7.161   3.984  11.946  0.00  0.00    +0.000 A 
ATOM     19  C   UNL     1       7.288   4.544  13.220  0.00  0.00    +0.000 A 
ENDBRANCH  13  14
ENDBRANCH   1  13
BRANCH   1  20
ATOM     20  C   UNL     1       5.301   4.507  17.840  0.00  0.00    +0.000 C 
BRANCH  20  21
ATOM     21  C   UNL     1       6.662   4.655  18.540  0.00  0.00    +0.000 C 
ATOM     22  O   UNL     1       7.723   4.246  18.061  0.00  0.00    +0.000 OA
ATOM     23  N   UNL     1       6.663   5.389  19.704  0.00  0.00    +0.000 N 
ATOM     24  H   UNL     1       5.823   5.568  20.245  0.00  0.00    +0.000 HD
BRANCH  23  25
ATOM     25  O   UNL     1       7.909   5.518  20.356  0.00  0.00    +0.000 OA
ATOM     26  H   UNL     1       8.513   5.004  19.772  0.00  0.00    +0.000 HD
ENDBRANCH  23  25
ENDBRANCH  20  21
BRANCH  20  27
ATOM     27  C   UNL     1       5.071   2.976  17.786  0.00  0.00    +0.000 C 
BRANCH  27  28
ATOM     28  C   UNL     1       3.815   2.554  18.581  0.00  0.00    +0.000 C 
BRANCH  28  29
ATOM     29  N   UNL     1       2.965   3.680  19.007  0.00  0.00    +0.000 NA
ATOM     30  C   UNL     1       2.751   3.638  20.477  0.00  0.00    +0.000 C 
ATOM     31  C   UNL     1       1.789   2.524  20.942  0.00  0.00    +0.000 C 
ATOM     32  O   UNL     1       0.535   2.569  20.246  0.00  0.00    +0.000 OA
ATOM     33  C   UNL     1       0.731   2.531  18.827  0.00  0.00    +0.000 C 
ATOM     34  C   UNL     1       1.629   3.691  18.373  0.00  0.00    +0.000 C 
ENDBRANCH  28  29
ENDBRANCH  27  28
ENDBRANCH  20  27
ENDBRANCH   1  20
TORSDOF 11
ENDMDL
MODEL 6
REMARK VINA RESULT:      -6.3      1.365      1.905
REMARK  Name = 
REMARK  12 active torsions:
REMARK  status: ('A' for Active; 'I' for Inactive)
REMARK    1  A    between atoms: C_1  and  O_2
REMARK    2  A    between atoms: O_2  and  C_3
REMARK    3  A    between atoms: C_6  and  S_7
REMARK    4  A    between atoms: S_7  and  N_10
REMARK    5  A    between atoms: N_10  and  C_11
REMARK    6  A    between atoms: N_10  and  C_18
REMARK    7  A    between atoms: C_11  and  C_12
REMARK    8  A    between atoms: C_18  and  C_19
REMARK    9  A    between atoms: C_18  and  C_27
REMARK   10  A    between atoms: C_19  and  C_20
REMARK   11  A    between atoms: C_20  and  N_21
REMARK   12  A    between atoms: N_29  and  O_30
REMARK                            x       y       z     vdW  Elec       q    Type
REMARK                         _______ _______ _______ _____ _____    ______ ____
ROOT
ATOM      1  N   UNL     1      -0.538  10.758  19.670  0.00  0.00    +0.000 NA
ENDROOT
BRANCH   1   2
ATOM      2  S   UNL     1       0.318   9.755  20.810  0.00  0.00    +0.000 S 
ATOM      3  O   UNL     1      -0.614   8.896  21.497  0.00  0.00    +0.000 OA
ATOM      4  O   UNL     1       1.207  10.587  21.587  0.00  0.00    +0.000 OA
BRANCH   2   8
ATOM      5  C   UNL     1       2.804   6.937  18.225  0.00  0.00    +0.000 A 
ATOM      6  C   UNL     1       2.586   6.602  19.572  0.00  0.00    +0.000 A 
ATOM      7  C   UNL     1       1.899   7.468  20.438  0.00  0.00    +0.000 A 
ATOM      8  C   UNL     1       1.466   8.697  19.951  0.00  0.00    +0.000 A 
ATOM      9  C   UNL     1       1.732   9.060  18.618  0.00  0.00    +0.000 A 
ATOM     10  C   UNL     1       2.397   8.184  17.758  0.00  0.00    +0.000 A 
BRANCH   5  12
ATOM     11  C   UNL     1       4.682   6.342  16.911  0.00  0.00    +0.000 C 
ATOM     12  O   UNL     1       3.413   5.982  17.456  0.00  0.00    +0.000 OA
ENDBRANCH   5  12
ENDBRANCH   2   8
ENDBRANCH   1   2
BRANCH   1  13
ATOM     13  C   UNL     1      -1.956  10.267  19.351  0.00  0.00    +0.000 C 
BRANCH  13  14
ATOM     14  C   UNL     1      -2.499  10.519  17.954  0.00  0.00    +0.000 A 
ATOM     15  C   UNL     1      -3.603  11.348  17.713  0.00  0.00    +0.000 A 
ATOM     16  C   UNL     1      -4.225  11.377  16.461  0.00  0.00    +0.000 A 
ATOM     17  C   UNL     1      -3.715  10.619  15.414  0.00  0.00    +0.000 A 
ATOM     18  C   UNL     1      -2.545   9.892  15.602  0.00  0.00    +0.000 A 
ATOM     19  C   UNL     1      -1.929   9.859  16.856  0.00  0.00    +0.000 A 
ENDBRANCH  13  14
ENDBRANCH   1  13
BRANCH   1  20
ATOM     20  C   UNL     1      -0.517  12.263  20.040  0.00  0.00    +0.000 C 
BRANCH  20  21
ATOM     21  C   UNL     1      -1.691  12.626  20.965  0.00  0.00    +0.000 C 
ATOM     22  O   UNL     1      -2.636  13.339  20.619  0.00  0.00    +0.000 OA
ATOM     23  N   UNL     1      -1.701  12.007  22.194  0.00  0.00    +0.000 N 
ATOM     24  H   UNL     1      -0.876  11.588  22.609  0.00  0.00    +0.000 HD
BRANCH  23  25
ATOM     25  O   UNL     1      -2.773  12.345  23.051  0.00  0.00    +0.000 OA
ATOM     26  H   UNL     1      -2.745  13.329  23.053  0.00  0.00    +0.000 HD
ENDBRANCH  23  25
ENDBRANCH  20  21
BRANCH  20  27
ATOM     27  C   UNL     1      -0.667  13.237  18.844  0.00  0.00    +0.000 C 
BRANCH  27  28
ATOM     28  C   UNL     1       0.521  14.221  18.751  0.00  0.00    +0.000 C 
BRANCH  28  29
ATOM     29  N   UNL     1       0.442  15.351  19.693  0.00  0.00    +0.000 NA
ATOM     30  C   UNL     1      -0.722  16.215  19.367  0.00  0.00    +0.000 C 
ATOM     31  C   UNL     1      -0.535  17.074  18.098  0.00  0.00    +0.000 C 
ATOM     32  O   UNL     1       0.674  17.845  18.143  0.00  0.00    +0.000 OA
ATOM     33  C   UNL     1       1.812  17.007  18.379  0.00  0.00    +0.000 C 
ATOM     34  C   UNL     1       1.642  16.218  19.685  0.00  0.00    +0.000 C 
ENDBRANCH  28  29
ENDBRANCH  27  28
ENDBRANCH  20  27
ENDBRANCH   1  20
TORSDOF 11
ENDMDL
MODEL 7
REMARK VINA RESULT:      -6.3      2.197      4.329
REMARK  Name = 
REMARK  12 active torsions:
REMARK  status: ('A' for Active; 'I' for Inactive)
REMARK    1  A    between atoms: C_1  and  O_2
REMARK    2  A    between atoms: O_2  and  C_3
REMARK    3  A    between atoms: C_6  and  S_7
REMARK    4  A    between atoms: S_7  and  N_10
REMARK    5  A    between atoms: N_10  and  C_11
REMARK    6  A    between atoms: N_10  and  C_18
REMARK    7  A    between atoms: C_11  and  C_12
REMARK    8  A    between atoms: C_18  and  C_19
REMARK    9  A    between atoms: C_18  and  C_27
REMARK   10  A    between atoms: C_19  and  C_20
REMARK   11  A    between atoms: C_20  and  N_21
REMARK   12  A    between atoms: N_29  and  O_30
REMARK                            x       y       z     vdW  Elec       q    Type
REMARK                         _______ _______ _______ _____ _____    ______ ____
ROOT
ATOM      1  N   UNL     1      -0.547  11.034  19.216  0.00  0.00    +0.000 NA
ENDROOT
BRANCH   1   2
ATOM      2  S   UNL     1       0.386  10.578  20.617  0.00  0.00    +0.000 S 
ATOM      3  O   UNL     1      -0.499  10.303  21.721  0.00  0.00    +0.000 OA
ATOM      4  O   UNL     1       1.453  11.533  20.797  0.00  0.00    +0.000 OA
BRANCH   2   8
ATOM      5  C   UNL     1       2.274   6.622  19.358  0.00  0.00    +0.000 A 
ATOM      6  C   UNL     1       1.839   6.770  20.686  0.00  0.00    +0.000 A 
ATOM      7  C   UNL     1       1.325   7.990  21.154  0.00  0.00    +0.000 A 
ATOM      8  C   UNL     1       1.289   9.078  20.287  0.00  0.00    +0.000 A 
ATOM      9  C   UNL     1       1.776   8.949  18.974  0.00  0.00    +0.000 A 
ATOM     10  C   UNL     1       2.266   7.726  18.510  0.00  0.00    +0.000 A 
BRANCH   5  12
ATOM     11  C   UNL     1       2.016   4.806  17.859  0.00  0.00    +0.000 C 
ATOM     12  O   UNL     1       2.680   5.366  18.992  0.00  0.00    +0.000 OA
ENDBRANCH   5  12
ENDBRANCH   2   8
ENDBRANCH   1   2
BRANCH   1  13
ATOM     13  C   UNL     1      -1.878  10.284  19.083  0.00  0.00    +0.000 C 
BRANCH  13  14
ATOM     14  C   UNL     1      -2.610  10.364  17.755  0.00  0.00    +0.000 A 
ATOM     15  C   UNL     1      -2.117   9.768  16.585  0.00  0.00    +0.000 A 
ATOM     16  C   UNL     1      -2.680  10.053  15.336  0.00  0.00    +0.000 A 
ATOM     17  C   UNL     1      -3.782  10.894  15.246  0.00  0.00    +0.000 A 
ATOM     18  C   UNL     1      -4.362  11.389  16.410  0.00  0.00    +0.000 A 
ATOM     19  C   UNL     1      -3.794  11.109  17.655  0.00  0.00    +0.000 A 
ENDBRANCH  13  14
ENDBRANCH   1  13
BRANCH   1  20
ATOM     20  C   UNL     1      -0.728  12.567  19.073  0.00  0.00    +0.000 C 
BRANCH  20  21
ATOM     21  C   UNL     1       0.549  13.230  18.530  0.00  0.00    +0.000 C 
ATOM     22  O   UNL     1       0.840  14.412  18.727  0.00  0.00    +0.000 OA
ATOM     23  N   UNL     1       1.437  12.392  17.894  0.00  0.00    +0.000 N 
ATOM     24  H   UNL     1       1.173  11.484  17.525  0.00  0.00    +0.000 HD
BRANCH  23  25
ATOM     25  O   UNL     1       2.606  12.999  17.384  0.00  0.00    +0.000 OA
ATOM     26  H   UNL     1       2.735  12.534  16.527  0.00  0.00    +0.000 HD
ENDBRANCH  23  25
ENDBRANCH  20  21
BRANCH  20  27
ATOM     27  C   UNL     1      -1.009  13.322  20.397  0.00  0.00    +0.000 C 
BRANCH  27  28
ATOM     28  C   UNL     1      -2.515  13.339  20.741  0.00  0.00    +0.000 C 
BRANCH  28  29
ATOM     29  N   UNL     1      -2.846  14.091  21.965  0.00  0.00    +0.000 NA
ATOM     30  C   UNL     1      -2.321  13.386  23.162  0.00  0.00    +0.000 C 
ATOM     31  C   UNL     1      -3.105  12.112  23.539  0.00  0.00    +0.000 C 
ATOM     32  O   UNL     1      -4.511  12.364  23.673  0.00  0.00    +0.000 OA
ATOM     33  C   UNL     1      -5.041  12.973  22.489  0.00  0.00    +0.000 C 
ATOM     34  C   UNL     1      -4.299  14.280  22.173  0.00  0.00    +0.000 C 
ENDBRANCH  28  29
ENDBRANCH  27  28
ENDBRANCH  20  27
ENDBRANCH   1  20
TORSDOF 11
ENDMDL
MODEL 8
REMARK VINA RESULT:      -6.3      0.882      1.354
REMARK  Name = 
REMARK  12 active torsions:
REMARK  status: ('A' for Active; 'I' for Inactive)
REMARK    1  A    between atoms: C_1  and  O_2
REMARK    2  A    between atoms: O_2  and  C_3
REMARK    3  A    between atoms: C_6  and  S_7
REMARK    4  A    between atoms: S_7  and  N_10
REMARK    5  A    between atoms: N_10  and  C_11
REMARK    6  A    between atoms: N_10  and  C_18
REMARK    7  A    between atoms: C_11  and  C_12
REMARK    8  A    between atoms: C_18  and  C_19
REMARK    9  A    between atoms: C_18  and  C_27
REMARK   10  A    between atoms: C_19  and  C_20
REMARK   11  A    between atoms: C_20  and  N_21
REMARK   12  A    between atoms: N_29  and  O_30
REMARK                            x       y       z     vdW  Elec       q    Type
REMARK                         _______ _______ _______ _____ _____    ______ ____
ROOT
ATOM      1  N   UNL     1      -0.164  11.438  19.666  0.00  0.00    +0.000 NA
ENDROOT
BRANCH   1   2
ATOM      2  S   UNL     1       0.343  10.126  20.696  0.00  0.00    +0.000 S 
ATOM      3  O   UNL     1      -0.812   9.504  21.295  0.00  0.00    +0.000 OA
ATOM      4  O   UNL     1       1.409  10.591  21.552  0.00  0.00    +0.000 OA
BRANCH   2   8
ATOM      5  C   UNL     1       2.921   7.002  18.600  0.00  0.00    +0.000 A 
ATOM      6  C   UNL     1       2.497   8.126  17.872  0.00  0.00    +0.000 A 
ATOM      7  C   UNL     1       1.636   9.080  18.437  0.00  0.00    +0.000 A 
ATOM      8  C   UNL     1       1.167   8.875  19.731  0.00  0.00    +0.000 A 
ATOM      9  C   UNL     1       1.543   7.722  20.443  0.00  0.00    +0.000 A 
ATOM     10  C   UNL     1       2.418   6.789  19.880  0.00  0.00    +0.000 A 
BRANCH   5  12
ATOM     11  C   UNL     1       4.612   6.794  16.955  0.00  0.00    +0.000 C 
ATOM     12  O   UNL     1       3.823   6.183  17.975  0.00  0.00    +0.000 OA
ENDBRANCH   5  12
ENDBRANCH   2   8
ENDBRANCH   1   2
BRANCH   1  13
ATOM     13  C   UNL     1      -1.685  11.627  19.602  0.00  0.00    +0.000 C 
BRANCH  13  14
ATOM     14  C   UNL     1      -2.413  11.120  18.369  0.00  0.00    +0.000 A 
ATOM     15  C   UNL     1      -1.827  10.224  17.463  0.00  0.00    +0.000 A 
ATOM     16  C   UNL     1      -2.420   9.958  16.224  0.00  0.00    +0.000 A 
ATOM     17  C   UNL     1      -3.638  10.542  15.897  0.00  0.00    +0.000 A 
ATOM     18  C   UNL     1      -4.294  11.330  16.836  0.00  0.00    +0.000 A 
ATOM     19  C   UNL     1      -3.697  11.600  18.071  0.00  0.00    +0.000 A 
ENDBRANCH  13  14
ENDBRANCH   1  13
BRANCH   1  20
ATOM     20  C   UNL     1       0.573  12.769  19.961  0.00  0.00    +0.000 C 
BRANCH  20  21
ATOM     21  C   UNL     1      -0.230  13.646  20.936  0.00  0.00    +0.000 C 
ATOM     22  O   UNL     1      -0.903  14.618  20.582  0.00  0.00    +0.000 OA
ATOM     23  N   UNL     1      -0.261  13.218  22.243  0.00  0.00    +0.000 N 
ATOM     24  H   UNL     1       0.418  12.570  22.629  0.00  0.00    +0.000 HD
BRANCH  23  25
ATOM     25  O   UNL     1      -0.989  14.027  23.144  0.00  0.00    +0.000 OA
ATOM     26  H   UNL     1      -0.340  14.184  23.867  0.00  0.00    +0.000 HD
ENDBRANCH  23  25
ENDBRANCH  20  21
BRANCH  20  27
ATOM     27  C   UNL     1       0.796  13.684  18.730  0.00  0.00    +0.000 C 
BRANCH  27  28
ATOM     28  C   UNL     1       2.295  13.964  18.485  0.00  0.00    +0.000 C 
BRANCH  28  29
ATOM     29  N   UNL     1       2.951  14.724  19.563  0.00  0.00    +0.000 NA
ATOM     30  C   UNL     1       2.317  16.059  19.713  0.00  0.00    +0.000 C 
ATOM     31  C   UNL     1       2.663  17.052  18.582  0.00  0.00    +0.000 C 
ATOM     32  O   UNL     1       4.079  17.179  18.391  0.00  0.00    +0.000 OA
ATOM     33  C   UNL     1       4.686  15.901  18.168  0.00  0.00    +0.000 C 
ATOM     34  C   UNL     1       4.396  14.951  19.339  0.00  0.00    +0.000 C 
ENDBRANCH  28  29
ENDBRANCH  27  28
ENDBRANCH  20  27
ENDBRANCH   1  20
TORSDOF 11
ENDMDL
MODEL 9
REMARK VINA RESULT:      -6.2      4.055      6.913
REMARK  Name = 
REMARK  12 active torsions:
REMARK  status: ('A' for Active; 'I' for Inactive)
REMARK    1  A    between atoms: C_1  and  O_2
REMARK    2  A    between atoms: O_2  and  C_3
REMARK    3  A    between atoms: C_6  and  S_7
REMARK    4  A    between atoms: S_7  and  N_10
REMARK    5  A    between atoms: N_10  and  C_11
REMARK    6  A    between atoms: N_10  and  C_18
REMARK    7  A    between atoms: C_11  and  C_12
REMARK    8  A    between atoms: C_18  and  C_19
REMARK    9  A    between atoms: C_18  and  C_27
REMARK   10  A    between atoms: C_19  and  C_20
REMARK   11  A    between atoms: C_20  and  N_21
REMARK   12  A    between atoms: N_29  and  O_30
REMARK                            x       y       z     vdW  Elec       q    Type
REMARK                         _______ _______ _______ _____ _____    ______ ____
ROOT
ATOM      1  N   UNL     1      -3.847  13.625  21.142  0.00  0.00    +0.000 NA
ENDROOT
BRANCH   1   2
ATOM      2  S   UNL     1      -5.138  12.916  20.209  0.00  0.00    +0.000 S 
ATOM      3  O   UNL     1      -5.967  13.958  19.656  0.00  0.00    +0.000 OA
ATOM      4  O   UNL     1      -5.757  11.870  20.989  0.00  0.00    +0.000 OA
BRANCH   2   8
ATOM      5  C   UNL     1      -3.122  11.079  16.553  0.00  0.00    +0.000 A 
ATOM      6  C   UNL     1      -4.525  11.155  16.584  0.00  0.00    +0.000 A 
ATOM      7  C   UNL     1      -5.206  11.634  17.714  0.00  0.00    +0.000 A 
ATOM      8  C   UNL     1      -4.467  12.000  18.835  0.00  0.00    +0.000 A 
ATOM      9  C   UNL     1      -3.066  11.872  18.829  0.00  0.00    +0.000 A 
ATOM     10  C   UNL     1      -2.396  11.414  17.692  0.00  0.00    +0.000 A 
BRANCH   5  12
ATOM     11  C   UNL     1      -3.478  10.160  14.400  0.00  0.00    +0.000 C 
ATOM     12  O   UNL     1      -2.566  10.672  15.370  0.00  0.00    +0.000 OA
ENDBRANCH   5  12
ENDBRANCH   2   8
ENDBRANCH   1   2
BRANCH   1  13
ATOM     13  C   UNL     1      -4.068  15.104  21.487  0.00  0.00    +0.000 C 
BRANCH  13  14
ATOM     14  C   UNL     1      -3.283  16.142  20.703  0.00  0.00    +0.000 A 
ATOM     15  C   UNL     1      -3.896  17.240  20.083  0.00  0.00    +0.000 A 
ATOM     16  C   UNL     1      -3.194  18.043  19.178  0.00  0.00    +0.000 A 
ATOM     17  C   UNL     1      -1.850  17.793  18.923  0.00  0.00    +0.000 A 
ATOM     18  C   UNL     1      -1.196  16.788  19.629  0.00  0.00    +0.000 A 
ATOM     19  C   UNL     1      -1.901  15.983  20.527  0.00  0.00    +0.000 A 
ENDBRANCH  13  14
ENDBRANCH   1  13
BRANCH   1  20
ATOM     20  C   UNL     1      -3.463  12.790  22.390  0.00  0.00    +0.000 C 
BRANCH  20  21
ATOM     21  C   UNL     1      -3.997  13.438  23.679  0.00  0.00    +0.000 C 
ATOM     22  O   UNL     1      -5.152  13.293  24.086  0.00  0.00    +0.000 OA
ATOM     23  N   UNL     1      -3.070  14.112  24.441  0.00  0.00    +0.000 N 
ATOM     24  H   UNL     1      -2.182  14.437  24.073  0.00  0.00    +0.000 HD
BRANCH  23  25
ATOM     25  O   UNL     1      -3.559  14.717  25.620  0.00  0.00    +0.000 OA
ATOM     26  H   UNL     1      -3.798  15.622  25.316  0.00  0.00    +0.000 HD
ENDBRANCH  23  25
ENDBRANCH  20  21
BRANCH  20  27
ATOM     27  C   UNL     1      -1.941  12.650  22.644  0.00  0.00    +0.000 C 
BRANCH  27  28
ATOM     28  C   UNL     1      -1.552  11.205  23.028  0.00  0.00    +0.000 C 
BRANCH  28  29
ATOM     29  N   UNL     1      -0.118  10.906  22.878  0.00  0.00    +0.000 NA
ATOM     30  C   UNL     1       0.344  11.261  21.511  0.00  0.00    +0.000 C 
ATOM     31  C   UNL     1      -0.140  10.293  20.410  0.00  0.00    +0.000 C 
ATOM     32  O   UNL     1       0.177   8.928  20.715  0.00  0.00    +0.000 OA
ATOM     33  C   UNL     1      -0.333   8.554  22.000  0.00  0.00    +0.000 C 
ATOM     34  C   UNL     1       0.220   9.481  23.093  0.00  0.00    +0.000 C 
ENDBRANCH  28  29
ENDBRANCH  27  28
ENDBRANCH  20  27
ENDBRANCH   1  20
TORSDOF 11
ENDMDL
