MODEL 1
REMARK VINA RESULT:      -7.9      0.000      0.000
REMARK  Name = 
REMARK  5 active torsions:
REMARK  status: ('A' for Active; 'I' for Inactive)
REMARK    1  A    between atoms: C_1  and  C_2
REMARK    2  A    between atoms: C_2  and  C_3
REMARK    3  A    between atoms: C_8  and  C_9
REMARK    4  A    between atoms: C_9  and  C_11
REMARK    5  A    between atoms: C_11  and  N_12
REMARK                            x       y       z     vdW  Elec       q    Type
REMARK                         _______ _______ _______ _____ _____    ______ ____
ROOT
ATOM      1  C   UNL     1       2.346   3.919  17.750  0.00  0.00    +0.000 C 
ATOM      2  O   UNL     1       1.375   3.603  17.060  0.00  0.00    +0.000 OA
ENDROOT
BRANCH   1   8
ATOM      3  C   UNL     1       1.710   8.133  20.407  0.00  0.00    +0.000 A 
ATOM      4  C   UNL     1       1.726   9.031  19.324  0.00  0.00    +0.000 A 
ATOM      5  C   UNL     1       1.928   8.594  18.017  0.00  0.00    +0.000 A 
ATOM      6  C   UNL     1       2.113   7.236  17.739  0.00  0.00    +0.000 A 
ATOM      7  C   UNL     1       2.100   6.297  18.794  0.00  0.00    +0.000 A 
ATOM      8  C   UNL     1       2.205   4.864  18.865  0.00  0.00    +0.000 A 
ATOM      9  C   UNL     1       2.107   4.532  20.203  0.00  0.00    +0.000 A 
ATOM     10  N   UNL     1       1.915   5.678  20.924  0.00  0.00    +0.000 N 
ATOM     11  C   UNL     1       1.901   6.773  20.091  0.00  0.00    +0.000 A 
ATOM     12  H   UNL     1       1.778   5.719  21.924  0.00  0.00    +0.000 HD
BRANCH   3  14
ATOM     13  C   UNL     1       0.121   9.381  21.885  0.00  0.00    +0.000 C 
ATOM     14  C   UNL     1       1.443   8.633  21.805  0.00  0.00    +0.000 C 
ENDBRANCH   3  14
ENDBRANCH   1   8
BRANCH   1  15
ATOM     15  C   UNL     1       3.697   3.230  17.540  0.00  0.00    +0.000 C 
BRANCH  15  16
ATOM     16  N   UNL     1       4.761   4.195  17.732  0.00  0.00    +0.000 N 
ATOM     17  C   UNL     1       5.134   5.110  16.784  0.00  0.00    +0.000 C 
ATOM     18  O   UNL     1       4.697   5.265  15.660  0.00  0.00    +0.000 OA
ATOM     19  C   UNL     1       6.228   5.886  17.360  0.00  0.00    +0.000 A 
ATOM     20  C   UNL     1       6.945   6.950  16.843  0.00  0.00    +0.000 A 
ATOM     21  C   UNL     1       7.947   7.496  17.651  0.00  0.00    +0.000 A 
ATOM     22  C   UNL     1       8.211   6.970  18.934  0.00  0.00    +0.000 A 
ATOM     23  C   UNL     1       7.481   5.883  19.427  0.00  0.00    +0.000 A 
ATOM     24  C   UNL     1       6.491   5.365  18.613  0.00  0.00    +0.000 A 
ATOM     25  C   UNL     1       5.576   4.243  18.830  0.00  0.00    +0.000 C 
ATOM     26  O   UNL     1       5.627   3.492  19.784  0.00  0.00    +0.000 OA
ENDBRANCH  15  16
ENDBRANCH   1  15
TORSDOF 4
ENDMDL
MODEL 2
REMARK VINA RESULT:      -7.9      0.242      1.760
REMARK  Name = 
REMARK  5 active torsions:
REMARK  status: ('A' for Active; 'I' for Inactive)
REMARK    1  A    between atoms: C_1  and  C_2
REMARK    2  A    between atoms: C_2  and  C_3
REMARK    3  A    between atoms: C_8  and  C_9
REMARK    4  A    between atoms: C_9  and  C_11
REMARK    5  A    between atoms: C_11  and  N_12
REMARK                            x       y       z     vdW  Elec       q    Type
REMARK                         _______ _______ _______ _____ _____    ______ ____
ROOT
ATOM      1  C   UNL     1       2.390   4.131  17.687  0.00  0.00    +0.000 C 
ATOM      2  O   UNL     1       1.439   3.868  16.950  0.00  0.00    +0.000 OA
ENDROOT
BRANCH   1   8
ATOM      3  C   UNL     1       1.632   8.235  20.481  0.00  0.00    +0.000 A 
ATOM      4  C   UNL     1       1.595   9.165  19.426  0.00  0.00    +0.000 A 
ATOM      5  C   UNL     1       1.791   8.776  18.103  0.00  0.00    +0.000 A 
ATOM      6  C   UNL     1       2.026   7.435  17.781  0.00  0.00    +0.000 A 
ATOM      7  C   UNL     1       2.067   6.466  18.807  0.00  0.00    +0.000 A 
ATOM      8  C   UNL     1       2.231   5.036  18.832  0.00  0.00    +0.000 A 
ATOM      9  C   UNL     1       2.169   4.661  20.161  0.00  0.00    +0.000 A 
ATOM     10  N   UNL     1       1.944   5.776  20.920  0.00  0.00    +0.000 N 
ATOM     11  C   UNL     1       1.872   6.894  20.121  0.00  0.00    +0.000 A 
ATOM     12  H   UNL     1       1.822   5.782  21.922  0.00  0.00    +0.000 HD
BRANCH   3  14
ATOM     13  C   UNL     1      -0.072   9.131  22.081  0.00  0.00    +0.000 C 
ATOM     14  C   UNL     1       1.369   8.682  21.898  0.00  0.00    +0.000 C 
ENDBRANCH   3  14
ENDBRANCH   1   8
BRANCH   1  15
ATOM     15  C   UNL     1       3.730   3.415  17.500  0.00  0.00    +0.000 C 
BRANCH  15  16
ATOM     16  N   UNL     1       4.810   4.354  17.728  0.00  0.00    +0.000 N 
ATOM     17  C   UNL     1       5.593   4.351  18.851  0.00  0.00    +0.000 C 
ATOM     18  O   UNL     1       5.523   3.629  19.827  0.00  0.00    +0.000 OA
ATOM     19  C   UNL     1       6.551   5.441  18.697  0.00  0.00    +0.000 A 
ATOM     20  C   UNL     1       7.582   5.856  19.520  0.00  0.00    +0.000 A 
ATOM     21  C   UNL     1       8.343   6.947  19.090  0.00  0.00    +0.000 A 
ATOM     22  C   UNL     1       8.057   7.593  17.868  0.00  0.00    +0.000 A 
ATOM     23  C   UNL     1       6.999   7.163  17.060  0.00  0.00    +0.000 A 
ATOM     24  C   UNL     1       6.266   6.078  17.504  0.00  0.00    +0.000 A 
ATOM     25  C   UNL     1       5.111   5.405  16.905  0.00  0.00    +0.000 C 
ATOM     26  O   UNL     1       4.531   5.795  15.911  0.00  0.00    +0.000 OA
ENDBRANCH  15  16
ENDBRANCH   1  15
TORSDOF 4
ENDMDL
MODEL 3
REMARK VINA RESULT:      -7.5      3.060      6.949
REMARK  Name = 
REMARK  5 active torsions:
REMARK  status: ('A' for Active; 'I' for Inactive)
REMARK    1  A    between atoms: C_1  and  C_2
REMARK    2  A    between atoms: C_2  and  C_3
REMARK    3  A    between atoms: C_8  and  C_9
REMARK    4  A    between atoms: C_9  and  C_11
REMARK    5  A    between atoms: C_11  and  N_12
REMARK                            x       y       z     vdW  Elec       q    Type
REMARK                         _______ _______ _______ _____ _____    ______ ____
ROOT
ATOM      1  C   UNL     1       6.644   5.672  16.987  0.00  0.00    +0.000 C 
ATOM      2  O   UNL     1       7.800   5.534  17.392  0.00  0.00    +0.000 OA
ENDROOT
BRANCH   1   8
ATOM      3  C   UNL     1       6.174   3.611  12.431  0.00  0.00    +0.000 A 
ATOM      4  C   UNL     1       7.231   4.302  11.813  0.00  0.00    +0.000 A 
ATOM      5  C   UNL     1       7.981   5.255  12.499  0.00  0.00    +0.000 A 
ATOM      6  C   UNL     1       7.706   5.550  13.838  0.00  0.00    +0.000 A 
ATOM      7  C   UNL     1       6.657   4.877  14.502  0.00  0.00    +0.000 A 
ATOM      8  C   UNL     1       6.145   4.894  15.847  0.00  0.00    +0.000 A 
ATOM      9  C   UNL     1       5.099   3.990  15.876  0.00  0.00    +0.000 A 
ATOM     10  N   UNL     1       4.983   3.416  14.640  0.00  0.00    +0.000 N 
ATOM     11  C   UNL     1       5.924   3.933  13.780  0.00  0.00    +0.000 A 
ATOM     12  H   UNL     1       4.320   2.696  14.394  0.00  0.00    +0.000 HD
BRANCH   3  14
ATOM     13  C   UNL     1       4.089   3.088  11.148  0.00  0.00    +0.000 C 
ATOM     14  C   UNL     1       5.412   2.552  11.674  0.00  0.00    +0.000 C 
ENDBRANCH   3  14
ENDBRANCH   1   8
BRANCH   1  15
ATOM     15  C   UNL     1       5.663   6.567  17.749  0.00  0.00    +0.000 C 
BRANCH  15  16
ATOM     16  N   UNL     1       4.673   5.739  18.407  0.00  0.00    +0.000 N 
ATOM     17  C   UNL     1       3.327   5.988  18.364  0.00  0.00    +0.000 C 
ATOM     18  O   UNL     1       2.739   6.907  17.828  0.00  0.00    +0.000 OA
ATOM     19  C   UNL     1       2.682   4.936  19.144  0.00  0.00    +0.000 A 
ATOM     20  C   UNL     1       1.344   4.696  19.396  0.00  0.00    +0.000 A 
ATOM     21  C   UNL     1       1.032   3.586  20.188  0.00  0.00    +0.000 A 
ATOM     22  C   UNL     1       2.051   2.758  20.706  0.00  0.00    +0.000 A 
ATOM     23  C   UNL     1       3.399   3.031  20.448  0.00  0.00    +0.000 A 
ATOM     24  C   UNL     1       3.680   4.129  19.658  0.00  0.00    +0.000 A 
ATOM     25  C   UNL     1       4.965   4.679  19.221  0.00  0.00    +0.000 C 
ATOM     26  O   UNL     1       6.047   4.275  19.601  0.00  0.00    +0.000 OA
ENDBRANCH  15  16
ENDBRANCH   1  15
TORSDOF 4
ENDMDL
MODEL 4
REMARK VINA RESULT:      -7.2      3.025      7.080
REMARK  Name = 
REMARK  5 active torsions:
REMARK  status: ('A' for Active; 'I' for Inactive)
REMARK    1  A    between atoms: C_1  and  C_2
REMARK    2  A    between atoms: C_2  and  C_3
REMARK    3  A    between atoms: C_8  and  C_9
REMARK    4  A    between atoms: C_9  and  C_11
REMARK    5  A    between atoms: C_11  and  N_12
REMARK                            x       y       z     vdW  Elec       q    Type
REMARK                         _______ _______ _______ _____ _____    ______ ____
ROOT
ATOM      1  C   UNL     1       6.660   5.585  17.081  0.00  0.00    +0.000 C 
ATOM      2  O   UNL     1       7.804   5.403  17.504  0.00  0.00    +0.000 OA
ENDROOT
BRANCH   1   8
ATOM      3  C   UNL     1       6.169   3.642  12.476  0.00  0.00    +0.000 A 
ATOM      4  C   UNL     1       7.224   4.349  11.870  0.00  0.00    +0.000 A 
ATOM      5  C   UNL     1       7.977   5.283  12.578  0.00  0.00    +0.000 A 
ATOM      6  C   UNL     1       7.708   5.543  13.925  0.00  0.00    +0.000 A 
ATOM      7  C   UNL     1       6.662   4.854  14.576  0.00  0.00    +0.000 A 
ATOM      8  C   UNL     1       6.156   4.836  15.923  0.00  0.00    +0.000 A 
ATOM      9  C   UNL     1       5.109   3.933  15.934  0.00  0.00    +0.000 A 
ATOM     10  N   UNL     1       4.988   3.391  14.684  0.00  0.00    +0.000 N 
ATOM     11  C   UNL     1       5.926   3.930  13.833  0.00  0.00    +0.000 A 
ATOM     12  H   UNL     1       4.323   2.678  14.423  0.00  0.00    +0.000 HD
BRANCH   3  14
ATOM     13  C   UNL     1       4.095   3.164  11.158  0.00  0.00    +0.000 C 
ATOM     14  C   UNL     1       5.403   2.603  11.695  0.00  0.00    +0.000 C 
ENDBRANCH   3  14
ENDBRANCH   1   8
BRANCH   1  15
ATOM     15  C   UNL     1       5.696   6.504  17.836  0.00  0.00    +0.000 C 
BRANCH  15  16
ATOM     16  N   UNL     1       4.678   5.701  18.482  0.00  0.00    +0.000 N 
ATOM     17  C   UNL     1       4.953   4.596  19.242  0.00  0.00    +0.000 C 
ATOM     18  O   UNL     1       6.030   4.087  19.485  0.00  0.00    +0.000 OA
ATOM     19  C   UNL     1       3.670   4.078  19.707  0.00  0.00    +0.000 A 
ATOM     20  C   UNL     1       3.378   3.003  20.527  0.00  0.00    +0.000 A 
ATOM     21  C   UNL     1       2.029   2.756  20.800  0.00  0.00    +0.000 A 
ATOM     22  C   UNL     1       1.018   3.573  20.249  0.00  0.00    +0.000 A 
ATOM     23  C   UNL     1       1.339   4.646  19.410  0.00  0.00    +0.000 A 
ATOM     24  C   UNL     1       2.680   4.873  19.161  0.00  0.00    +0.000 A 
ATOM     25  C   UNL     1       3.331   5.889  18.332  0.00  0.00    +0.000 C 
ATOM     26  O   UNL     1       2.738   6.671  17.616  0.00  0.00    +0.000 OA
ENDBRANCH  15  16
ENDBRANCH   1  15
TORSDOF 4
ENDMDL
MODEL 5
REMARK VINA RESULT:      -7.1      1.634      2.574
REMARK  Name = 
REMARK  5 active torsions:
REMARK  status: ('A' for Active; 'I' for Inactive)
REMARK    1  A    between atoms: C_1  and  C_2
REMARK    2  A    between atoms: C_2  and  C_3
REMARK    3  A    between atoms: C_8  and  C_9
REMARK    4  A    between atoms: C_9  and  C_11
REMARK    5  A    between atoms: C_11  and  N_12
REMARK                            x       y       z     vdW  Elec       q    Type
REMARK                         _______ _______ _______ _____ _____    ______ ____
ROOT
ATOM      1  C   UNL     1       2.476   3.783  19.776  0.00  0.00    +0.000 C 
ATOM      2  O   UNL     1       1.575   2.968  19.567  0.00  0.00    +0.000 OA
ENDROOT
BRANCH   1   8
ATOM      3  C   UNL     1       1.804   8.732  19.248  0.00  0.00    +0.000 A 
ATOM      4  C   UNL     1       2.300   8.840  17.936  0.00  0.00    +0.000 A 
ATOM      5  C   UNL     1       2.807   7.737  17.254  0.00  0.00    +0.000 A 
ATOM      6  C   UNL     1       2.831   6.475  17.856  0.00  0.00    +0.000 A 
ATOM      7  C   UNL     1       2.340   6.317  19.171  0.00  0.00    +0.000 A 
ATOM      8  C   UNL     1       2.171   5.192  20.052  0.00  0.00    +0.000 A 
ATOM      9  C   UNL     1       1.619   5.690  21.218  0.00  0.00    +0.000 A 
ATOM     10  N   UNL     1       1.420   7.035  21.066  0.00  0.00    +0.000 N 
ATOM     11  C   UNL     1       1.845   7.447  19.824  0.00  0.00    +0.000 A 
ATOM     12  H   UNL     1       0.997   7.640  21.755  0.00  0.00    +0.000 HD
BRANCH   3  14
ATOM     13  C   UNL     1       0.503  10.851  18.959  0.00  0.00    +0.000 C 
ATOM     14  C   UNL     1       1.219   9.937  19.941  0.00  0.00    +0.000 C 
ENDBRANCH   3  14
ENDBRANCH   1   8
BRANCH   1  15
ATOM     15  C   UNL     1       3.930   3.314  19.880  0.00  0.00    +0.000 C 
BRANCH  15  16
ATOM     16  N   UNL     1       4.645   3.703  18.682  0.00  0.00    +0.000 N 
ATOM     17  C   UNL     1       5.742   4.523  18.687  0.00  0.00    +0.000 C 
ATOM     18  O   UNL     1       6.278   5.072  19.629  0.00  0.00    +0.000 OA
ATOM     19  C   UNL     1       6.161   4.669  17.296  0.00  0.00    +0.000 A 
ATOM     20  C   UNL     1       7.225   5.359  16.746  0.00  0.00    +0.000 A 
ATOM     21  C   UNL     1       7.371   5.306  15.356  0.00  0.00    +0.000 A 
ATOM     22  C   UNL     1       6.458   4.581  14.560  0.00  0.00    +0.000 A 
ATOM     23  C   UNL     1       5.381   3.903  15.140  0.00  0.00    +0.000 A 
ATOM     24  C   UNL     1       5.263   3.965  16.516  0.00  0.00    +0.000 A 
ATOM     25  C   UNL     1       4.258   3.384  17.409  0.00  0.00    +0.000 C 
ATOM     26  O   UNL     1       3.258   2.806  17.030  0.00  0.00    +0.000 OA
ENDBRANCH  15  16
ENDBRANCH   1  15
TORSDOF 4
ENDMDL
MODEL 6
REMARK VINA RESULT:      -7.1      1.683      2.399
REMARK  Name = 
REMARK  5 active torsions:
REMARK  status: ('A' for Active; 'I' for Inactive)
REMARK    1  A    between atoms: C_1  and  C_2
REMARK    2  A    between atoms: C_2  and  C_3
REMARK    3  A    between atoms: C_8  and  C_9
REMARK    4  A    between atoms: C_9  and  C_11
REMARK    5  A    between atoms: C_11  and  N_12
REMARK                            x       y       z     vdW  Elec       q    Type
REMARK                         _______ _______ _______ _____ _____    ______ ____
ROOT
ATOM      1  C   UNL     1       2.417   4.112  19.876  0.00  0.00    +0.000 C 
ATOM      2  O   UNL     1       1.526   3.288  19.663  0.00  0.00    +0.000 OA
ENDROOT
BRANCH   1   8
ATOM      3  C   UNL     1       1.712   9.040  19.211  0.00  0.00    +0.000 A 
ATOM      4  C   UNL     1       2.221   9.118  17.902  0.00  0.00    +0.000 A 
ATOM      5  C   UNL     1       2.744   8.001  17.255  0.00  0.00    +0.000 A 
ATOM      6  C   UNL     1       2.772   6.756  17.890  0.00  0.00    +0.000 A 
ATOM      7  C   UNL     1       2.267   6.629  19.203  0.00  0.00    +0.000 A 
ATOM      8  C   UNL     1       2.098   5.525  20.111  0.00  0.00    +0.000 A 
ATOM      9  C   UNL     1       1.530   6.049  21.258  0.00  0.00    +0.000 A 
ATOM     10  N   UNL     1       1.321   7.387  21.069  0.00  0.00    +0.000 N 
ATOM     11  C   UNL     1       1.756   7.771  19.821  0.00  0.00    +0.000 A 
ATOM     12  H   UNL     1       0.886   8.007  21.738  0.00  0.00    +0.000 HD
BRANCH   3  14
ATOM     13  C   UNL     1       1.284  11.498  19.003  0.00  0.00    +0.000 C 
ATOM     14  C   UNL     1       1.110  10.257  19.867  0.00  0.00    +0.000 C 
ENDBRANCH   3  14
ENDBRANCH   1   8
BRANCH   1  15
ATOM     15  C   UNL     1       3.870   3.653  20.028  0.00  0.00    +0.000 C 
BRANCH  15  16
ATOM     16  N   UNL     1       4.601   3.969  18.817  0.00  0.00    +0.000 N 
ATOM     17  C   UNL     1       4.374   3.357  17.614  0.00  0.00    +0.000 C 
ATOM     18  O   UNL     1       3.589   2.468  17.347  0.00  0.00    +0.000 OA
ATOM     19  C   UNL     1       5.306   3.951  16.661  0.00  0.00    +0.000 A 
ATOM     20  C   UNL     1       5.477   3.721  15.308  0.00  0.00    +0.000 A 
ATOM     21  C   UNL     1       6.466   4.462  14.654  0.00  0.00    +0.000 A 
ATOM     22  C   UNL     1       7.254   5.397  15.359  0.00  0.00    +0.000 A 
ATOM     23  C   UNL     1       7.072   5.601  16.731  0.00  0.00    +0.000 A 
ATOM     24  C   UNL     1       6.083   4.861  17.352  0.00  0.00    +0.000 A 
ATOM     25  C   UNL     1       5.659   4.835  18.754  0.00  0.00    +0.000 C 
ATOM     26  O   UNL     1       6.222   5.429  19.651  0.00  0.00    +0.000 OA
ENDBRANCH  15  16
ENDBRANCH   1  15
TORSDOF 4
ENDMDL
MODEL 7
REMARK VINA RESULT:      -7.0      2.347      3.458
REMARK  Name = 
REMARK  5 active torsions:
REMARK  status: ('A' for Active; 'I' for Inactive)
REMARK    1  A    between atoms: C_1  and  C_2
REMARK    2  A    between atoms: C_2  and  C_3
REMARK    3  A    between atoms: C_8  and  C_9
REMARK    4  A    between atoms: C_9  and  C_11
REMARK    5  A    between atoms: C_11  and  N_12
REMARK                            x       y       z     vdW  Elec       q    Type
REMARK                         _______ _______ _______ _____ _____    ______ ____
ROOT
ATOM      1  C   UNL     1       4.028   6.748  17.713  0.00  0.00    +0.000 C 
ATOM      2  O   UNL     1       3.892   7.343  16.643  0.00  0.00    +0.000 OA
ENDROOT
BRANCH   1   8
ATOM      3  C   UNL     1       0.505   8.770  20.666  0.00  0.00    +0.000 A 
ATOM      4  C   UNL     1       0.256   9.915  19.889  0.00  0.00    +0.000 A 
ATOM      5  C   UNL     1       0.967  10.171  18.718  0.00  0.00    +0.000 A 
ATOM      6  C   UNL     1       1.953   9.285  18.274  0.00  0.00    +0.000 A 
ATOM      7  C   UNL     1       2.234   8.119  19.020  0.00  0.00    +0.000 A 
ATOM      8  C   UNL     1       3.119   7.000  18.838  0.00  0.00    +0.000 A 
ATOM      9  C   UNL     1       2.922   6.167  19.924  0.00  0.00    +0.000 A 
ATOM     10  N   UNL     1       1.949   6.709  20.719  0.00  0.00    +0.000 N 
ATOM     11  C   UNL     1       1.505   7.900  20.190  0.00  0.00    +0.000 A 
ATOM     12  H   UNL     1       1.586   6.288  21.561  0.00  0.00    +0.000 HD
BRANCH   3  14
ATOM     13  C   UNL     1       0.012   9.484  23.014  0.00  0.00    +0.000 C 
ATOM     14  C   UNL     1      -0.315   8.498  21.903  0.00  0.00    +0.000 C 
ENDBRANCH   3  14
ENDBRANCH   1   8
BRANCH   1  15
ATOM     15  C   UNL     1       5.072   5.636  17.849  0.00  0.00    +0.000 C 
BRANCH  15  16
ATOM     16  N   UNL     1       5.531   5.248  16.530  0.00  0.00    +0.000 N 
ATOM     17  C   UNL     1       4.918   4.291  15.766  0.00  0.00    +0.000 C 
ATOM     18  O   UNL     1       3.952   3.604  16.035  0.00  0.00    +0.000 OA
ATOM     19  C   UNL     1       5.679   4.198  14.524  0.00  0.00    +0.000 A 
ATOM     20  C   UNL     1       5.475   3.416  13.402  0.00  0.00    +0.000 A 
ATOM     21  C   UNL     1       6.388   3.557  12.352  0.00  0.00    +0.000 A 
ATOM     22  C   UNL     1       7.471   4.456  12.450  0.00  0.00    +0.000 A 
ATOM     23  C   UNL     1       7.664   5.225  13.603  0.00  0.00    +0.000 A 
ATOM     24  C   UNL     1       6.744   5.073  14.623  0.00  0.00    +0.000 A 
ATOM     25  C   UNL     1       6.673   5.713  15.938  0.00  0.00    +0.000 C 
ATOM     26  O   UNL     1       7.530   6.447  16.390  0.00  0.00    +0.000 OA
ENDBRANCH  15  16
ENDBRANCH   1  15
TORSDOF 4
ENDMDL
MODEL 8
REMARK VINA RESULT:      -6.8      2.784      5.409
REMARK  Name = 
REMARK  5 active torsions:
REMARK  status: ('A' for Active; 'I' for Inactive)
REMARK    1  A    between atoms: C_1  and  C_2
REMARK    2  A    between atoms: C_2  and  C_3
REMARK    3  A    between atoms: C_8  and  C_9
REMARK    4  A    between atoms: C_9  and  C_11
REMARK    5  A    between atoms: C_11  and  N_12
REMARK                            x       y       z     vdW  Elec       q    Type
REMARK                         _______ _______ _______ _____ _____    ______ ____
ROOT
ATOM      1  C   UNL     1       1.637   8.772  18.728  0.00  0.00    +0.000 C 
ATOM      2  O   UNL     1       1.270   8.425  17.603  0.00  0.00    +0.000 OA
ENDROOT
BRANCH   1   8
ATOM      3  C   UNL     1      -0.704  11.533  22.209  0.00  0.00    +0.000 A 
ATOM      4  C   UNL     1      -0.928  10.499  23.136  0.00  0.00    +0.000 A 
ATOM      5  C   UNL     1      -0.546   9.186  22.871  0.00  0.00    +0.000 A 
ATOM      6  C   UNL     1       0.084   8.855  21.667  0.00  0.00    +0.000 A 
ATOM      7  C   UNL     1       0.334   9.861  20.708  0.00  0.00    +0.000 A 
ATOM      8  C   UNL     1       0.985   9.886  19.425  0.00  0.00    +0.000 A 
ATOM      9  C   UNL     1       0.916  11.194  18.979  0.00  0.00    +0.000 A 
ATOM     10  N   UNL     1       0.294  11.949  19.936  0.00  0.00    +0.000 N 
ATOM     11  C   UNL     1      -0.069  11.164  21.007  0.00  0.00    +0.000 A 
ATOM     12  H   UNL     1       0.142  12.945  19.881  0.00  0.00    +0.000 HD
BRANCH   3  14
ATOM     13  C   UNL     1      -2.572  13.066  22.863  0.00  0.00    +0.000 C 
ATOM     14  C   UNL     1      -1.088  12.952  22.545  0.00  0.00    +0.000 C 
ENDBRANCH   3  14
ENDBRANCH   1   8
BRANCH   1  15
ATOM     15  C   UNL     1       2.698   7.960  19.475  0.00  0.00    +0.000 C 
BRANCH  15  16
ATOM     16  N   UNL     1       2.545   6.556  19.147  0.00  0.00    +0.000 N 
ATOM     17  C   UNL     1       1.844   5.670  19.920  0.00  0.00    +0.000 C 
ATOM     18  O   UNL     1       1.275   5.863  20.977  0.00  0.00    +0.000 OA
ATOM     19  C   UNL     1       1.930   4.375  19.252  0.00  0.00    +0.000 A 
ATOM     20  C   UNL     1       1.377   3.152  19.587  0.00  0.00    +0.000 A 
ATOM     21  C   UNL     1       1.638   2.077  18.731  0.00  0.00    +0.000 A 
ATOM     22  C   UNL     1       2.440   2.246  17.582  0.00  0.00    +0.000 A 
ATOM     23  C   UNL     1       3.000   3.490  17.273  0.00  0.00    +0.000 A 
ATOM     24  C   UNL     1       2.721   4.538  18.130  0.00  0.00    +0.000 A 
ATOM     25  C   UNL     1       3.157   5.935  18.093  0.00  0.00    +0.000 C 
ATOM     26  O   UNL     1       3.963   6.380  17.300  0.00  0.00    +0.000 OA
ENDBRANCH  15  16
ENDBRANCH   1  15
TORSDOF 4
ENDMDL
MODEL 9
REMARK VINA RESULT:      -6.8      2.469      6.934
REMARK  Name = 
REMARK  5 active torsions:
REMARK  status: ('A' for Active; 'I' for Inactive)
REMARK    1  A    between atoms: C_1  and  C_2
REMARK    2  A    between atoms: C_2  and  C_3
REMARK    3  A    between atoms: C_8  and  C_9
REMARK    4  A    between atoms: C_9  and  C_11
REMARK    5  A    between atoms: C_11  and  N_12
REMARK                            x       y       z     vdW  Elec       q    Type
REMARK                         _______ _______ _______ _____ _____    ______ ____
ROOT
ATOM      1  C   UNL     1       4.902   5.519  18.571  0.00  0.00    +0.000 C 
ATOM      2  O   UNL     1       5.288   5.375  19.732  0.00  0.00    +0.000 OA
ENDROOT
BRANCH   1   8
ATOM      3  C   UNL     1       7.191   5.009  14.130  0.00  0.00    +0.000 A 
ATOM      4  C   UNL     1       6.342   4.019  13.604  0.00  0.00    +0.000 A 
ATOM      5  C   UNL     1       5.288   3.491  14.347  0.00  0.00    +0.000 A 
ATOM      6  C   UNL     1       5.037   3.941  15.647  0.00  0.00    +0.000 A 
ATOM      7  C   UNL     1       5.861   4.937  16.215  0.00  0.00    +0.000 A 
ATOM      8  C   UNL     1       5.861   5.646  17.467  0.00  0.00    +0.000 A 
ATOM      9  C   UNL     1       6.933   6.518  17.420  0.00  0.00    +0.000 A 
ATOM     10  N   UNL     1       7.545   6.392  16.203  0.00  0.00    +0.000 N 
ATOM     11  C   UNL     1       6.910   5.437  15.442  0.00  0.00    +0.000 A 
ATOM     12  H   UNL     1       8.336   6.937  15.892  0.00  0.00    +0.000 HD
BRANCH   3  14
ATOM     13  C   UNL     1       7.837   5.813  11.849  0.00  0.00    +0.000 C 
ATOM     14  C   UNL     1       8.294   5.592  13.283  0.00  0.00    +0.000 C 
ENDBRANCH   3  14
ENDBRANCH   1   8
BRANCH   1  15
ATOM     15  C   UNL     1       3.410   5.436  18.239  0.00  0.00    +0.000 C 
BRANCH  15  16
ATOM     16  N   UNL     1       2.725   6.569  18.830  0.00  0.00    +0.000 N 
ATOM     17  C   UNL     1       2.113   6.529  20.054  0.00  0.00    +0.000 C 
ATOM     18  O   UNL     1       2.004   5.594  20.822  0.00  0.00    +0.000 OA
ATOM     19  C   UNL     1       1.548   7.856  20.282  0.00  0.00    +0.000 A 
ATOM     20  C   UNL     1       0.858   8.365  21.366  0.00  0.00    +0.000 A 
ATOM     21  C   UNL     1       0.441   9.698  21.290  0.00  0.00    +0.000 A 
ATOM     22  C   UNL     1       0.714  10.477  20.145  0.00  0.00    +0.000 A 
ATOM     23  C   UNL     1       1.401   9.933  19.054  0.00  0.00    +0.000 A 
ATOM     24  C   UNL     1       1.808   8.616  19.157  0.00  0.00    +0.000 A 
ATOM     25  C   UNL     1       2.525   7.768  18.203  0.00  0.00    +0.000 C 
ATOM     26  O   UNL     1       2.796   8.096  17.064  0.00  0.00    +0.000 OA
ENDBRANCH  15  16
ENDBRANCH   1  15
TORSDOF 4
ENDMDL
