MODEL 1
REMARK VINA RESULT:      -7.3      0.000      0.000
REMARK  Name = 
REMARK  10 active torsions:
REMARK  status: ('A' for Active; 'I' for Inactive)
REMARK    1  A    between atoms: C_1  and  C_2
REMARK    2  A    between atoms: C_2  and  C_3
REMARK    3  A    between atoms: C_4  and  C_5
REMARK    4  A    between atoms: N_7  and  O_8
REMARK    5  A    between atoms: C_9  and  C_10
REMARK    6  A    between atoms: C_10  and  C_11
REMARK    7  A    between atoms: C_10  and  S_12
REMARK    8  A    between atoms: S_12  and  C_15
REMARK    9  A    between atoms: C_17  and  C_18
REMARK   10  A    between atoms: C_20  and  C_21
REMARK                            x       y       z     vdW  Elec       q    Type
REMARK                         _______ _______ _______ _____ _____    ______ ____
ROOT
ATOM      1  C   UNL     1       2.446   3.426  19.214  0.00  0.00    +0.000 C 
ATOM      2  C   UNL     1       1.287   2.639  18.597  0.00  0.00    +0.000 C 
ENDROOT
BRANCH   1   5
ATOM      3  C   UNL     1       1.759   5.985  20.723  0.00  0.00    +0.000 C 
ATOM      4  C   UNL     1       2.229   5.988  19.289  0.00  0.00    +0.000 C 
ATOM      5  C   UNL     1       2.553   4.838  18.650  0.00  0.00    +0.000 C 
BRANCH   4   6
ATOM      6  C   UNL     1       2.371   7.274  18.590  0.00  0.00    +0.000 C 
ATOM      7  C   UNL     1       1.659   8.385  18.851  0.00  0.00    +0.000 C 
BRANCH   7   8
ATOM      8  C   UNL     1       1.862   9.660  18.118  0.00  0.00    +0.000 C 
ATOM      9  O   UNL     1       2.656   9.803  17.196  0.00  0.00    +0.000 OA
ATOM     10  N   UNL     1       1.057  10.671  18.582  0.00  0.00    +0.000 N 
ATOM     11  H   UNL     1       0.393  10.593  19.346  0.00  0.00    +0.000 HD
BRANCH  10  12
ATOM     12  O   UNL     1       1.159  11.926  17.959  0.00  0.00    +0.000 OA
ATOM     13  H   UNL     1       2.123  12.108  18.010  0.00  0.00    +0.000 HD
ENDBRANCH  10  12
ENDBRANCH   7   8
ENDBRANCH   4   6
ENDBRANCH   1   5
BRANCH   1  14
ATOM     14  S   UNL     1       4.009   2.525  19.020  0.00  0.00    +0.000 S 
ATOM     15  O   UNL     1       4.613   2.313  20.328  0.00  0.00    +0.000 OA
ATOM     16  O   UNL     1       3.747   1.355  18.193  0.00  0.00    +0.000 OA
BRANCH  14  17
ATOM     17  C   UNL     1       5.041   3.658  18.102  0.00  0.00    +0.000 A 
ATOM     18  N   UNL     1       4.864   3.675  16.768  0.00  0.00    +0.000 NA
ATOM     19  C   UNL     1       5.666   4.514  16.093  0.00  0.00    +0.000 A 
ATOM     20  C   UNL     1       5.512   4.572  14.604  0.00  0.00    +0.000 C 
ATOM     21  C   UNL     1       6.610   5.309  16.731  0.00  0.00    +0.000 A 
ATOM     22  C   UNL     1       6.710   5.200  18.109  0.00  0.00    +0.000 A 
ATOM     23  C   UNL     1       7.692   6.031  18.877  0.00  0.00    +0.000 C 
ATOM     24  N   UNL     1       5.935   4.365  18.823  0.00  0.00    +0.000 NA
ENDBRANCH  14  17
ENDBRANCH   1  14
TORSDOF 6
ENDMDL
MODEL 2
REMARK VINA RESULT:      -7.3      0.287      1.845
REMARK  Name = 
REMARK  10 active torsions:
REMARK  status: ('A' for Active; 'I' for Inactive)
REMARK    1  A    between atoms: C_1  and  C_2
REMARK    2  A    between atoms: C_2  and  C_3
REMARK    3  A    between atoms: C_4  and  C_5
REMARK    4  A    between atoms: N_7  and  O_8
REMARK    5  A    between atoms: C_9  and  C_10
REMARK    6  A    between atoms: C_10  and  C_11
REMARK    7  A    between atoms: C_10  and  S_12
REMARK    8  A    between atoms: S_12  and  C_15
REMARK    9  A    between atoms: C_17  and  C_18
REMARK   10  A    between atoms: C_20  and  C_21
REMARK                            x       y       z     vdW  Elec       q    Type
REMARK                         _______ _______ _______ _____ _____    ______ ____
ROOT
ATOM      1  C   UNL     1       2.656   3.491  19.590  0.00  0.00    +0.000 C 
ATOM      2  C   UNL     1       1.357   2.767  19.227  0.00  0.00    +0.000 C 
ENDROOT
BRANCH   1   5
ATOM      3  C   UNL     1       1.639   6.047  20.906  0.00  0.00    +0.000 C 
ATOM      4  C   UNL     1       2.264   6.033  19.533  0.00  0.00    +0.000 C 
ATOM      5  C   UNL     1       2.731   4.887  18.981  0.00  0.00    +0.000 C 
BRANCH   4   6
ATOM      6  C   UNL     1       2.397   7.300  18.799  0.00  0.00    +0.000 C 
ATOM      7  C   UNL     1       1.643   8.397  18.994  0.00  0.00    +0.000 C 
BRANCH   7   8
ATOM      8  C   UNL     1       1.839   9.654  18.229  0.00  0.00    +0.000 C 
ATOM      9  O   UNL     1       2.455   9.726  17.173  0.00  0.00    +0.000 OA
ATOM     10  N   UNL     1       1.250  10.737  18.833  0.00  0.00    +0.000 N 
ATOM     11  H   UNL     1       0.739  10.719  19.709  0.00  0.00    +0.000 HD
BRANCH  10  12
ATOM     12  O   UNL     1       1.366  11.984  18.196  0.00  0.00    +0.000 OA
ATOM     13  H   UNL     1       2.329  12.166  18.265  0.00  0.00    +0.000 HD
ENDBRANCH  10  12
ENDBRANCH   7   8
ENDBRANCH   4   6
ENDBRANCH   1   5
BRANCH   1  14
ATOM     14  S   UNL     1       4.099   2.495  19.122  0.00  0.00    +0.000 S 
ATOM     15  O   UNL     1       4.798   2.058  20.322  0.00  0.00    +0.000 OA
ATOM     16  O   UNL     1       3.649   1.475  18.185  0.00  0.00    +0.000 OA
BRANCH  14  17
ATOM     17  C   UNL     1       5.147   3.651  18.251  0.00  0.00    +0.000 A 
ATOM     18  N   UNL     1       6.034   4.331  19.000  0.00  0.00    +0.000 NA
ATOM     19  C   UNL     1       6.795   5.212  18.332  0.00  0.00    +0.000 A 
ATOM     20  C   UNL     1       7.799   5.996  19.119  0.00  0.00    +0.000 C 
ATOM     21  C   UNL     1       6.672   5.406  16.962  0.00  0.00    +0.000 A 
ATOM     22  C   UNL     1       5.717   4.657  16.294  0.00  0.00    +0.000 A 
ATOM     23  C   UNL     1       5.528   4.793  14.814  0.00  0.00    +0.000 C 
ATOM     24  N   UNL     1       4.927   3.770  16.925  0.00  0.00    +0.000 NA
ENDBRANCH  14  17
ENDBRANCH   1  14
TORSDOF 6
ENDMDL
MODEL 3
REMARK VINA RESULT:      -7.1      1.535      2.671
REMARK  Name = 
REMARK  10 active torsions:
REMARK  status: ('A' for Active; 'I' for Inactive)
REMARK    1  A    between atoms: C_1  and  C_2
REMARK    2  A    between atoms: C_2  and  C_3
REMARK    3  A    between atoms: C_4  and  C_5
REMARK    4  A    between atoms: N_7  and  O_8
REMARK    5  A    between atoms: C_9  and  C_10
REMARK    6  A    between atoms: C_10  and  C_11
REMARK    7  A    between atoms: C_10  and  S_12
REMARK    8  A    between atoms: S_12  and  C_15
REMARK    9  A    between atoms: C_17  and  C_18
REMARK   10  A    between atoms: C_20  and  C_21
REMARK                            x       y       z     vdW  Elec       q    Type
REMARK                         _______ _______ _______ _____ _____    ______ ____
ROOT
ATOM      1  C   UNL     1       2.959   5.259  19.642  0.00  0.00    +0.000 C 
ATOM      2  C   UNL     1       2.436   4.710  20.971  0.00  0.00    +0.000 C 
ENDROOT
BRANCH   1   5
ATOM      3  C   UNL     1       3.917   7.443  17.742  0.00  0.00    +0.000 C 
ATOM      4  C   UNL     1       2.511   7.400  18.288  0.00  0.00    +0.000 C 
ATOM      5  C   UNL     1       2.104   6.404  19.110  0.00  0.00    +0.000 C 
BRANCH   4   6
ATOM      6  C   UNL     1       1.560   8.446  17.885  0.00  0.00    +0.000 C 
ATOM      7  C   UNL     1       1.058   9.397  18.693  0.00  0.00    +0.000 C 
BRANCH   7   8
ATOM      8  C   UNL     1       0.111  10.438  18.219  0.00  0.00    +0.000 C 
ATOM      9  O   UNL     1      -1.008  10.199  17.783  0.00  0.00    +0.000 OA
ATOM     10  N   UNL     1       0.623  11.707  18.326  0.00  0.00    +0.000 N 
ATOM     11  H   UNL     1       1.546  11.944  18.675  0.00  0.00    +0.000 HD
BRANCH  10  12
ATOM     12  O   UNL     1      -0.188  12.777  17.910  0.00  0.00    +0.000 OA
ATOM     13  H   UNL     1      -0.249  13.322  18.725  0.00  0.00    +0.000 HD
ENDBRANCH  10  12
ENDBRANCH   7   8
ENDBRANCH   4   6
ENDBRANCH   1   5
BRANCH   1  14
ATOM     14  S   UNL     1       3.110   3.932  18.413  0.00  0.00    +0.000 S 
ATOM     15  O   UNL     1       3.112   2.642  19.090  0.00  0.00    +0.000 OA
ATOM     16  O   UNL     1       2.102   4.161  17.387  0.00  0.00    +0.000 OA
BRANCH  14  17
ATOM     17  C   UNL     1       4.727   4.195  17.700  0.00  0.00    +0.000 A 
ATOM     18  N   UNL     1       5.677   4.654  18.534  0.00  0.00    +0.000 NA
ATOM     19  C   UNL     1       6.878   4.869  17.974  0.00  0.00    +0.000 A 
ATOM     20  C   UNL     1       7.973   5.381  18.859  0.00  0.00    +0.000 C 
ATOM     21  C   UNL     1       7.118   4.634  16.627  0.00  0.00    +0.000 A 
ATOM     22  C   UNL     1       6.061   4.171  15.860  0.00  0.00    +0.000 A 
ATOM     23  C   UNL     1       6.237   3.878  14.402  0.00  0.00    +0.000 C 
ATOM     24  N   UNL     1       4.839   3.951  16.378  0.00  0.00    +0.000 NA
ENDBRANCH  14  17
ENDBRANCH   1  14
TORSDOF 6
ENDMDL
MODEL 4
REMARK VINA RESULT:      -7.1      1.457      1.834
REMARK  Name = 
REMARK  10 active torsions:
REMARK  status: ('A' for Active; 'I' for Inactive)
REMARK    1  A    between atoms: C_1  and  C_2
REMARK    2  A    between atoms: C_2  and  C_3
REMARK    3  A    between atoms: C_4  and  C_5
REMARK    4  A    between atoms: N_7  and  O_8
REMARK    5  A    between atoms: C_9  and  C_10
REMARK    6  A    between atoms: C_10  and  C_11
REMARK    7  A    between atoms: C_10  and  S_12
REMARK    8  A    between atoms: S_12  and  C_15
REMARK    9  A    between atoms: C_17  and  C_18
REMARK   10  A    between atoms: C_20  and  C_21
REMARK                            x       y       z     vdW  Elec       q    Type
REMARK                         _______ _______ _______ _____ _____    ______ ____
ROOT
ATOM      1  C   UNL     1       2.979   4.883  19.441  0.00  0.00    +0.000 C 
ATOM      2  C   UNL     1       2.443   4.259  20.733  0.00  0.00    +0.000 C 
ENDROOT
BRANCH   1   5
ATOM      3  C   UNL     1       3.995   7.272  17.843  0.00  0.00    +0.000 C 
ATOM      4  C   UNL     1       2.556   7.138  18.277  0.00  0.00    +0.000 C 
ATOM      5  C   UNL     1       2.125   6.053  18.965  0.00  0.00    +0.000 C 
BRANCH   4   6
ATOM      6  C   UNL     1       1.602   8.195  17.912  0.00  0.00    +0.000 C 
ATOM      7  C   UNL     1       1.304   9.270  18.663  0.00  0.00    +0.000 C 
BRANCH   7   8
ATOM      8  C   UNL     1       0.340  10.313  18.229  0.00  0.00    +0.000 C 
ATOM      9  O   UNL     1      -0.793  10.076  17.828  0.00  0.00    +0.000 OA
ATOM     10  N   UNL     1       0.854  11.581  18.327  0.00  0.00    +0.000 N 
ATOM     11  H   UNL     1       1.788  11.817  18.647  0.00  0.00    +0.000 HD
BRANCH  10  12
ATOM     12  O   UNL     1       0.029  12.653  17.946  0.00  0.00    +0.000 OA
ATOM     13  H   UNL     1      -0.716  12.580  18.583  0.00  0.00    +0.000 HD
ENDBRANCH  10  12
ENDBRANCH   7   8
ENDBRANCH   4   6
ENDBRANCH   1   5
BRANCH   1  14
ATOM     14  S   UNL     1       3.146   3.626  18.143  0.00  0.00    +0.000 S 
ATOM     15  O   UNL     1       3.249   2.308  18.753  0.00  0.00    +0.000 OA
ATOM     16  O   UNL     1       2.083   3.847  17.172  0.00  0.00    +0.000 OA
BRANCH  14  17
ATOM     17  C   UNL     1       4.713   4.014  17.376  0.00  0.00    +0.000 A 
ATOM     18  N   UNL     1       4.786   3.828  16.046  0.00  0.00    +0.000 NA
ATOM     19  C   UNL     1       5.978   4.101  15.493  0.00  0.00    +0.000 A 
ATOM     20  C   UNL     1       6.115   3.911  14.013  0.00  0.00    +0.000 C 
ATOM     21  C   UNL     1       7.059   4.544  16.245  0.00  0.00    +0.000 A 
ATOM     22  C   UNL     1       6.870   4.690  17.609  0.00  0.00    +0.000 A 
ATOM     23  C   UNL     1       7.979   5.176  18.493  0.00  0.00    +0.000 C 
ATOM     24  N   UNL     1       5.696   4.418  18.207  0.00  0.00    +0.000 NA
ENDBRANCH  14  17
ENDBRANCH   1  14
TORSDOF 6
ENDMDL
MODEL 5
REMARK VINA RESULT:      -7.1      1.282      1.474
REMARK  Name = 
REMARK  10 active torsions:
REMARK  status: ('A' for Active; 'I' for Inactive)
REMARK    1  A    between atoms: C_1  and  C_2
REMARK    2  A    between atoms: C_2  and  C_3
REMARK    3  A    between atoms: C_4  and  C_5
REMARK    4  A    between atoms: N_7  and  O_8
REMARK    5  A    between atoms: C_9  and  C_10
REMARK    6  A    between atoms: C_10  and  C_11
REMARK    7  A    between atoms: C_10  and  S_12
REMARK    8  A    between atoms: S_12  and  C_15
REMARK    9  A    between atoms: C_17  and  C_18
REMARK   10  A    between atoms: C_20  and  C_21
REMARK                            x       y       z     vdW  Elec       q    Type
REMARK                         _______ _______ _______ _____ _____    ______ ____
ROOT
ATOM      1  C   UNL     1       2.539   4.484  18.529  0.00  0.00    +0.000 C 
ATOM      2  C   UNL     1       2.038   3.667  17.335  0.00  0.00    +0.000 C 
ENDROOT
BRANCH   1   5
ATOM      3  C   UNL     1       1.820   6.622  20.580  0.00  0.00    +0.000 C 
ATOM      4  C   UNL     1       2.159   6.951  19.147  0.00  0.00    +0.000 C 
ATOM      5  C   UNL     1       2.500   5.984  18.262  0.00  0.00    +0.000 C 
BRANCH   4   6
ATOM      6  C   UNL     1       2.151   8.358  18.720  0.00  0.00    +0.000 C 
ATOM      7  C   UNL     1       1.223   9.271  19.059  0.00  0.00    +0.000 C 
BRANCH   7   8
ATOM      8  C   UNL     1       1.281  10.684  18.606  0.00  0.00    +0.000 C 
ATOM      9  O   UNL     1       0.495  11.552  18.966  0.00  0.00    +0.000 OA
ATOM     10  N   UNL     1       2.317  10.919  17.738  0.00  0.00    +0.000 N 
ATOM     11  H   UNL     1       2.983  10.226  17.412  0.00  0.00    +0.000 HD
BRANCH  10  12
ATOM     12  O   UNL     1       2.474  12.226  17.245  0.00  0.00    +0.000 OA
ATOM     13  H   UNL     1       2.780  12.067  16.325  0.00  0.00    +0.000 HD
ENDBRANCH  10  12
ENDBRANCH   7   8
ENDBRANCH   4   6
ENDBRANCH   1   5
BRANCH   1  14
ATOM     14  S   UNL     1       4.203   3.950  19.019  0.00  0.00    +0.000 S 
ATOM     15  O   UNL     1       4.546   4.548  20.303  0.00  0.00    +0.000 OA
ATOM     16  O   UNL     1       4.254   2.499  18.907  0.00  0.00    +0.000 OA
BRANCH  14  17
ATOM     17  C   UNL     1       5.262   4.661  17.768  0.00  0.00    +0.000 A 
ATOM     18  N   UNL     1       5.262   4.047  16.571  0.00  0.00    +0.000 NA
ATOM     19  C   UNL     1       6.083   4.580  15.652  0.00  0.00    +0.000 A 
ATOM     20  C   UNL     1       6.122   3.935  14.301  0.00  0.00    +0.000 C 
ATOM     21  C   UNL     1       6.875   5.688  15.922  0.00  0.00    +0.000 A 
ATOM     22  C   UNL     1       6.800   6.232  17.194  0.00  0.00    +0.000 A 
ATOM     23  C   UNL     1       7.610   7.436  17.566  0.00  0.00    +0.000 C 
ATOM     24  N   UNL     1       6.000   5.724  18.148  0.00  0.00    +0.000 NA
ENDBRANCH  14  17
ENDBRANCH   1  14
TORSDOF 6
ENDMDL
MODEL 6
REMARK VINA RESULT:      -7.1      3.523      7.281
REMARK  Name = 
REMARK  10 active torsions:
REMARK  status: ('A' for Active; 'I' for Inactive)
REMARK    1  A    between atoms: C_1  and  C_2
REMARK    2  A    between atoms: C_2  and  C_3
REMARK    3  A    between atoms: C_4  and  C_5
REMARK    4  A    between atoms: N_7  and  O_8
REMARK    5  A    between atoms: C_9  and  C_10
REMARK    6  A    between atoms: C_10  and  C_11
REMARK    7  A    between atoms: C_10  and  S_12
REMARK    8  A    between atoms: S_12  and  C_15
REMARK    9  A    between atoms: C_17  and  C_18
REMARK   10  A    between atoms: C_20  and  C_21
REMARK                            x       y       z     vdW  Elec       q    Type
REMARK                         _______ _______ _______ _____ _____    ______ ____
ROOT
ATOM      1  C   UNL     1       6.931   5.942  16.604  0.00  0.00    +0.000 C 
ATOM      2  C   UNL     1       6.037   7.183  16.679  0.00  0.00    +0.000 C 
ENDROOT
BRANCH   1   5
ATOM      3  C   UNL     1       7.803   5.540  13.711  0.00  0.00    +0.000 C 
ATOM      4  C   UNL     1       6.728   4.703  14.360  0.00  0.00    +0.000 C 
ATOM      5  C   UNL     1       6.377   4.885  15.655  0.00  0.00    +0.000 C 
BRANCH   4   6
ATOM      6  C   UNL     1       6.078   3.645  13.572  0.00  0.00    +0.000 C 
ATOM      7  C   UNL     1       6.342   3.357  12.285  0.00  0.00    +0.000 C 
BRANCH   7   8
ATOM      8  C   UNL     1       5.660   2.263  11.548  0.00  0.00    +0.000 C 
ATOM      9  O   UNL     1       4.523   2.343  11.099  0.00  0.00    +0.000 OA
ATOM     10  N   UNL     1       6.443   1.144  11.420  0.00  0.00    +0.000 N 
ATOM     11  H   UNL     1       7.384   1.037  11.784  0.00  0.00    +0.000 HD
BRANCH  10  12
ATOM     12  O   UNL     1       5.903   0.042  10.735  0.00  0.00    +0.000 OA
ATOM     13  H   UNL     1       6.707  -0.461  10.479  0.00  0.00    +0.000 HD
ENDBRANCH  10  12
ENDBRANCH   7   8
ENDBRANCH   4   6
ENDBRANCH   1   5
BRANCH   1  14
ATOM     14  S   UNL     1       7.210   5.252  18.259  0.00  0.00    +0.000 S 
ATOM     15  O   UNL     1       8.078   4.086  18.159  0.00  0.00    +0.000 OA
ATOM     16  O   UNL     1       7.631   6.341  19.129  0.00  0.00    +0.000 OA
BRANCH  14  17
ATOM     17  C   UNL     1       5.588   4.703  18.770  0.00  0.00    +0.000 A 
ATOM     18  N   UNL     1       5.331   3.391  18.621  0.00  0.00    +0.000 NA
ATOM     19  C   UNL     1       4.099   3.002  18.987  0.00  0.00    +0.000 A 
ATOM     20  C   UNL     1       3.760   1.550  18.842  0.00  0.00    +0.000 C 
ATOM     21  C   UNL     1       3.158   3.895  19.482  0.00  0.00    +0.000 A 
ATOM     22  C   UNL     1       3.531   5.226  19.582  0.00  0.00    +0.000 A 
ATOM     23  C   UNL     1       2.583   6.253  20.120  0.00  0.00    +0.000 C 
ATOM     24  N   UNL     1       4.751   5.660  19.218  0.00  0.00    +0.000 NA
ENDBRANCH  14  17
ENDBRANCH   1  14
TORSDOF 6
ENDMDL
MODEL 7
REMARK VINA RESULT:      -7.0      3.093      6.262
REMARK  Name = 
REMARK  10 active torsions:
REMARK  status: ('A' for Active; 'I' for Inactive)
REMARK    1  A    between atoms: C_1  and  C_2
REMARK    2  A    between atoms: C_2  and  C_3
REMARK    3  A    between atoms: C_4  and  C_5
REMARK    4  A    between atoms: N_7  and  O_8
REMARK    5  A    between atoms: C_9  and  C_10
REMARK    6  A    between atoms: C_10  and  C_11
REMARK    7  A    between atoms: C_10  and  S_12
REMARK    8  A    between atoms: S_12  and  C_15
REMARK    9  A    between atoms: C_17  and  C_18
REMARK   10  A    between atoms: C_20  and  C_21
REMARK                            x       y       z     vdW  Elec       q    Type
REMARK                         _______ _______ _______ _____ _____    ______ ____
ROOT
ATOM      1  C   UNL     1       2.017   4.787  18.376  0.00  0.00    +0.000 C 
ATOM      2  C   UNL     1       1.271   3.478  18.646  0.00  0.00    +0.000 C 
ENDROOT
BRANCH   1   5
ATOM      3  C   UNL     1       3.929   2.418  18.204  0.00  0.00    +0.000 C 
ATOM      4  C   UNL     1       4.002   3.592  17.259  0.00  0.00    +0.000 C 
ATOM      5  C   UNL     1       3.124   4.621  17.341  0.00  0.00    +0.000 C 
BRANCH   4   6
ATOM      6  C   UNL     1       5.030   3.596  16.208  0.00  0.00    +0.000 C 
ATOM      7  C   UNL     1       5.376   4.658  15.458  0.00  0.00    +0.000 C 
BRANCH   7   8
ATOM      8  C   UNL     1       6.436   4.600  14.421  0.00  0.00    +0.000 C 
ATOM      9  O   UNL     1       6.435   3.813  13.482  0.00  0.00    +0.000 OA
ATOM     10  N   UNL     1       7.425   5.529  14.623  0.00  0.00    +0.000 N 
ATOM     11  H   UNL     1       7.466   6.191  15.391  0.00  0.00    +0.000 HD
BRANCH  10  12
ATOM     12  O   UNL     1       8.483   5.570  13.699  0.00  0.00    +0.000 OA
ATOM     13  H   UNL     1       8.468   6.508  13.404  0.00  0.00    +0.000 HD
ENDBRANCH  10  12
ENDBRANCH   7   8
ENDBRANCH   4   6
ENDBRANCH   1   5
BRANCH   1  14
ATOM     14  S   UNL     1       2.666   5.486  19.920  0.00  0.00    +0.000 S 
ATOM     15  O   UNL     1       2.165   4.716  21.051  0.00  0.00    +0.000 OA
ATOM     16  O   UNL     1       4.109   5.622  19.773  0.00  0.00    +0.000 OA
BRANCH  14  17
ATOM     17  C   UNL     1       1.939   7.117  19.986  0.00  0.00    +0.000 A 
ATOM     18  N   UNL     1       2.154   7.907  18.918  0.00  0.00    +0.000 NA
ATOM     19  C   UNL     1       1.622   9.137  18.997  0.00  0.00    +0.000 A 
ATOM     20  C   UNL     1       1.831  10.058  17.835  0.00  0.00    +0.000 C 
ATOM     21  C   UNL     1       0.900   9.561  20.106  0.00  0.00    +0.000 A 
ATOM     22  C   UNL     1       0.751   8.664  21.152  0.00  0.00    +0.000 A 
ATOM     23  C   UNL     1      -0.025   9.035  22.379  0.00  0.00    +0.000 C 
ATOM     24  N   UNL     1       1.276   7.427  21.119  0.00  0.00    +0.000 NA
ENDBRANCH  14  17
ENDBRANCH   1  14
TORSDOF 6
ENDMDL
MODEL 8
REMARK VINA RESULT:      -7.0      0.793      1.010
REMARK  Name = 
REMARK  10 active torsions:
REMARK  status: ('A' for Active; 'I' for Inactive)
REMARK    1  A    between atoms: C_1  and  C_2
REMARK    2  A    between atoms: C_2  and  C_3
REMARK    3  A    between atoms: C_4  and  C_5
REMARK    4  A    between atoms: N_7  and  O_8
REMARK    5  A    between atoms: C_9  and  C_10
REMARK    6  A    between atoms: C_10  and  C_11
REMARK    7  A    between atoms: C_10  and  S_12
REMARK    8  A    between atoms: S_12  and  C_15
REMARK    9  A    between atoms: C_17  and  C_18
REMARK   10  A    between atoms: C_20  and  C_21
REMARK                            x       y       z     vdW  Elec       q    Type
REMARK                         _______ _______ _______ _____ _____    ______ ____
ROOT
ATOM      1  C   UNL     1       2.986   3.607  20.324  0.00  0.00    +0.000 C 
ATOM      2  C   UNL     1       1.592   2.976  20.366  0.00  0.00    +0.000 C 
ENDROOT
BRANCH   1   5
ATOM      3  C   UNL     1       1.503   4.460  17.801  0.00  0.00    +0.000 C 
ATOM      4  C   UNL     1       2.339   5.416  18.614  0.00  0.00    +0.000 C 
ATOM      5  C   UNL     1       2.968   5.017  19.746  0.00  0.00    +0.000 C 
BRANCH   4   6
ATOM      6  C   UNL     1       2.440   6.817  18.181  0.00  0.00    +0.000 C 
ATOM      7  C   UNL     1       1.722   7.841  18.677  0.00  0.00    +0.000 C 
BRANCH   7   8
ATOM      8  C   UNL     1       1.883   9.240  18.207  0.00  0.00    +0.000 C 
ATOM      9  O   UNL     1       2.478   9.555  17.183  0.00  0.00    +0.000 OA
ATOM     10  N   UNL     1       1.288  10.151  19.043  0.00  0.00    +0.000 N 
ATOM     11  H   UNL     1       0.794   9.930  19.901  0.00  0.00    +0.000 HD
BRANCH  10  12
ATOM     12  O   UNL     1       1.373  11.510  18.696  0.00  0.00    +0.000 OA
ATOM     13  H   UNL     1       2.247  11.766  19.063  0.00  0.00    +0.000 HD
ENDBRANCH  10  12
ENDBRANCH   7   8
ENDBRANCH   4   6
ENDBRANCH   1   5
BRANCH   1  14
ATOM     14  S   UNL     1       4.144   2.544  19.416  0.00  0.00    +0.000 S 
ATOM     15  O   UNL     1       5.010   1.851  20.361  0.00  0.00    +0.000 OA
ATOM     16  O   UNL     1       3.368   1.737  18.485  0.00  0.00    +0.000 OA
BRANCH  14  17
ATOM     17  C   UNL     1       5.139   3.699  18.485  0.00  0.00    +0.000 A 
ATOM     18  N   UNL     1       4.905   3.753  17.162  0.00  0.00    +0.000 NA
ATOM     19  C   UNL     1       5.679   4.609  16.475  0.00  0.00    +0.000 A 
ATOM     20  C   UNL     1       5.460   4.708  14.997  0.00  0.00    +0.000 C 
ATOM     21  C   UNL     1       6.654   5.382  17.092  0.00  0.00    +0.000 A 
ATOM     22  C   UNL     1       6.814   5.236  18.461  0.00  0.00    +0.000 A 
ATOM     23  C   UNL     1       7.832   6.042  19.208  0.00  0.00    +0.000 C 
ATOM     24  N   UNL     1       6.067   4.383  19.185  0.00  0.00    +0.000 NA
ENDBRANCH  14  17
ENDBRANCH   1  14
TORSDOF 6
ENDMDL
MODEL 9
REMARK VINA RESULT:      -7.0      2.826      3.975
REMARK  Name = 
REMARK  10 active torsions:
REMARK  status: ('A' for Active; 'I' for Inactive)
REMARK    1  A    between atoms: C_1  and  C_2
REMARK    2  A    between atoms: C_2  and  C_3
REMARK    3  A    between atoms: C_4  and  C_5
REMARK    4  A    between atoms: N_7  and  O_8
REMARK    5  A    between atoms: C_9  and  C_10
REMARK    6  A    between atoms: C_10  and  C_11
REMARK    7  A    between atoms: C_10  and  S_12
REMARK    8  A    between atoms: S_12  and  C_15
REMARK    9  A    between atoms: C_17  and  C_18
REMARK   10  A    between atoms: C_20  and  C_21
REMARK                            x       y       z     vdW  Elec       q    Type
REMARK                         _______ _______ _______ _____ _____    ______ ____
ROOT
ATOM      1  C   UNL     1       2.543   6.931  18.203  0.00  0.00    +0.000 C 
ATOM      2  C   UNL     1       3.720   7.574  17.464  0.00  0.00    +0.000 C 
ENDROOT
BRANCH   1   5
ATOM      3  C   UNL     1       0.897   9.484  17.929  0.00  0.00    +0.000 C 
ATOM      4  C   UNL     1       1.339   8.941  19.266  0.00  0.00    +0.000 C 
ATOM      5  C   UNL     1       2.048   7.790  19.361  0.00  0.00    +0.000 C 
BRANCH   4   6
ATOM      6  C   UNL     1       0.957   9.664  20.488  0.00  0.00    +0.000 C 
ATOM      7  C   UNL     1       0.246   9.150  21.508  0.00  0.00    +0.000 C 
BRANCH   7   8
ATOM      8  C   UNL     1      -0.094   9.930  22.725  0.00  0.00    +0.000 C 
ATOM      9  O   UNL     1       0.287   9.642  23.853  0.00  0.00    +0.000 OA
ATOM     10  N   UNL     1      -0.882  11.020  22.452  0.00  0.00    +0.000 N 
ATOM     11  H   UNL     1      -1.223  11.286  21.534  0.00  0.00    +0.000 HD
BRANCH  10  12
ATOM     12  O   UNL     1      -1.265  11.837  23.529  0.00  0.00    +0.000 OA
ATOM     13  H   UNL     1      -1.163  12.739  23.154  0.00  0.00    +0.000 HD
ENDBRANCH  10  12
ENDBRANCH   7   8
ENDBRANCH   4   6
ENDBRANCH   1   5
BRANCH   1  14
ATOM     14  S   UNL     1       2.973   5.261  18.766  0.00  0.00    +0.000 S 
ATOM     15  O   UNL     1       3.007   5.232  20.222  0.00  0.00    +0.000 OA
ATOM     16  O   UNL     1       2.090   4.323  18.086  0.00  0.00    +0.000 OA
BRANCH  14  17
ATOM     17  C   UNL     1       4.637   5.024  18.161  0.00  0.00    +0.000 A 
ATOM     18  N   UNL     1       5.629   5.405  18.985  0.00  0.00    +0.000 NA
ATOM     19  C   UNL     1       6.872   5.243  18.503  0.00  0.00    +0.000 A 
ATOM     20  C   UNL     1       8.014   5.652  19.380  0.00  0.00    +0.000 C 
ATOM     21  C   UNL     1       7.111   4.718  17.239  0.00  0.00    +0.000 A 
ATOM     22  C   UNL     1       6.011   4.369  16.473  0.00  0.00    +0.000 A 
ATOM     23  C   UNL     1       6.180   3.782  15.105  0.00  0.00    +0.000 C 
ATOM     24  N   UNL     1       4.750   4.524  16.913  0.00  0.00    +0.000 NA
ENDBRANCH  14  17
ENDBRANCH   1  14
TORSDOF 6
ENDMDL
