MODEL 1
REMARK VINA RESULT:      -8.1      0.000      0.000
REMARK  Name = 
REMARK  6 active torsions:
REMARK  status: ('A' for Active; 'I' for Inactive)
REMARK    1  A    between atoms: C_1  and  O_2
REMARK    2  A    between atoms: O_2  and  C_3
REMARK    3  A    between atoms: C_5  and  C_6
REMARK    4  A    between atoms: C_7  and  C_8
REMARK    5  A    between atoms: N_17  and  C_18
REMARK    6  A    between atoms: C_21  and  N_22
REMARK                            x       y       z     vdW  Elec       q    Type
REMARK                         _______ _______ _______ _____ _____    ______ ____
ROOT
ATOM      1  C   UNL     1       5.326   6.692  17.501  0.00  0.00    +0.000 A 
ATOM      2  C   UNL     1       6.166   7.819  17.371  0.00  0.00    +0.000 A 
ATOM      3  C   UNL     1       7.514   7.801  17.804  0.00  0.00    +0.000 A 
ATOM      4  C   UNL     1       7.993   6.618  18.376  0.00  0.00    +0.000 A 
ATOM      5  C   UNL     1       7.175   5.485  18.488  0.00  0.00    +0.000 A 
ATOM      6  C   UNL     1       5.842   5.464  18.069  0.00  0.00    +0.000 A 
ENDROOT
BRANCH   6   7
ATOM      7  N   UNL     1       5.052   4.246  18.210  0.00  0.00    +0.000 N 
ATOM      8  C   UNL     1       4.520   3.536  17.073  0.00  0.00    +0.000 C 
ATOM      9  C   UNL     1       3.015   3.301  17.279  0.00  0.00    +0.000 C 
ATOM     10  O   UNL     1       2.783   2.567  18.479  0.00  0.00    +0.000 OA
ATOM     11  C   UNL     1       3.248   3.323  19.591  0.00  0.00    +0.000 C 
ATOM     12  C   UNL     1       4.758   3.574  19.481  0.00  0.00    +0.000 C 
ENDBRANCH   6   7
BRANCH   1  14
ATOM     13  C   UNL     1       2.954   7.145  17.871  0.00  0.00    +0.000 C 
ATOM     14  O   UNL     1       4.035   6.762  17.094  0.00  0.00    +0.000 OA
ENDBRANCH   1  14
BRANCH   3  15
ATOM     15  C   UNL     1       8.416   9.003  17.715  0.00  0.00    +0.000 C 
ATOM     16  C   UNL     1       8.589   9.908  18.708  0.00  0.00    +0.000 C 
BRANCH  16  17
ATOM     17  C   UNL     1       9.560  11.059  18.679  0.00  0.00    +0.000 A 
ATOM     18  C   UNL     1      10.661  11.119  17.811  0.00  0.00    +0.000 A 
ATOM     19  C   UNL     1      11.750  11.934  18.185  0.00  0.00    +0.000 A 
ATOM     20  C   UNL     1      11.369  13.153  18.698  0.00  0.00    +0.000 A 
ATOM     21  C   UNL     1      12.158  14.276  18.449  0.00  0.00    +0.000 A 
ATOM     22  C   UNL     1      11.616  15.540  18.637  0.00  0.00    +0.000 A 
ATOM     23  C   UNL     1      10.296  15.667  19.097  0.00  0.00    +0.000 A 
ATOM     24  C   UNL     1       9.563  14.527  19.494  0.00  0.00    +0.000 A 
ATOM     25  C   UNL     1      10.115  13.238  19.323  0.00  0.00    +0.000 A 
ATOM     26  N   UNL     1       9.421  12.079  19.594  0.00  0.00    +0.000 N 
ATOM     27  C   UNL     1       9.600  11.526  20.968  0.00  0.00    +0.000 C 
ENDBRANCH  16  17
ENDBRANCH   3  15
TORSDOF 4
ENDMDL
MODEL 2
REMARK VINA RESULT:      -8.0      6.024      8.881
REMARK  Name = 
REMARK  6 active torsions:
REMARK  status: ('A' for Active; 'I' for Inactive)
REMARK    1  A    between atoms: C_1  and  O_2
REMARK    2  A    between atoms: O_2  and  C_3
REMARK    3  A    between atoms: C_5  and  C_6
REMARK    4  A    between atoms: C_7  and  C_8
REMARK    5  A    between atoms: N_17  and  C_18
REMARK    6  A    between atoms: C_21  and  N_22
REMARK                            x       y       z     vdW  Elec       q    Type
REMARK                         _______ _______ _______ _____ _____    ______ ____
ROOT
ATOM      1  C   UNL     1       3.476   5.413  19.168  0.00  0.00    +0.000 A 
ATOM      2  C   UNL     1       2.474   6.254  19.698  0.00  0.00    +0.000 A 
ATOM      3  C   UNL     1       2.195   7.527  19.144  0.00  0.00    +0.000 A 
ATOM      4  C   UNL     1       2.955   7.931  18.042  0.00  0.00    +0.000 A 
ATOM      5  C   UNL     1       3.936   7.095  17.491  0.00  0.00    +0.000 A 
ATOM      6  C   UNL     1       4.237   5.832  18.009  0.00  0.00    +0.000 A 
ENDROOT
BRANCH   6   7
ATOM      7  N   UNL     1       5.266   5.012  17.380  0.00  0.00    +0.000 N 
ATOM      8  C   UNL     1       6.352   4.429  18.129  0.00  0.00    +0.000 C 
ATOM      9  C   UNL     1       7.685   4.785  17.452  0.00  0.00    +0.000 C 
ATOM     10  O   UNL     1       7.701   4.320  16.104  0.00  0.00    +0.000 OA
ATOM     11  C   UNL     1       6.669   4.967  15.369  0.00  0.00    +0.000 C 
ATOM     12  C   UNL     1       5.293   4.634  15.963  0.00  0.00    +0.000 C 
ENDBRANCH   6   7
BRANCH   1  14
ATOM     13  C   UNL     1       2.886   3.110  19.735  0.00  0.00    +0.000 C 
ATOM     14  O   UNL     1       3.725   4.213  19.746  0.00  0.00    +0.000 OA
ENDBRANCH   1  14
BRANCH   3  15
ATOM     15  C   UNL     1       1.161   8.458  19.718  0.00  0.00    +0.000 C 
ATOM     16  C   UNL     1       0.871   9.683  19.219  0.00  0.00    +0.000 C 
BRANCH  16  17
ATOM     17  C   UNL     1      -0.227  10.589  19.714  0.00  0.00    +0.000 A 
ATOM     18  C   UNL     1      -1.403  10.843  18.991  0.00  0.00    +0.000 A 
ATOM     19  C   UNL     1      -2.101  12.037  19.271  0.00  0.00    +0.000 A 
ATOM     20  C   UNL     1      -2.193  12.314  20.615  0.00  0.00    +0.000 A 
ATOM     21  C   UNL     1      -3.340  12.937  21.107  0.00  0.00    +0.000 A 
ATOM     22  C   UNL     1      -3.604  12.893  22.469  0.00  0.00    +0.000 A 
ATOM     23  C   UNL     1      -2.704  12.245  23.329  0.00  0.00    +0.000 A 
ATOM     24  C   UNL     1      -1.472  11.756  22.841  0.00  0.00    +0.000 A 
ATOM     25  C   UNL     1      -1.188  11.815  21.458  0.00  0.00    +0.000 A 
ATOM     26  N   UNL     1      -0.053  11.270  20.898  0.00  0.00    +0.000 N 
ATOM     27  C   UNL     1       1.107  12.198  20.759  0.00  0.00    +0.000 C 
ENDBRANCH  16  17
ENDBRANCH   3  15
TORSDOF 4
ENDMDL
MODEL 3
REMARK VINA RESULT:      -7.8      6.914      8.528
REMARK  Name = 
REMARK  6 active torsions:
REMARK  status: ('A' for Active; 'I' for Inactive)
REMARK    1  A    between atoms: C_1  and  O_2
REMARK    2  A    between atoms: O_2  and  C_3
REMARK    3  A    between atoms: C_5  and  C_6
REMARK    4  A    between atoms: C_7  and  C_8
REMARK    5  A    between atoms: N_17  and  C_18
REMARK    6  A    between atoms: C_21  and  N_22
REMARK                            x       y       z     vdW  Elec       q    Type
REMARK                         _______ _______ _______ _____ _____    ______ ____
ROOT
ATOM      1  C   UNL     1       2.112   5.425  20.406  0.00  0.00    +0.000 A 
ATOM      2  C   UNL     1       1.548   6.646  20.832  0.00  0.00    +0.000 A 
ATOM      3  C   UNL     1       1.661   7.831  20.065  0.00  0.00    +0.000 A 
ATOM      4  C   UNL     1       2.361   7.753  18.857  0.00  0.00    +0.000 A 
ATOM      5  C   UNL     1       2.905   6.540  18.412  0.00  0.00    +0.000 A 
ATOM      6  C   UNL     1       2.812   5.351  19.140  0.00  0.00    +0.000 A 
ENDROOT
BRANCH   6   7
ATOM      7  N   UNL     1       3.396   4.123  18.612  0.00  0.00    +0.000 N 
ATOM      8  C   UNL     1       2.882   3.469  17.434  0.00  0.00    +0.000 C 
ATOM      9  C   UNL     1       2.624   1.987  17.747  0.00  0.00    +0.000 C 
ATOM     10  O   UNL     1       3.823   1.354  18.187  0.00  0.00    +0.000 OA
ATOM     11  C   UNL     1       4.267   1.967  19.391  0.00  0.00    +0.000 C 
ATOM     12  C   UNL     1       4.580   3.452  19.157  0.00  0.00    +0.000 C 
ENDBRANCH   6   7
BRANCH   1  14
ATOM     13  C   UNL     1       1.158   3.245  20.960  0.00  0.00    +0.000 C 
ATOM     14  O   UNL     1       2.000   4.322  21.186  0.00  0.00    +0.000 OA
ENDBRANCH   1  14
BRANCH   3  15
ATOM     15  C   UNL     1       1.104   9.154  20.519  0.00  0.00    +0.000 C 
ATOM     16  C   UNL     1       0.090   9.295  21.406  0.00  0.00    +0.000 C 
BRANCH  16  17
ATOM     17  C   UNL     1      -0.415  10.606  21.951  0.00  0.00    +0.000 A 
ATOM     18  C   UNL     1      -1.138  10.717  23.148  0.00  0.00    +0.000 A 
ATOM     19  C   UNL     1      -1.973  11.843  23.310  0.00  0.00    +0.000 A 
ATOM     20  C   UNL     1      -1.394  13.018  22.888  0.00  0.00    +0.000 A 
ATOM     21  C   UNL     1      -1.680  14.202  23.568  0.00  0.00    +0.000 A 
ATOM     22  C   UNL     1      -0.847  15.300  23.397  0.00  0.00    +0.000 A 
ATOM     23  C   UNL     1       0.252  15.207  22.528  0.00  0.00    +0.000 A 
ATOM     24  C   UNL     1       0.439  14.058  21.729  0.00  0.00    +0.000 A 
ATOM     25  C   UNL     1      -0.416  12.944  21.884  0.00  0.00    +0.000 A 
ATOM     26  N   UNL     1      -0.234  11.755  21.212  0.00  0.00    +0.000 N 
ATOM     27  C   UNL     1      -0.971  11.624  19.921  0.00  0.00    +0.000 C 
ENDBRANCH  16  17
ENDBRANCH   3  15
TORSDOF 4
ENDMDL
MODEL 4
REMARK VINA RESULT:      -7.8      6.371      8.513
REMARK  Name = 
REMARK  6 active torsions:
REMARK  status: ('A' for Active; 'I' for Inactive)
REMARK    1  A    between atoms: C_1  and  O_2
REMARK    2  A    between atoms: O_2  and  C_3
REMARK    3  A    between atoms: C_5  and  C_6
REMARK    4  A    between atoms: C_7  and  C_8
REMARK    5  A    between atoms: N_17  and  C_18
REMARK    6  A    between atoms: C_21  and  N_22
REMARK                            x       y       z     vdW  Elec       q    Type
REMARK                         _______ _______ _______ _____ _____    ______ ____
ROOT
ATOM      1  C   UNL     1       3.561   4.824  19.334  0.00  0.00    +0.000 A 
ATOM      2  C   UNL     1       2.674   5.597  20.113  0.00  0.00    +0.000 A 
ATOM      3  C   UNL     1       2.304   6.913  19.743  0.00  0.00    +0.000 A 
ATOM      4  C   UNL     1       2.854   7.431  18.566  0.00  0.00    +0.000 A 
ATOM      5  C   UNL     1       3.718   6.664  17.772  0.00  0.00    +0.000 A 
ATOM      6  C   UNL     1       4.104   5.362  18.103  0.00  0.00    +0.000 A 
ENDROOT
BRANCH   6   7
ATOM      7  N   UNL     1       5.000   4.620  17.225  0.00  0.00    +0.000 N 
ATOM      8  C   UNL     1       6.405   4.464  17.510  0.00  0.00    +0.000 C 
ATOM      9  C   UNL     1       7.224   4.883  16.278  0.00  0.00    +0.000 C 
ATOM     10  O   UNL     1       6.854   4.103  15.144  0.00  0.00    +0.000 OA
ATOM     11  C   UNL     1       5.484   4.333  14.838  0.00  0.00    +0.000 C 
ATOM     12  C   UNL     1       4.589   3.907  16.011  0.00  0.00    +0.000 C 
ENDBRANCH   6   7
BRANCH   1  14
ATOM     13  C   UNL     1       3.126   2.721  20.499  0.00  0.00    +0.000 C 
ATOM     14  O   UNL     1       3.907   3.578  19.741  0.00  0.00    +0.000 OA
ENDBRANCH   1  14
BRANCH   3  15
ATOM     15  C   UNL     1       1.393   7.771  20.580  0.00  0.00    +0.000 C 
ATOM     16  C   UNL     1       1.533   9.108  20.741  0.00  0.00    +0.000 C 
BRANCH  16  17
ATOM     17  C   UNL     1       0.578  10.001  21.490  0.00  0.00    +0.000 A 
ATOM     18  C   UNL     1       0.099   9.712  22.777  0.00  0.00    +0.000 A 
ATOM     19  C   UNL     1      -1.122  10.300  23.171  0.00  0.00    +0.000 A 
ATOM     20  C   UNL     1      -1.233  11.623  22.810  0.00  0.00    +0.000 A 
ATOM     21  C   UNL     1      -1.916  12.504  23.649  0.00  0.00    +0.000 A 
ATOM     22  C   UNL     1      -1.728  13.871  23.493  0.00  0.00    +0.000 A 
ATOM     23  C   UNL     1      -0.875  14.342  22.482  0.00  0.00    +0.000 A 
ATOM     24  C   UNL     1      -0.315  13.449  21.543  0.00  0.00    +0.000 A 
ATOM     25  C   UNL     1      -0.517  12.058  21.684  0.00  0.00    +0.000 A 
ATOM     26  N   UNL     1       0.079  11.123  20.866  0.00  0.00    +0.000 N 
ATOM     27  C   UNL     1      -0.718  10.705  19.677  0.00  0.00    +0.000 C 
ENDBRANCH  16  17
ENDBRANCH   3  15
TORSDOF 4
ENDMDL
MODEL 5
REMARK VINA RESULT:      -7.7      6.023      8.411
REMARK  Name = 
REMARK  6 active torsions:
REMARK  status: ('A' for Active; 'I' for Inactive)
REMARK    1  A    between atoms: C_1  and  O_2
REMARK    2  A    between atoms: O_2  and  C_3
REMARK    3  A    between atoms: C_5  and  C_6
REMARK    4  A    between atoms: C_7  and  C_8
REMARK    5  A    between atoms: N_17  and  C_18
REMARK    6  A    between atoms: C_21  and  N_22
REMARK                            x       y       z     vdW  Elec       q    Type
REMARK                         _______ _______ _______ _____ _____    ______ ____
ROOT
ATOM      1  C   UNL     1       3.110   6.543  18.284  0.00  0.00    +0.000 A 
ATOM      2  C   UNL     1       2.597   7.769  18.760  0.00  0.00    +0.000 A 
ATOM      3  C   UNL     1       1.829   7.849  19.946  0.00  0.00    +0.000 A 
ATOM      4  C   UNL     1       1.587   6.659  20.640  0.00  0.00    +0.000 A 
ATOM      5  C   UNL     1       2.111   5.439  20.191  0.00  0.00    +0.000 A 
ATOM      6  C   UNL     1       2.875   5.321  19.026  0.00  0.00    +0.000 A 
ENDROOT
BRANCH   6   7
ATOM      7  N   UNL     1       3.395   4.020  18.622  0.00  0.00    +0.000 N 
ATOM      8  C   UNL     1       2.781   3.234  17.581  0.00  0.00    +0.000 C 
ATOM      9  C   UNL     1       2.521   1.812  18.103  0.00  0.00    +0.000 C 
ATOM     10  O   UNL     1       3.738   1.207  18.533  0.00  0.00    +0.000 OA
ATOM     11  C   UNL     1       4.283   1.959  19.612  0.00  0.00    +0.000 C 
ATOM     12  C   UNL     1       4.605   3.392  19.163  0.00  0.00    +0.000 C 
ENDBRANCH   6   7
BRANCH   1  14
ATOM     13  C   UNL     1       5.180   6.740  17.001  0.00  0.00    +0.000 C 
ATOM     14  O   UNL     1       3.819   6.510  17.130  0.00  0.00    +0.000 OA
ENDBRANCH   1  14
BRANCH   3  15
ATOM     15  C   UNL     1       1.237   9.138  20.450  0.00  0.00    +0.000 C 
ATOM     16  C   UNL     1       0.173   9.219  21.284  0.00  0.00    +0.000 C 
BRANCH  16  17
ATOM     17  C   UNL     1      -0.373  10.491  21.880  0.00  0.00    +0.000 A 
ATOM     18  C   UNL     1      -1.047  10.540  23.110  0.00  0.00    +0.000 A 
ATOM     19  C   UNL     1      -1.929  11.619  23.333  0.00  0.00    +0.000 A 
ATOM     20  C   UNL     1      -1.428  12.830  22.915  0.00  0.00    +0.000 A 
ATOM     21  C   UNL     1      -1.743  13.983  23.634  0.00  0.00    +0.000 A 
ATOM     22  C   UNL     1      -0.973  15.125  23.453  0.00  0.00    +0.000 A 
ATOM     23  C   UNL     1       0.090  15.106  22.536  0.00  0.00    +0.000 A 
ATOM     24  C   UNL     1       0.299  13.985  21.704  0.00  0.00    +0.000 A 
ATOM     25  C   UNL     1      -0.493  12.827  21.868  0.00  0.00    +0.000 A 
ATOM     26  N   UNL     1      -0.282  11.663  21.162  0.00  0.00    +0.000 N 
ATOM     27  C   UNL     1      -1.066  11.522  19.901  0.00  0.00    +0.000 C 
ENDBRANCH  16  17
ENDBRANCH   3  15
TORSDOF 4
ENDMDL
MODEL 6
REMARK VINA RESULT:      -7.5      6.747      8.263
REMARK  Name = 
REMARK  6 active torsions:
REMARK  status: ('A' for Active; 'I' for Inactive)
REMARK    1  A    between atoms: C_1  and  O_2
REMARK    2  A    between atoms: O_2  and  C_3
REMARK    3  A    between atoms: C_5  and  C_6
REMARK    4  A    between atoms: C_7  and  C_8
REMARK    5  A    between atoms: N_17  and  C_18
REMARK    6  A    between atoms: C_21  and  N_22
REMARK                            x       y       z     vdW  Elec       q    Type
REMARK                         _______ _______ _______ _____ _____    ______ ____
ROOT
ATOM      1  C   UNL     1       2.248   5.928  19.956  0.00  0.00    +0.000 A 
ATOM      2  C   UNL     1       1.692   7.216  20.105  0.00  0.00    +0.000 A 
ATOM      3  C   UNL     1       1.891   8.235  19.142  0.00  0.00    +0.000 A 
ATOM      4  C   UNL     1       2.669   7.922  18.024  0.00  0.00    +0.000 A 
ATOM      5  C   UNL     1       3.207   6.639  17.851  0.00  0.00    +0.000 A 
ATOM      6  C   UNL     1       3.030   5.608  18.778  0.00  0.00    +0.000 A 
ENDROOT
BRANCH   6   7
ATOM      7  N   UNL     1       3.613   4.295  18.530  0.00  0.00    +0.000 N 
ATOM      8  C   UNL     1       3.188   3.456  17.437  0.00  0.00    +0.000 C 
ATOM      9  C   UNL     1       2.844   2.057  17.972  0.00  0.00    +0.000 C 
ATOM     10  O   UNL     1       3.970   1.484  18.632  0.00  0.00    +0.000 OA
ATOM     11  C   UNL     1       4.320   2.289  19.752  0.00  0.00    +0.000 C 
ATOM     12  C   UNL     1       4.713   3.703  19.299  0.00  0.00    +0.000 C 
ENDBRANCH   6   7
BRANCH   1  14
ATOM     13  C   UNL     1       1.201   3.901  20.830  0.00  0.00    +0.000 C 
ATOM     14  O   UNL     1       2.052   4.992  20.915  0.00  0.00    +0.000 OA
ENDBRANCH   1  14
BRANCH   3  15
ATOM     15  C   UNL     1       1.343   9.628  19.302  0.00  0.00    +0.000 C 
ATOM     16  C   UNL     1       0.116   9.917  19.799  0.00  0.00    +0.000 C 
BRANCH  16  17
ATOM     17  C   UNL     1      -0.413  11.303  20.062  0.00  0.00    +0.000 A 
ATOM     18  C   UNL     1      -0.828  11.744  21.328  0.00  0.00    +0.000 A 
ATOM     19  C   UNL     1      -1.743  12.817  21.383  0.00  0.00    +0.000 A 
ATOM     20  C   UNL     1      -1.450  13.830  20.500  0.00  0.00    +0.000 A 
ATOM     21  C   UNL     1      -1.719  15.150  20.863  0.00  0.00    +0.000 A 
ATOM     22  C   UNL     1      -1.110  16.183  20.162  0.00  0.00    +0.000 A 
ATOM     23  C   UNL     1      -0.256  15.883  19.089  0.00  0.00    +0.000 A 
ATOM     24  C   UNL     1      -0.117  14.553  18.634  0.00  0.00    +0.000 A 
ATOM     25  C   UNL     1      -0.748  13.499  19.331  0.00  0.00    +0.000 A 
ATOM     26  N   UNL     1      -0.577  12.171  19.005  0.00  0.00    +0.000 N 
ATOM     27  C   UNL     1      -1.583  11.603  18.061  0.00  0.00    +0.000 C 
ENDBRANCH  16  17
ENDBRANCH   3  15
TORSDOF 4
ENDMDL
MODEL 7
REMARK VINA RESULT:      -7.5      6.535      8.702
REMARK  Name = 
REMARK  6 active torsions:
REMARK  status: ('A' for Active; 'I' for Inactive)
REMARK    1  A    between atoms: C_1  and  O_2
REMARK    2  A    between atoms: O_2  and  C_3
REMARK    3  A    between atoms: C_5  and  C_6
REMARK    4  A    between atoms: C_7  and  C_8
REMARK    5  A    between atoms: N_17  and  C_18
REMARK    6  A    between atoms: C_21  and  N_22
REMARK                            x       y       z     vdW  Elec       q    Type
REMARK                         _______ _______ _______ _____ _____    ______ ____
ROOT
ATOM      1  C   UNL     1       2.361   5.052  20.035  0.00  0.00    +0.000 A 
ATOM      2  C   UNL     1       1.526   5.973  20.704  0.00  0.00    +0.000 A 
ATOM      3  C   UNL     1       1.534   7.354  20.392  0.00  0.00    +0.000 A 
ATOM      4  C   UNL     1       2.409   7.784  19.389  0.00  0.00    +0.000 A 
ATOM      5  C   UNL     1       3.225   6.875  18.701  0.00  0.00    +0.000 A 
ATOM      6  C   UNL     1       3.243   5.505  18.979  0.00  0.00    +0.000 A 
ENDROOT
BRANCH   6   7
ATOM      7  N   UNL     1       4.112   4.616  18.218  0.00  0.00    +0.000 N 
ATOM      8  C   UNL     1       5.458   4.310  18.635  0.00  0.00    +0.000 C 
ATOM      9  C   UNL     1       6.424   4.563  17.467  0.00  0.00    +0.000 C 
ATOM     10  O   UNL     1       6.059   3.774  16.337  0.00  0.00    +0.000 OA
ATOM     11  C   UNL     1       4.759   4.149  15.899  0.00  0.00    +0.000 C 
ATOM     12  C   UNL     1       3.722   3.894  17.002  0.00  0.00    +0.000 C 
ENDBRANCH   6   7
BRANCH   1  14
ATOM     13  C   UNL     1       2.373   3.240  21.675  0.00  0.00    +0.000 C 
ATOM     14  O   UNL     1       2.337   3.742  20.384  0.00  0.00    +0.000 OA
ENDBRANCH   1  14
BRANCH   3  15
ATOM     15  C   UNL     1       0.684   8.360  21.120  0.00  0.00    +0.000 C 
ATOM     16  C   UNL     1       0.976   9.679  21.224  0.00  0.00    +0.000 C 
BRANCH  16  17
ATOM     17  C   UNL     1       0.092  10.720  21.860  0.00  0.00    +0.000 A 
ATOM     18  C   UNL     1      -0.745  10.458  22.955  0.00  0.00    +0.000 A 
ATOM     19  C   UNL     1      -1.860  11.301  23.147  0.00  0.00    +0.000 A 
ATOM     20  C   UNL     1      -1.576  12.634  22.960  0.00  0.00    +0.000 A 
ATOM     21  C   UNL     1      -2.229  13.587  23.741  0.00  0.00    +0.000 A 
ATOM     22  C   UNL     1      -1.703  14.870  23.824  0.00  0.00    +0.000 A 
ATOM     23  C   UNL     1      -0.542  15.192  23.105  0.00  0.00    +0.000 A 
ATOM     24  C   UNL     1       0.018  14.266  22.197  0.00  0.00    +0.000 A 
ATOM     25  C   UNL     1      -0.522  12.965  22.093  0.00  0.00    +0.000 A 
ATOM     26  N   UNL     1       0.031  11.979  21.305  0.00  0.00    +0.000 N 
ATOM     27  C   UNL     1      -0.517  11.875  19.922  0.00  0.00    +0.000 C 
ENDBRANCH  16  17
ENDBRANCH   3  15
TORSDOF 4
ENDMDL
MODEL 8
REMARK VINA RESULT:      -7.4      0.562      1.073
REMARK  Name = 
REMARK  6 active torsions:
REMARK  status: ('A' for Active; 'I' for Inactive)
REMARK    1  A    between atoms: C_1  and  O_2
REMARK    2  A    between atoms: O_2  and  C_3
REMARK    3  A    between atoms: C_5  and  C_6
REMARK    4  A    between atoms: C_7  and  C_8
REMARK    5  A    between atoms: N_17  and  C_18
REMARK    6  A    between atoms: C_21  and  N_22
REMARK                            x       y       z     vdW  Elec       q    Type
REMARK                         _______ _______ _______ _____ _____    ______ ____
ROOT
ATOM      1  C   UNL     1       5.262   6.845  17.599  0.00  0.00    +0.000 A 
ATOM      2  C   UNL     1       6.270   7.833  17.575  0.00  0.00    +0.000 A 
ATOM      3  C   UNL     1       7.550   7.610  18.137  0.00  0.00    +0.000 A 
ATOM      4  C   UNL     1       7.787   6.364  18.727  0.00  0.00    +0.000 A 
ATOM      5  C   UNL     1       6.803   5.367  18.735  0.00  0.00    +0.000 A 
ATOM      6  C   UNL     1       5.529   5.549  18.189  0.00  0.00    +0.000 A 
ENDROOT
BRANCH   6   7
ATOM      7  N   UNL     1       4.556   4.464  18.226  0.00  0.00    +0.000 N 
ATOM      8  C   UNL     1       3.846   4.106  19.428  0.00  0.00    +0.000 C 
ATOM      9  C   UNL     1       3.993   2.596  19.675  0.00  0.00    +0.000 C 
ATOM     10  O   UNL     1       3.496   1.856  18.562  0.00  0.00    +0.000 OA
ATOM     11  C   UNL     1       4.263   2.171  17.406  0.00  0.00    +0.000 C 
ATOM     12  C   UNL     1       4.143   3.664  17.068  0.00  0.00    +0.000 C 
ENDBRANCH   6   7
BRANCH   1  14
ATOM     13  C   UNL     1       2.958   7.647  17.747  0.00  0.00    +0.000 C 
ATOM     14  O   UNL     1       4.043   7.112  17.071  0.00  0.00    +0.000 OA
ENDBRANCH   1  14
BRANCH   3  15
ATOM     15  C   UNL     1       8.626   8.663  18.162  0.00  0.00    +0.000 C 
ATOM     16  C   UNL     1       8.400   9.985  18.346  0.00  0.00    +0.000 C 
BRANCH  16  17
ATOM     17  C   UNL     1       9.466  11.042  18.475  0.00  0.00    +0.000 A 
ATOM     18  C   UNL     1      10.586  11.115  17.633  0.00  0.00    +0.000 A 
ATOM     19  C   UNL     1      11.733  11.778  18.120  0.00  0.00    +0.000 A 
ATOM     20  C   UNL     1      11.446  12.950  18.781  0.00  0.00    +0.000 A 
ATOM     21  C   UNL     1      12.333  14.022  18.686  0.00  0.00    +0.000 A 
ATOM     22  C   UNL     1      11.897  15.295  19.029  0.00  0.00    +0.000 A 
ATOM     23  C   UNL     1      10.583  15.477  19.488  0.00  0.00    +0.000 A 
ATOM     24  C   UNL     1       9.747  14.365  19.728  0.00  0.00    +0.000 A 
ATOM     25  C   UNL     1      10.191  13.065  19.399  0.00  0.00    +0.000 A 
ATOM     26  N   UNL     1       9.395  11.945  19.512  0.00  0.00    +0.000 N 
ATOM     27  C   UNL     1       9.497  11.210  20.805  0.00  0.00    +0.000 C 
ENDBRANCH  16  17
ENDBRANCH   3  15
TORSDOF 4
ENDMDL
MODEL 9
REMARK VINA RESULT:      -7.4      6.286      8.263
REMARK  Name = 
REMARK  6 active torsions:
REMARK  status: ('A' for Active; 'I' for Inactive)
REMARK    1  A    between atoms: C_1  and  O_2
REMARK    2  A    between atoms: O_2  and  C_3
REMARK    3  A    between atoms: C_5  and  C_6
REMARK    4  A    between atoms: C_7  and  C_8
REMARK    5  A    between atoms: N_17  and  C_18
REMARK    6  A    between atoms: C_21  and  N_22
REMARK                            x       y       z     vdW  Elec       q    Type
REMARK                         _______ _______ _______ _____ _____    ______ ____
ROOT
ATOM      1  C   UNL     1       4.038   4.374  17.248  0.00  0.00    +0.000 A 
ATOM      2  C   UNL     1       3.263   5.067  18.202  0.00  0.00    +0.000 A 
ATOM      3  C   UNL     1       3.299   6.478  18.314  0.00  0.00    +0.000 A 
ATOM      4  C   UNL     1       4.140   7.174  17.440  0.00  0.00    +0.000 A 
ATOM      5  C   UNL     1       4.897   6.499  16.472  0.00  0.00    +0.000 A 
ATOM      6  C   UNL     1       4.885   5.108  16.330  0.00  0.00    +0.000 A 
ENDROOT
BRANCH   6   7
ATOM      7  N   UNL     1       5.693   4.473  15.295  0.00  0.00    +0.000 N 
ATOM      8  C   UNL     1       7.106   4.722  15.158  0.00  0.00    +0.000 C 
ATOM      9  C   UNL     1       7.416   5.115  13.705  0.00  0.00    +0.000 C 
ATOM     10  O   UNL     1       7.001   4.086  12.810  0.00  0.00    +0.000 OA
ATOM     11  C   UNL     1       5.592   3.914  12.909  0.00  0.00    +0.000 C 
ATOM     12  C   UNL     1       5.199   3.485  14.330  0.00  0.00    +0.000 C 
ENDBRANCH   6   7
BRANCH   1  14
ATOM     13  C   UNL     1       3.460   2.183  18.160  0.00  0.00    +0.000 C 
ATOM     14  O   UNL     1       3.990   3.021  17.193  0.00  0.00    +0.000 OA
ENDBRANCH   1  14
BRANCH   3  15
ATOM     15  C   UNL     1       2.513   7.235  19.352  0.00  0.00    +0.000 C 
ATOM     16  C   UNL     1       1.888   8.416  19.130  0.00  0.00    +0.000 C 
BRANCH  16  17
ATOM     17  C   UNL     1       1.014   9.139  20.121  0.00  0.00    +0.000 A 
ATOM     18  C   UNL     1       0.677   8.616  21.378  0.00  0.00    +0.000 A 
ATOM     19  C   UNL     1      -0.498   9.096  21.996  0.00  0.00    +0.000 A 
ATOM     20  C   UNL     1      -0.653  10.459  21.892  0.00  0.00    +0.000 A 
ATOM     21  C   UNL     1      -1.246  11.161  22.941  0.00  0.00    +0.000 A 
ATOM     22  C   UNL     1      -1.081  12.538  23.013  0.00  0.00    +0.000 A 
ATOM     23  C   UNL     1      -0.343  13.201  22.021  0.00  0.00    +0.000 A 
ATOM     24  C   UNL     1       0.118  12.502  20.884  0.00  0.00    +0.000 A 
ATOM     25  C   UNL     1      -0.062  11.104  20.793  0.00  0.00    +0.000 A 
ATOM     26  N   UNL     1       0.447  10.343  19.764  0.00  0.00    +0.000 N 
ATOM     27  C   UNL     1      -0.470  10.124  18.608  0.00  0.00    +0.000 C 
ENDBRANCH  16  17
ENDBRANCH   3  15
TORSDOF 4
ENDMDL
