MODEL 1
REMARK VINA RESULT:      -7.9      0.000      0.000
REMARK  Name = 
REMARK  7 active torsions:
REMARK  status: ('A' for Active; 'I' for Inactive)
REMARK    1  A    between atoms: C_1  and  N_2
REMARK    2  A    between atoms: N_2  and  C_3
REMARK    3  A    between atoms: N_2  and  C_4
REMARK    4  A    between atoms: C_4  and  C_5
REMARK    5  A    between atoms: C_5  and  C_6
REMARK    6  A    between atoms: C_6  and  C_7
REMARK    7  A    between atoms: N_9  and  C_10
REMARK                            x       y       z     vdW  Elec       q    Type
REMARK                         _______ _______ _______ _____ _____    ______ ____
ROOT
ATOM      1  C   UNL     1       2.458   6.228  19.219  0.00  0.00    +0.000 A 
ATOM      2  C   UNL     1       1.933   6.061  20.500  0.00  0.00    +0.000 A 
ATOM      3  C   UNL     1       1.286   7.105  21.157  0.00  0.00    +0.000 A 
ATOM      4  C   UNL     1       1.149   8.361  20.559  0.00  0.00    +0.000 A 
ATOM      5  C   UNL     1       1.710   8.542  19.283  0.00  0.00    +0.000 A 
ATOM      6  C   UNL     1       2.374   7.491  18.620  0.00  0.00    +0.000 A 
ATOM      7  C   UNL     1       1.565   9.872  18.619  0.00  0.00    +0.000 C 
ATOM      8  O   UNL     1       2.039  10.067  17.504  0.00  0.00    +0.000 OA
ATOM      9  C   UNL     1       0.828  10.950  19.337  0.00  0.00    +0.000 A 
ATOM     10  C   UNL     1       0.664  12.206  18.746  0.00  0.00    +0.000 A 
ATOM     11  C   UNL     1      -0.027  13.210  19.430  0.00  0.00    +0.000 A 
ATOM     12  C   UNL     1      -0.552  12.965  20.700  0.00  0.00    +0.000 A 
ATOM     13  C   UNL     1      -0.397  11.709  21.306  0.00  0.00    +0.000 A 
ATOM     14  C   UNL     1      -0.915  11.431  22.573  0.00  0.00    +0.000 A 
ATOM     15  C   UNL     1      -0.724  10.169  23.104  0.00  0.00    +0.000 A 
ATOM     16  N   UNL     1      -0.063   9.185  22.466  0.00  0.00    +0.000 NA
ATOM     17  C   UNL     1       0.440   9.455  21.233  0.00  0.00    +0.000 A 
ATOM     18  C   UNL     1       0.301  10.695  20.613  0.00  0.00    +0.000 A 
ENDROOT
BRANCH   1  21
ATOM     19  C   UNL     1       2.366   4.274  17.692  0.00  0.00    +0.000 C 
ATOM     20  O   UNL     1       1.165   4.296  17.433  0.00  0.00    +0.000 OA
ATOM     21  N   UNL     1       3.053   5.162  18.510  0.00  0.00    +0.000 N 
ATOM     22  H   UNL     1       4.067   5.139  18.455  0.00  0.00    +0.000 HD
BRANCH  19  23
ATOM     23  C   UNL     1       3.250   3.261  17.006  0.00  0.00    +0.000 C 
BRANCH  23  24
ATOM     24  C   UNL     1       4.719   3.659  17.133  0.00  0.00    +0.000 C 
BRANCH  24  25
ATOM     25  C   UNL     1       5.288   4.364  15.893  0.00  0.00    +0.000 C 
BRANCH  25  27
ATOM     26  C   UNL     1       5.893   6.536  16.783  0.00  0.00    +0.000 C 
ATOM     27  N   UNL     1       6.398   5.281  16.210  0.00  0.00    +0.000 NA
ATOM     28  C   UNL     1       7.312   4.650  17.171  0.00  0.00    +0.000 C 
ENDBRANCH  25  27
ENDBRANCH  24  25
ENDBRANCH  23  24
ENDBRANCH  19  23
ENDBRANCH   1  21
TORSDOF 5
ENDMDL
MODEL 2
REMARK VINA RESULT:      -7.8      1.533      2.579
REMARK  Name = 
REMARK  7 active torsions:
REMARK  status: ('A' for Active; 'I' for Inactive)
REMARK    1  A    between atoms: C_1  and  N_2
REMARK    2  A    between atoms: N_2  and  C_3
REMARK    3  A    between atoms: N_2  and  C_4
REMARK    4  A    between atoms: C_4  and  C_5
REMARK    5  A    between atoms: C_5  and  C_6
REMARK    6  A    between atoms: C_6  and  C_7
REMARK    7  A    between atoms: N_9  and  C_10
REMARK                            x       y       z     vdW  Elec       q    Type
REMARK                         _______ _______ _______ _____ _____    ______ ____
ROOT
ATOM      1  C   UNL     1       2.398   6.493  19.165  0.00  0.00    +0.000 A 
ATOM      2  C   UNL     1       1.873   6.316  20.445  0.00  0.00    +0.000 A 
ATOM      3  C   UNL     1       1.234   7.358  21.113  0.00  0.00    +0.000 A 
ATOM      4  C   UNL     1       1.105   8.622  20.527  0.00  0.00    +0.000 A 
ATOM      5  C   UNL     1       1.666   8.812  19.253  0.00  0.00    +0.000 A 
ATOM      6  C   UNL     1       2.322   7.763  18.579  0.00  0.00    +0.000 A 
ATOM      7  C   UNL     1       1.530  10.149  18.603  0.00  0.00    +0.000 C 
ATOM      8  O   UNL     1       2.005  10.353  17.489  0.00  0.00    +0.000 OA
ATOM      9  C   UNL     1       0.801  11.225  19.332  0.00  0.00    +0.000 A 
ATOM     10  C   UNL     1       0.646  12.488  18.755  0.00  0.00    +0.000 A 
ATOM     11  C   UNL     1      -0.038  13.490  19.449  0.00  0.00    +0.000 A 
ATOM     12  C   UNL     1      -0.564  13.235  20.718  0.00  0.00    +0.000 A 
ATOM     13  C   UNL     1      -0.416  11.972  21.310  0.00  0.00    +0.000 A 
ATOM     14  C   UNL     1      -0.935  11.685  22.576  0.00  0.00    +0.000 A 
ATOM     15  C   UNL     1      -0.753  10.417  23.093  0.00  0.00    +0.000 A 
ATOM     16  N   UNL     1      -0.099   9.434  22.444  0.00  0.00    +0.000 NA
ATOM     17  C   UNL     1       0.404   9.713  21.214  0.00  0.00    +0.000 A 
ATOM     18  C   UNL     1       0.274  10.961  20.607  0.00  0.00    +0.000 A 
ENDROOT
BRANCH   1  21
ATOM     19  C   UNL     1       4.288   4.981  18.618  0.00  0.00    +0.000 C 
ATOM     20  O   UNL     1       5.106   5.404  19.431  0.00  0.00    +0.000 OA
ATOM     21  N   UNL     1       2.985   5.430  18.445  0.00  0.00    +0.000 N 
ATOM     22  H   UNL     1       2.373   4.844  17.886  0.00  0.00    +0.000 HD
BRANCH  19  23
ATOM     23  C   UNL     1       4.647   3.792  17.761  0.00  0.00    +0.000 C 
BRANCH  23  24
ATOM     24  C   UNL     1       3.426   2.900  17.545  0.00  0.00    +0.000 C 
BRANCH  24  25
ATOM     25  C   UNL     1       3.292   1.761  18.566  0.00  0.00    +0.000 C 
BRANCH  25  27
ATOM     26  C   UNL     1       2.355   2.628  20.626  0.00  0.00    +0.000 C 
ATOM     27  N   UNL     1       2.079   1.872  19.397  0.00  0.00    +0.000 NA
ATOM     28  C   UNL     1       1.015   2.550  18.646  0.00  0.00    +0.000 C 
ENDBRANCH  25  27
ENDBRANCH  24  25
ENDBRANCH  23  24
ENDBRANCH  19  23
ENDBRANCH   1  21
TORSDOF 5
ENDMDL
MODEL 3
REMARK VINA RESULT:      -7.7      2.113      3.781
REMARK  Name = 
REMARK  7 active torsions:
REMARK  status: ('A' for Active; 'I' for Inactive)
REMARK    1  A    between atoms: C_1  and  N_2
REMARK    2  A    between atoms: N_2  and  C_3
REMARK    3  A    between atoms: N_2  and  C_4
REMARK    4  A    between atoms: C_4  and  C_5
REMARK    5  A    between atoms: C_5  and  C_6
REMARK    6  A    between atoms: C_6  and  C_7
REMARK    7  A    between atoms: N_9  and  C_10
REMARK                            x       y       z     vdW  Elec       q    Type
REMARK                         _______ _______ _______ _____ _____    ______ ____
ROOT
ATOM      1  C   UNL     1       2.431   7.648  18.810  0.00  0.00    +0.000 A 
ATOM      2  C   UNL     1       2.281   8.600  17.802  0.00  0.00    +0.000 A 
ATOM      3  C   UNL     1       1.536   9.758  18.008  0.00  0.00    +0.000 A 
ATOM      4  C   UNL     1       0.903  10.003  19.231  0.00  0.00    +0.000 A 
ATOM      5  C   UNL     1       1.022   9.028  20.235  0.00  0.00    +0.000 A 
ATOM      6  C   UNL     1       1.767   7.850  20.026  0.00  0.00    +0.000 A 
ATOM      7  C   UNL     1       0.365   9.273  21.553  0.00  0.00    +0.000 C 
ATOM      8  O   UNL     1       0.449   8.446  22.456  0.00  0.00    +0.000 OA
ATOM      9  C   UNL     1      -0.387  10.545  21.749  0.00  0.00    +0.000 A 
ATOM     10  C   UNL     1      -1.009  10.816  22.970  0.00  0.00    +0.000 A 
ATOM     11  C   UNL     1      -1.714  12.011  23.142  0.00  0.00    +0.000 A 
ATOM     12  C   UNL     1      -1.799  12.934  22.097  0.00  0.00    +0.000 A 
ATOM     13  C   UNL     1      -1.179  12.677  20.865  0.00  0.00    +0.000 A 
ATOM     14  C   UNL     1      -1.243  13.582  19.803  0.00  0.00    +0.000 A 
ATOM     15  C   UNL     1      -0.604  13.262  18.620  0.00  0.00    +0.000 A 
ATOM     16  N   UNL     1       0.081  12.117  18.431  0.00  0.00    +0.000 NA
ATOM     17  C   UNL     1       0.143  11.237  19.464  0.00  0.00    +0.000 A 
ATOM     18  C   UNL     1      -0.467  11.469  20.695  0.00  0.00    +0.000 A 
ENDROOT
BRANCH   1  21
ATOM     19  C   UNL     1       2.814   5.309  18.077  0.00  0.00    +0.000 C 
ATOM     20  O   UNL     1       1.703   5.075  17.610  0.00  0.00    +0.000 OA
ATOM     21  N   UNL     1       3.240   6.504  18.643  0.00  0.00    +0.000 N 
ATOM     22  H   UNL     1       4.240   6.607  18.787  0.00  0.00    +0.000 HD
BRANCH  19  23
ATOM     23  C   UNL     1       3.896   4.262  17.965  0.00  0.00    +0.000 C 
BRANCH  23  24
ATOM     24  C   UNL     1       3.324   2.870  18.227  0.00  0.00    +0.000 C 
BRANCH  24  25
ATOM     25  C   UNL     1       3.158   2.531  19.716  0.00  0.00    +0.000 C 
BRANCH  25  27
ATOM     26  C   UNL     1       1.244   3.457  20.879  0.00  0.00    +0.000 C 
ATOM     27  N   UNL     1       1.751   2.317  20.103  0.00  0.00    +0.000 NA
ATOM     28  C   UNL     1       0.920   2.144  18.906  0.00  0.00    +0.000 C 
ENDBRANCH  25  27
ENDBRANCH  24  25
ENDBRANCH  23  24
ENDBRANCH  19  23
ENDBRANCH   1  21
TORSDOF 5
ENDMDL
MODEL 4
REMARK VINA RESULT:      -7.7      1.697      2.895
REMARK  Name = 
REMARK  7 active torsions:
REMARK  status: ('A' for Active; 'I' for Inactive)
REMARK    1  A    between atoms: C_1  and  N_2
REMARK    2  A    between atoms: N_2  and  C_3
REMARK    3  A    between atoms: N_2  and  C_4
REMARK    4  A    between atoms: C_4  and  C_5
REMARK    5  A    between atoms: C_5  and  C_6
REMARK    6  A    between atoms: C_6  and  C_7
REMARK    7  A    between atoms: N_9  and  C_10
REMARK                            x       y       z     vdW  Elec       q    Type
REMARK                         _______ _______ _______ _____ _____    ______ ____
ROOT
ATOM      1  C   UNL     1       2.406   7.495  18.947  0.00  0.00    +0.000 A 
ATOM      2  C   UNL     1       2.297   8.405  17.897  0.00  0.00    +0.000 A 
ATOM      3  C   UNL     1       1.589   9.595  18.044  0.00  0.00    +0.000 A 
ATOM      4  C   UNL     1       0.953   9.915  19.248  0.00  0.00    +0.000 A 
ATOM      5  C   UNL     1       1.030   8.981  20.295  0.00  0.00    +0.000 A 
ATOM      6  C   UNL     1       1.737   7.771  20.146  0.00  0.00    +0.000 A 
ATOM      7  C   UNL     1       0.370   9.306  21.594  0.00  0.00    +0.000 C 
ATOM      8  O   UNL     1       0.417   8.516  22.533  0.00  0.00    +0.000 OA
ATOM      9  C   UNL     1      -0.341  10.609  21.726  0.00  0.00    +0.000 A 
ATOM     10  C   UNL     1      -0.966  10.954  22.928  0.00  0.00    +0.000 A 
ATOM     11  C   UNL     1      -1.631  12.178  23.038  0.00  0.00    +0.000 A 
ATOM     12  C   UNL     1      -1.677  13.056  21.954  0.00  0.00    +0.000 A 
ATOM     13  C   UNL     1      -1.053  12.725  20.741  0.00  0.00    +0.000 A 
ATOM     14  C   UNL     1      -1.077  13.585  19.640  0.00  0.00    +0.000 A 
ATOM     15  C   UNL     1      -0.438  13.191  18.479  0.00  0.00    +0.000 A 
ATOM     16  N   UNL     1       0.210  12.018  18.348  0.00  0.00    +0.000 NA
ATOM     17  C   UNL     1       0.233  11.182  19.419  0.00  0.00    +0.000 A 
ATOM     18  C   UNL     1      -0.380  11.488  20.631  0.00  0.00    +0.000 A 
ENDROOT
BRANCH   1  21
ATOM     19  C   UNL     1       2.741   5.135  18.256  0.00  0.00    +0.000 C 
ATOM     20  O   UNL     1       1.652   4.941  17.723  0.00  0.00    +0.000 OA
ATOM     21  N   UNL     1       3.178   6.318  18.839  0.00  0.00    +0.000 N 
ATOM     22  H   UNL     1       4.171   6.383  19.045  0.00  0.00    +0.000 HD
BRANCH  19  23
ATOM     23  C   UNL     1       3.786   4.046  18.219  0.00  0.00    +0.000 C 
BRANCH  23  24
ATOM     24  C   UNL     1       4.309   3.854  16.797  0.00  0.00    +0.000 C 
BRANCH  24  25
ATOM     25  C   UNL     1       5.311   4.928  16.347  0.00  0.00    +0.000 C 
BRANCH  25  27
ATOM     26  C   UNL     1       7.422   4.673  17.511  0.00  0.00    +0.000 C 
ATOM     27  N   UNL     1       6.159   5.421  17.447  0.00  0.00    +0.000 NA
ATOM     28  C   UNL     1       6.456   6.846  17.254  0.00  0.00    +0.000 C 
ENDBRANCH  25  27
ENDBRANCH  24  25
ENDBRANCH  23  24
ENDBRANCH  19  23
ENDBRANCH   1  21
TORSDOF 5
ENDMDL
MODEL 5
REMARK VINA RESULT:      -7.5      1.053      1.208
REMARK  Name = 
REMARK  7 active torsions:
REMARK  status: ('A' for Active; 'I' for Inactive)
REMARK    1  A    between atoms: C_1  and  N_2
REMARK    2  A    between atoms: N_2  and  C_3
REMARK    3  A    between atoms: N_2  and  C_4
REMARK    4  A    between atoms: C_4  and  C_5
REMARK    5  A    between atoms: C_5  and  C_6
REMARK    6  A    between atoms: C_6  and  C_7
REMARK    7  A    between atoms: N_9  and  C_10
REMARK                            x       y       z     vdW  Elec       q    Type
REMARK                         _______ _______ _______ _____ _____    ______ ____
ROOT
ATOM      1  C   UNL     1       2.593   6.470  18.807  0.00  0.00    +0.000 A 
ATOM      2  C   UNL     1       2.112   6.163  20.079  0.00  0.00    +0.000 A 
ATOM      3  C   UNL     1       1.444   7.113  20.846  0.00  0.00    +0.000 A 
ATOM      4  C   UNL     1       1.240   8.413  20.372  0.00  0.00    +0.000 A 
ATOM      5  C   UNL     1       1.756   8.735  19.106  0.00  0.00    +0.000 A 
ATOM      6  C   UNL     1       2.443   7.778  18.330  0.00  0.00    +0.000 A 
ATOM      7  C   UNL     1       1.540  10.113  18.573  0.00  0.00    +0.000 C 
ATOM      8  O   UNL     1       1.974  10.430  17.469  0.00  0.00    +0.000 OA
ATOM      9  C   UNL     1       0.782  11.088  19.406  0.00  0.00    +0.000 A 
ATOM     10  C   UNL     1       0.552  12.385  18.940  0.00  0.00    +0.000 A 
ATOM     11  C   UNL     1      -0.159  13.292  19.732  0.00  0.00    +0.000 A 
ATOM     12  C   UNL     1      -0.638  12.908  20.986  0.00  0.00    +0.000 A 
ATOM     13  C   UNL     1      -0.415  11.609  21.467  0.00  0.00    +0.000 A 
ATOM     14  C   UNL     1      -0.886  11.193  22.716  0.00  0.00    +0.000 A 
ATOM     15  C   UNL     1      -0.630   9.897  23.121  0.00  0.00    +0.000 A 
ATOM     16  N   UNL     1       0.051   9.005  22.377  0.00  0.00    +0.000 NA
ATOM     17  C   UNL     1       0.507   9.409  21.163  0.00  0.00    +0.000 A 
ATOM     18  C   UNL     1       0.302  10.694  20.666  0.00  0.00    +0.000 A 
ENDROOT
BRANCH   1  21
ATOM     19  C   UNL     1       4.236   4.656  18.393  0.00  0.00    +0.000 C 
ATOM     20  O   UNL     1       4.734   4.597  19.514  0.00  0.00    +0.000 OA
ATOM     21  N   UNL     1       3.210   5.500  17.987  0.00  0.00    +0.000 N 
ATOM     22  H   UNL     1       2.769   5.283  17.098  0.00  0.00    +0.000 HD
BRANCH  19  23
ATOM     23  C   UNL     1       4.677   3.672  17.337  0.00  0.00    +0.000 C 
BRANCH  23  24
ATOM     24  C   UNL     1       5.689   4.319  16.392  0.00  0.00    +0.000 C 
BRANCH  24  25
ATOM     25  C   UNL     1       7.092   4.484  16.994  0.00  0.00    +0.000 C 
BRANCH  25  27
ATOM     26  C   UNL     1       6.399   6.793  16.739  0.00  0.00    +0.000 C 
ATOM     27  N   UNL     1       7.470   5.896  17.194  0.00  0.00    +0.000 NA
ATOM     28  C   UNL     1       7.736   6.149  18.615  0.00  0.00    +0.000 C 
ENDBRANCH  25  27
ENDBRANCH  24  25
ENDBRANCH  23  24
ENDBRANCH  19  23
ENDBRANCH   1  21
TORSDOF 5
ENDMDL
MODEL 6
REMARK VINA RESULT:      -7.5      1.873      2.999
REMARK  Name = 
REMARK  7 active torsions:
REMARK  status: ('A' for Active; 'I' for Inactive)
REMARK    1  A    between atoms: C_1  and  N_2
REMARK    2  A    between atoms: N_2  and  C_3
REMARK    3  A    between atoms: N_2  and  C_4
REMARK    4  A    between atoms: C_4  and  C_5
REMARK    5  A    between atoms: C_5  and  C_6
REMARK    6  A    between atoms: C_6  and  C_7
REMARK    7  A    between atoms: N_9  and  C_10
REMARK                            x       y       z     vdW  Elec       q    Type
REMARK                         _______ _______ _______ _____ _____    ______ ____
ROOT
ATOM      1  C   UNL     1       2.220   7.398  19.738  0.00  0.00    +0.000 A 
ATOM      2  C   UNL     1       2.165   8.172  18.580  0.00  0.00    +0.000 A 
ATOM      3  C   UNL     1       1.451   9.367  18.542  0.00  0.00    +0.000 A 
ATOM      4  C   UNL     1       0.754   9.828  19.664  0.00  0.00    +0.000 A 
ATOM      5  C   UNL     1       0.777   9.032  20.821  0.00  0.00    +0.000 A 
ATOM      6  C   UNL     1       1.490   7.816  20.859  0.00  0.00    +0.000 A 
ATOM      7  C   UNL     1       0.051   9.510  22.034  0.00  0.00    +0.000 C 
ATOM      8  O   UNL     1       0.050   8.842  23.065  0.00  0.00    +0.000 OA
ATOM      9  C   UNL     1      -0.666  10.815  21.968  0.00  0.00    +0.000 A 
ATOM     10  C   UNL     1      -1.351  11.301  23.085  0.00  0.00    +0.000 A 
ATOM     11  C   UNL     1      -2.021  12.526  23.010  0.00  0.00    +0.000 A 
ATOM     12  C   UNL     1      -2.010  13.263  21.824  0.00  0.00    +0.000 A 
ATOM     13  C   UNL     1      -1.326  12.789  20.695  0.00  0.00    +0.000 A 
ATOM     14  C   UNL     1      -1.293  13.506  19.496  0.00  0.00    +0.000 A 
ATOM     15  C   UNL     1      -0.595  12.976  18.427  0.00  0.00    +0.000 A 
ATOM     16  N   UNL     1       0.059  11.800  18.474  0.00  0.00    +0.000 NA
ATOM     17  C   UNL     1       0.027  11.103  19.640  0.00  0.00    +0.000 A 
ATOM     18  C   UNL     1      -0.648  11.552  20.773  0.00  0.00    +0.000 A 
ENDROOT
BRANCH   1  21
ATOM     19  C   UNL     1       2.675   5.020  19.198  0.00  0.00    +0.000 C 
ATOM     20  O   UNL     1       1.706   4.804  18.475  0.00  0.00    +0.000 OA
ATOM     21  N   UNL     1       2.996   6.222  19.815  0.00  0.00    +0.000 N 
ATOM     22  H   UNL     1       3.932   6.298  20.203  0.00  0.00    +0.000 HD
BRANCH  19  23
ATOM     23  C   UNL     1       3.705   3.935  19.394  0.00  0.00    +0.000 C 
BRANCH  23  24
ATOM     24  C   UNL     1       5.018   4.312  18.708  0.00  0.00    +0.000 C 
BRANCH  24  25
ATOM     25  C   UNL     1       5.002   4.132  17.183  0.00  0.00    +0.000 C 
BRANCH  25  27
ATOM     26  C   UNL     1       5.537   6.496  17.236  0.00  0.00    +0.000 C 
ATOM     27  N   UNL     1       4.927   5.412  16.454  0.00  0.00    +0.000 NA
ATOM     28  C   UNL     1       5.623   5.299  15.166  0.00  0.00    +0.000 C 
ENDBRANCH  25  27
ENDBRANCH  24  25
ENDBRANCH  23  24
ENDBRANCH  19  23
ENDBRANCH   1  21
TORSDOF 5
ENDMDL
MODEL 7
REMARK VINA RESULT:      -7.4      1.472      2.419
REMARK  Name = 
REMARK  7 active torsions:
REMARK  status: ('A' for Active; 'I' for Inactive)
REMARK    1  A    between atoms: C_1  and  N_2
REMARK    2  A    between atoms: N_2  and  C_3
REMARK    3  A    between atoms: N_2  and  C_4
REMARK    4  A    between atoms: C_4  and  C_5
REMARK    5  A    between atoms: C_5  and  C_6
REMARK    6  A    between atoms: C_6  and  C_7
REMARK    7  A    between atoms: N_9  and  C_10
REMARK                            x       y       z     vdW  Elec       q    Type
REMARK                         _______ _______ _______ _____ _____    ______ ____
ROOT
ATOM      1  C   UNL     1       2.451   6.487  19.268  0.00  0.00    +0.000 A 
ATOM      2  C   UNL     1       1.911   6.327  20.543  0.00  0.00    +0.000 A 
ATOM      3  C   UNL     1       1.231   7.365  21.175  0.00  0.00    +0.000 A 
ATOM      4  C   UNL     1       1.074   8.609  20.555  0.00  0.00    +0.000 A 
ATOM      5  C   UNL     1       1.650   8.784  19.286  0.00  0.00    +0.000 A 
ATOM      6  C   UNL     1       2.348   7.739  18.648  0.00  0.00    +0.000 A 
ATOM      7  C   UNL     1       1.485  10.100  18.600  0.00  0.00    +0.000 C 
ATOM      8  O   UNL     1       1.971  10.290  17.488  0.00  0.00    +0.000 OA
ATOM      9  C   UNL     1       0.713  11.172  19.290  0.00  0.00    +0.000 A 
ATOM     10  C   UNL     1       0.530  12.414  18.678  0.00  0.00    +0.000 A 
ATOM     11  C   UNL     1      -0.194  13.413  19.336  0.00  0.00    +0.000 A 
ATOM     12  C   UNL     1      -0.733  13.174  20.602  0.00  0.00    +0.000 A 
ATOM     13  C   UNL     1      -0.558  11.931  21.229  0.00  0.00    +0.000 A 
ATOM     14  C   UNL     1      -1.088  11.661  22.493  0.00  0.00    +0.000 A 
ATOM     15  C   UNL     1      -0.877  10.412  23.046  0.00  0.00    +0.000 A 
ATOM     16  N   UNL     1      -0.184   9.433  22.432  0.00  0.00    +0.000 NA
ATOM     17  C   UNL     1       0.331   9.696  21.203  0.00  0.00    +0.000 A 
ATOM     18  C   UNL     1       0.173  10.923  20.562  0.00  0.00    +0.000 A 
ENDROOT
BRANCH   1  21
ATOM     19  C   UNL     1       2.436   4.544  17.724  0.00  0.00    +0.000 C 
ATOM     20  O   UNL     1       1.252   4.571  17.402  0.00  0.00    +0.000 OA
ATOM     21  N   UNL     1       3.081   5.424  18.584  0.00  0.00    +0.000 N 
ATOM     22  H   UNL     1       4.096   5.399  18.583  0.00  0.00    +0.000 HD
BRANCH  19  23
ATOM     23  C   UNL     1       3.353   3.534  17.079  0.00  0.00    +0.000 C 
BRANCH  23  24
ATOM     24  C   UNL     1       3.204   2.169  17.750  0.00  0.00    +0.000 C 
BRANCH  24  25
ATOM     25  C   UNL     1       3.539   2.167  19.249  0.00  0.00    +0.000 C 
BRANCH  25  27
ATOM     26  C   UNL     1       1.182   2.038  19.801  0.00  0.00    +0.000 C 
ATOM     27  N   UNL     1       2.454   2.718  20.082  0.00  0.00    +0.000 NA
ATOM     28  C   UNL     1       2.780   2.556  21.504  0.00  0.00    +0.000 C 
ENDBRANCH  25  27
ENDBRANCH  24  25
ENDBRANCH  23  24
ENDBRANCH  19  23
ENDBRANCH   1  21
TORSDOF 5
ENDMDL
MODEL 8
REMARK VINA RESULT:      -7.3      2.180      3.808
REMARK  Name = 
REMARK  7 active torsions:
REMARK  status: ('A' for Active; 'I' for Inactive)
REMARK    1  A    between atoms: C_1  and  N_2
REMARK    2  A    between atoms: N_2  and  C_3
REMARK    3  A    between atoms: N_2  and  C_4
REMARK    4  A    between atoms: C_4  and  C_5
REMARK    5  A    between atoms: C_5  and  C_6
REMARK    6  A    between atoms: C_6  and  C_7
REMARK    7  A    between atoms: N_9  and  C_10
REMARK                            x       y       z     vdW  Elec       q    Type
REMARK                         _______ _______ _______ _____ _____    ______ ____
ROOT
ATOM      1  C   UNL     1       2.259   7.499  19.229  0.00  0.00    +0.000 A 
ATOM      2  C   UNL     1       2.189   8.359  18.134  0.00  0.00    +0.000 A 
ATOM      3  C   UNL     1       1.519   9.577  18.215  0.00  0.00    +0.000 A 
ATOM      4  C   UNL     1       0.883   9.976  19.395  0.00  0.00    +0.000 A 
ATOM      5  C   UNL     1       0.922   9.094  20.488  0.00  0.00    +0.000 A 
ATOM      6  C   UNL     1       1.590   7.856  20.407  0.00  0.00    +0.000 A 
ATOM      7  C   UNL     1       0.261   9.505  21.763  0.00  0.00    +0.000 C 
ATOM      8  O   UNL     1       0.276   8.762  22.740  0.00  0.00    +0.000 OA
ATOM      9  C   UNL     1      -0.408  10.835  21.823  0.00  0.00    +0.000 A 
ATOM     10  C   UNL     1      -1.031  11.259  23.000  0.00  0.00    +0.000 A 
ATOM     11  C   UNL     1      -1.658  12.508  23.043  0.00  0.00    +0.000 A 
ATOM     12  C   UNL     1      -1.665  13.332  21.916  0.00  0.00    +0.000 A 
ATOM     13  C   UNL     1      -1.043  12.920  20.727  0.00  0.00    +0.000 A 
ATOM     14  C   UNL     1      -1.030  13.724  19.584  0.00  0.00    +0.000 A 
ATOM     15  C   UNL     1      -0.395  13.253  18.451  0.00  0.00    +0.000 A 
ATOM     16  N   UNL     1       0.217  12.054  18.384  0.00  0.00    +0.000 NA
ATOM     17  C   UNL     1       0.204  11.273  19.495  0.00  0.00    +0.000 A 
ATOM     18  C   UNL     1      -0.410  11.659  20.686  0.00  0.00    +0.000 A 
ENDROOT
BRANCH   1  21
ATOM     19  C   UNL     1       4.069   6.052  18.341  0.00  0.00    +0.000 C 
ATOM     20  O   UNL     1       4.562   6.841  17.540  0.00  0.00    +0.000 OA
ATOM     21  N   UNL     1       2.994   6.294  19.187  0.00  0.00    +0.000 N 
ATOM     22  H   UNL     1       2.843   5.622  19.933  0.00  0.00    +0.000 HD
BRANCH  19  23
ATOM     23  C   UNL     1       4.714   4.702  18.540  0.00  0.00    +0.000 C 
BRANCH  23  24
ATOM     24  C   UNL     1       3.750   3.584  18.144  0.00  0.00    +0.000 C 
BRANCH  24  25
ATOM     25  C   UNL     1       3.285   2.712  19.320  0.00  0.00    +0.000 C 
BRANCH  25  27
ATOM     26  C   UNL     1       0.926   3.154  19.663  0.00  0.00    +0.000 C 
ATOM     27  N   UNL     1       2.285   3.381  20.173  0.00  0.00    +0.000 NA
ATOM     28  C   UNL     1       2.373   2.870  21.546  0.00  0.00    +0.000 C 
ENDBRANCH  25  27
ENDBRANCH  24  25
ENDBRANCH  23  24
ENDBRANCH  19  23
ENDBRANCH   1  21
TORSDOF 5
ENDMDL
MODEL 9
REMARK VINA RESULT:      -7.3      2.144      3.526
REMARK  Name = 
REMARK  7 active torsions:
REMARK  status: ('A' for Active; 'I' for Inactive)
REMARK    1  A    between atoms: C_1  and  N_2
REMARK    2  A    between atoms: N_2  and  C_3
REMARK    3  A    between atoms: N_2  and  C_4
REMARK    4  A    between atoms: C_4  and  C_5
REMARK    5  A    between atoms: C_5  and  C_6
REMARK    6  A    between atoms: C_6  and  C_7
REMARK    7  A    between atoms: N_9  and  C_10
REMARK                            x       y       z     vdW  Elec       q    Type
REMARK                         _______ _______ _______ _____ _____    ______ ____
ROOT
ATOM      1  C   UNL     1       1.876   7.322  20.392  0.00  0.00    +0.000 A 
ATOM      2  C   UNL     1       1.987   7.972  19.164  0.00  0.00    +0.000 A 
ATOM      3  C   UNL     1       1.436   9.235  18.963  0.00  0.00    +0.000 A 
ATOM      4  C   UNL     1       0.742   9.892  19.985  0.00  0.00    +0.000 A 
ATOM      5  C   UNL     1       0.597   9.222  21.211  0.00  0.00    +0.000 A 
ATOM      6  C   UNL     1       1.144   7.940  21.414  0.00  0.00    +0.000 A 
ATOM      7  C   UNL     1      -0.129   9.909  22.320  0.00  0.00    +0.000 C 
ATOM      8  O   UNL     1      -0.274   9.357  23.408  0.00  0.00    +0.000 OA
ATOM      9  C   UNL     1      -0.667  11.278  22.080  0.00  0.00    +0.000 A 
ATOM     10  C   UNL     1      -1.345  11.958  23.095  0.00  0.00    +0.000 A 
ATOM     11  C   UNL     1      -1.847  13.241  22.858  0.00  0.00    +0.000 A 
ATOM     12  C   UNL     1      -1.674  13.845  21.611  0.00  0.00    +0.000 A 
ATOM     13  C   UNL     1      -0.994  13.176  20.582  0.00  0.00    +0.000 A 
ATOM     14  C   UNL     1      -0.801  13.756  19.325  0.00  0.00    +0.000 A 
ATOM     15  C   UNL     1      -0.118  13.036  18.362  0.00  0.00    +0.000 A 
ATOM     16  N   UNL     1       0.375  11.800  18.567  0.00  0.00    +0.000 NA
ATOM     17  C   UNL     1       0.187  11.237  19.789  0.00  0.00    +0.000 A 
ATOM     18  C   UNL     1      -0.487  11.880  20.824  0.00  0.00    +0.000 A 
ENDROOT
BRANCH   1  21
ATOM     19  C   UNL     1       1.825   4.853  20.637  0.00  0.00    +0.000 C 
ATOM     20  O   UNL     1       0.635   4.666  20.399  0.00  0.00    +0.000 OA
ATOM     21  N   UNL     1       2.489   6.073  20.635  0.00  0.00    +0.000 N 
ATOM     22  H   UNL     1       3.504   6.038  20.641  0.00  0.00    +0.000 HD
BRANCH  19  23
ATOM     23  C   UNL     1       2.726   3.664  20.868  0.00  0.00    +0.000 C 
BRANCH  23  24
ATOM     24  C   UNL     1       2.505   2.606  19.788  0.00  0.00    +0.000 C 
BRANCH  24  25
ATOM     25  C   UNL     1       3.776   2.222  19.017  0.00  0.00    +0.000 C 
BRANCH  25  27
ATOM     26  C   UNL     1       2.564   3.327  17.231  0.00  0.00    +0.000 C 
ATOM     27  N   UNL     1       3.886   2.904  17.714  0.00  0.00    +0.000 NA
ATOM     28  C   UNL     1       4.752   4.083  17.834  0.00  0.00    +0.000 C 
ENDBRANCH  25  27
ENDBRANCH  24  25
ENDBRANCH  23  24
ENDBRANCH  19  23
ENDBRANCH   1  21
TORSDOF 5
ENDMDL
