MODEL 1
REMARK VINA RESULT:      -7.9      0.000      0.000
REMARK  Name = 
REMARK  9 active torsions:
REMARK  status: ('A' for Active; 'I' for Inactive)
REMARK    1  A    between atoms: C_1  and  O_2
REMARK    2  A    between atoms: O_2  and  C_3
REMARK    3  A    between atoms: C_3  and  C_4
REMARK    4  A    between atoms: C_4  and  N_5
REMARK    5  A    between atoms: C_6  and  S_7
REMARK    6  A    between atoms: S_7  and  C_8
REMARK    7  A    between atoms: C_8  and  C_9
REMARK    8  A    between atoms: N_11  and  C_12
REMARK    9  A    between atoms: C_17  and  C_18
REMARK                            x       y       z     vdW  Elec       q    Type
REMARK                         _______ _______ _______ _____ _____    ______ ____
ROOT
ATOM      1  S   UNL     1       2.924   8.507  17.697  0.00  0.00    +0.000 S 
ENDROOT
BRANCH   1   3
ATOM      2  N   UNL     1       4.282   6.194  18.102  0.00  0.00    +0.000 N 
ATOM      3  C   UNL     1       3.128   6.911  18.404  0.00  0.00    +0.000 A 
ATOM      4  N   UNL     1       2.187   6.468  19.175  0.00  0.00    +0.000 NA
ATOM      5  C   UNL     1       2.310   5.187  19.728  0.00  0.00    +0.000 A 
ATOM      6  C   UNL     1       1.266   4.663  20.494  0.00  0.00    +0.000 A 
ATOM      7  C   UNL     1       1.360   3.384  21.058  0.00  0.00    +0.000 A 
ATOM      8  C   UNL     1       2.505   2.614  20.861  0.00  0.00    +0.000 A 
ATOM      9  C   UNL     1       3.552   3.125  20.100  0.00  0.00    +0.000 A 
ATOM     10  C   UNL     1       3.441   4.406  19.542  0.00  0.00    +0.000 A 
ATOM     11  C   UNL     1       4.520   4.965  18.721  0.00  0.00    +0.000 A 
ATOM     12  O   UNL     1       5.566   4.330  18.615  0.00  0.00    +0.000 OA
BRANCH   2  13
ATOM     13  C   UNL     1       5.365   6.653  17.216  0.00  0.00    +0.000 C 
BRANCH  13  14
ATOM     14  C   UNL     1       5.243   6.107  15.784  0.00  0.00    +0.000 C 
BRANCH  14  16
ATOM     15  C   UNL     1       6.513   4.347  14.865  0.00  0.00    +0.000 C 
ATOM     16  O   UNL     1       6.534   5.693  15.327  0.00  0.00    +0.000 OA
ENDBRANCH  14  16
ENDBRANCH  13  14
ENDBRANCH   2  13
ENDBRANCH   1   3
BRANCH   1  17
ATOM     17  C   UNL     1       1.144   8.780  17.959  0.00  0.00    +0.000 C 
BRANCH  17  18
ATOM     18  C   UNL     1       0.884   9.987  18.858  0.00  0.00    +0.000 C 
ATOM     19  O   UNL     1       1.634  10.959  18.810  0.00  0.00    +0.000 OA
ATOM     20  N   UNL     1      -0.253   9.881  19.654  0.00  0.00    +0.000 N 
ATOM     21  H   UNL     1      -0.651   8.946  19.708  0.00  0.00    +0.000 HD
BRANCH  20  22
ATOM     22  C   UNL     1      -0.729  10.845  20.584  0.00  0.00    +0.000 A 
ATOM     23  C   UNL     1      -1.323  12.041  20.157  0.00  0.00    +0.000 A 
ATOM     24  C   UNL     1      -1.708  13.034  21.064  0.00  0.00    +0.000 A 
ATOM     25  C   UNL     1      -1.519  12.843  22.425  0.00  0.00    +0.000 A 
ATOM     26  C   UNL     1      -0.987  11.639  22.876  0.00  0.00    +0.000 A 
ATOM     27  C   UNL     1      -0.601  10.622  21.972  0.00  0.00    +0.000 A 
BRANCH  27  28
ATOM     28  C   UNL     1      -0.044   9.358  22.572  0.00  0.00    +0.000 C 
ATOM     29  F   UNL     1      -0.014   9.352  23.937  0.00  0.00    +0.000 F 
ATOM     30  F   UNL     1      -0.753   8.252  22.214  0.00  0.00    +0.000 F 
ATOM     31  F   UNL     1       1.240   9.119  22.180  0.00  0.00    +0.000 F 
ENDBRANCH  27  28
ENDBRANCH  20  22
ENDBRANCH  17  18
ENDBRANCH   1  17
TORSDOF 8
ENDMDL
MODEL 2
REMARK VINA RESULT:      -7.8      0.980      1.314
REMARK  Name = 
REMARK  9 active torsions:
REMARK  status: ('A' for Active; 'I' for Inactive)
REMARK    1  A    between atoms: C_1  and  O_2
REMARK    2  A    between atoms: O_2  and  C_3
REMARK    3  A    between atoms: C_3  and  C_4
REMARK    4  A    between atoms: C_4  and  N_5
REMARK    5  A    between atoms: C_6  and  S_7
REMARK    6  A    between atoms: S_7  and  C_8
REMARK    7  A    between atoms: C_8  and  C_9
REMARK    8  A    between atoms: N_11  and  C_12
REMARK    9  A    between atoms: C_17  and  C_18
REMARK                            x       y       z     vdW  Elec       q    Type
REMARK                         _______ _______ _______ _____ _____    ______ ____
ROOT
ATOM      1  S   UNL     1       3.321   8.090  17.593  0.00  0.00    +0.000 S 
ENDROOT
BRANCH   1   3
ATOM      2  N   UNL     1       4.473   5.690  18.112  0.00  0.00    +0.000 N 
ATOM      3  C   UNL     1       3.399   6.528  18.394  0.00  0.00    +0.000 A 
ATOM      4  N   UNL     1       2.444   6.222  19.212  0.00  0.00    +0.000 NA
ATOM      5  C   UNL     1       2.465   4.971  19.843  0.00  0.00    +0.000 A 
ATOM      6  C   UNL     1       1.399   4.593  20.664  0.00  0.00    +0.000 A 
ATOM      7  C   UNL     1       1.392   3.347  21.304  0.00  0.00    +0.000 A 
ATOM      8  C   UNL     1       2.457   2.465  21.131  0.00  0.00    +0.000 A 
ATOM      9  C   UNL     1       3.524   2.829  20.316  0.00  0.00    +0.000 A 
ATOM     10  C   UNL     1       3.515   4.079  19.680  0.00  0.00    +0.000 A 
ATOM     11  C   UNL     1       4.616   4.484  18.802  0.00  0.00    +0.000 A 
ATOM     12  O   UNL     1       5.597   3.750  18.712  0.00  0.00    +0.000 OA
BRANCH   2  13
ATOM     13  C   UNL     1       5.569   5.992  17.175  0.00  0.00    +0.000 C 
BRANCH  13  14
ATOM     14  C   UNL     1       6.767   6.679  17.851  0.00  0.00    +0.000 C 
BRANCH  14  16
ATOM     15  C   UNL     1       7.999   8.688  17.829  0.00  0.00    +0.000 C 
ATOM     16  O   UNL     1       7.147   7.824  17.084  0.00  0.00    +0.000 OA
ENDBRANCH  14  16
ENDBRANCH  13  14
ENDBRANCH   2  13
ENDBRANCH   1   3
BRANCH   1  17
ATOM     17  C   UNL     1       1.543   8.456  17.712  0.00  0.00    +0.000 C 
BRANCH  17  18
ATOM     18  C   UNL     1       1.281   9.735  18.504  0.00  0.00    +0.000 C 
ATOM     19  O   UNL     1       1.982  10.726  18.316  0.00  0.00    +0.000 OA
ATOM     20  N   UNL     1       0.197   9.665  19.375  0.00  0.00    +0.000 N 
ATOM     21  H   UNL     1      -0.155   8.725  19.543  0.00  0.00    +0.000 HD
BRANCH  20  22
ATOM     22  C   UNL     1      -0.267  10.697  20.234  0.00  0.00    +0.000 A 
ATOM     23  C   UNL     1      -0.692  11.934  19.727  0.00  0.00    +0.000 A 
ATOM     24  C   UNL     1      -1.061  12.986  20.573  0.00  0.00    +0.000 A 
ATOM     25  C   UNL     1      -1.027  12.816  21.949  0.00  0.00    +0.000 A 
ATOM     26  C   UNL     1      -0.667  11.579  22.474  0.00  0.00    +0.000 A 
ATOM     27  C   UNL     1      -0.300  10.503  21.632  0.00  0.00    +0.000 A 
BRANCH  27  28
ATOM     28  C   UNL     1       0.064   9.207  22.309  0.00  0.00    +0.000 C 
ATOM     29  F   UNL     1      -0.010   9.247  23.671  0.00  0.00    +0.000 F 
ATOM     30  F   UNL     1      -0.736   8.174  21.926  0.00  0.00    +0.000 F 
ATOM     31  F   UNL     1       1.339   8.814  22.025  0.00  0.00    +0.000 F 
ENDBRANCH  27  28
ENDBRANCH  20  22
ENDBRANCH  17  18
ENDBRANCH   1  17
TORSDOF 8
ENDMDL
MODEL 3
REMARK VINA RESULT:      -7.8      1.437      3.825
REMARK  Name = 
REMARK  9 active torsions:
REMARK  status: ('A' for Active; 'I' for Inactive)
REMARK    1  A    between atoms: C_1  and  O_2
REMARK    2  A    between atoms: O_2  and  C_3
REMARK    3  A    between atoms: C_3  and  C_4
REMARK    4  A    between atoms: C_4  and  N_5
REMARK    5  A    between atoms: C_6  and  S_7
REMARK    6  A    between atoms: S_7  and  C_8
REMARK    7  A    between atoms: C_8  and  C_9
REMARK    8  A    between atoms: N_11  and  C_12
REMARK    9  A    between atoms: C_17  and  C_18
REMARK                            x       y       z     vdW  Elec       q    Type
REMARK                         _______ _______ _______ _____ _____    ______ ____
ROOT
ATOM      1  S   UNL     1       2.297   7.472  19.349  0.00  0.00    +0.000 S 
ENDROOT
BRANCH   1   3
ATOM      2  N   UNL     1       3.291   4.984  18.927  0.00  0.00    +0.000 N 
ATOM      3  C   UNL     1       3.232   6.289  18.447  0.00  0.00    +0.000 A 
ATOM      4  N   UNL     1       3.834   6.688  17.373  0.00  0.00    +0.000 NA
ATOM      5  C   UNL     1       4.611   5.774  16.650  0.00  0.00    +0.000 A 
ATOM      6  C   UNL     1       5.333   6.208  15.536  0.00  0.00    +0.000 A 
ATOM      7  C   UNL     1       6.120   5.316  14.797  0.00  0.00    +0.000 A 
ATOM      8  C   UNL     1       6.191   3.974  15.165  0.00  0.00    +0.000 A 
ATOM      9  C   UNL     1       5.477   3.528  16.273  0.00  0.00    +0.000 A 
ATOM     10  C   UNL     1       4.695   4.434  17.003  0.00  0.00    +0.000 A 
ATOM     11  C   UNL     1       3.945   3.999  18.185  0.00  0.00    +0.000 A 
ATOM     12  O   UNL     1       3.933   2.802  18.465  0.00  0.00    +0.000 OA
BRANCH   2  13
ATOM     13  C   UNL     1       2.637   4.495  20.153  0.00  0.00    +0.000 C 
BRANCH  13  14
ATOM     14  C   UNL     1       1.196   4.015  19.915  0.00  0.00    +0.000 C 
BRANCH  14  16
ATOM     15  C   UNL     1       2.007   2.664  21.667  0.00  0.00    +0.000 C 
ATOM     16  O   UNL     1       0.881   2.988  20.860  0.00  0.00    +0.000 OA
ENDBRANCH  14  16
ENDBRANCH  13  14
ENDBRANCH   2  13
ENDBRANCH   1   3
BRANCH   1  17
ATOM     17  C   UNL     1       2.009   8.737  18.073  0.00  0.00    +0.000 C 
BRANCH  17  18
ATOM     18  C   UNL     1       1.376   9.997  18.658  0.00  0.00    +0.000 C 
ATOM     19  O   UNL     1       1.869  11.097  18.422  0.00  0.00    +0.000 OA
ATOM     20  N   UNL     1       0.224   9.772  19.407  0.00  0.00    +0.000 N 
ATOM     21  H   UNL     1       0.060   8.799  19.657  0.00  0.00    +0.000 HD
BRANCH  20  22
ATOM     22  C   UNL     1      -0.562  10.754  20.069  0.00  0.00    +0.000 A 
ATOM     23  C   UNL     1      -1.212  11.772  19.356  0.00  0.00    +0.000 A 
ATOM     24  C   UNL     1      -1.909  12.795  20.009  0.00  0.00    +0.000 A 
ATOM     25  C   UNL     1      -1.982  12.811  21.394  0.00  0.00    +0.000 A 
ATOM     26  C   UNL     1      -1.396  11.780  22.120  0.00  0.00    +0.000 A 
ATOM     27  C   UNL     1      -0.696  10.734  21.474  0.00  0.00    +0.000 A 
BRANCH  27  28
ATOM     28  C   UNL     1      -0.108   9.666  22.359  0.00  0.00    +0.000 C 
ATOM     29  F   UNL     1      -0.557   8.405  22.089  0.00  0.00    +0.000 F 
ATOM     30  F   UNL     1       1.249   9.601  22.270  0.00  0.00    +0.000 F 
ATOM     31  F   UNL     1      -0.384   9.875  23.678  0.00  0.00    +0.000 F 
ENDBRANCH  27  28
ENDBRANCH  20  22
ENDBRANCH  17  18
ENDBRANCH   1  17
TORSDOF 8
ENDMDL
MODEL 4
REMARK VINA RESULT:      -7.6      3.404      8.888
REMARK  Name = 
REMARK  9 active torsions:
REMARK  status: ('A' for Active; 'I' for Inactive)
REMARK    1  A    between atoms: C_1  and  O_2
REMARK    2  A    between atoms: O_2  and  C_3
REMARK    3  A    between atoms: C_3  and  C_4
REMARK    4  A    between atoms: C_4  and  N_5
REMARK    5  A    between atoms: C_6  and  S_7
REMARK    6  A    between atoms: S_7  and  C_8
REMARK    7  A    between atoms: C_8  and  C_9
REMARK    8  A    between atoms: N_11  and  C_12
REMARK    9  A    between atoms: C_17  and  C_18
REMARK                            x       y       z     vdW  Elec       q    Type
REMARK                         _______ _______ _______ _____ _____    ______ ____
ROOT
ATOM      1  S   UNL     1       1.446  10.391  19.420  0.00  0.00    +0.000 S 
ENDROOT
BRANCH   1   3
ATOM      2  N   UNL     1      -0.989  11.528  19.792  0.00  0.00    +0.000 N 
ATOM      3  C   UNL     1      -0.199  10.773  18.931  0.00  0.00    +0.000 A 
ATOM      4  N   UNL     1      -0.606  10.326  17.786  0.00  0.00    +0.000 NA
ATOM      5  C   UNL     1      -1.921  10.590  17.384  0.00  0.00    +0.000 A 
ATOM      6  C   UNL     1      -2.402  10.045  16.190  0.00  0.00    +0.000 A 
ATOM      7  C   UNL     1      -3.713  10.290  15.765  0.00  0.00    +0.000 A 
ATOM      8  C   UNL     1      -4.561  11.088  16.532  0.00  0.00    +0.000 A 
ATOM      9  C   UNL     1      -4.095  11.636  17.722  0.00  0.00    +0.000 A 
ATOM     10  C   UNL     1      -2.780  11.380  18.135  0.00  0.00    +0.000 A 
ATOM     11  C   UNL     1      -2.266  11.929  19.393  0.00  0.00    +0.000 A 
ATOM     12  O   UNL     1      -2.976  12.703  20.030  0.00  0.00    +0.000 OA
BRANCH   2  13
ATOM     13  C   UNL     1      -0.570  12.038  21.108  0.00  0.00    +0.000 C 
BRANCH  13  14
ATOM     14  C   UNL     1      -0.840  11.046  22.251  0.00  0.00    +0.000 C 
BRANCH  14  16
ATOM     15  C   UNL     1      -1.535  13.093  23.189  0.00  0.00    +0.000 C 
ATOM     16  O   UNL     1      -1.074  11.773  23.460  0.00  0.00    +0.000 OA
ENDBRANCH  14  16
ENDBRANCH  13  14
ENDBRANCH   2  13
ENDBRANCH   1   3
BRANCH   1  17
ATOM     17  C   UNL     1       1.411   8.573  19.375  0.00  0.00    +0.000 C 
BRANCH  17  18
ATOM     18  C   UNL     1       2.339   8.016  18.298  0.00  0.00    +0.000 C 
ATOM     19  O   UNL     1       2.540   8.659  17.271  0.00  0.00    +0.000 OA
ATOM     20  N   UNL     1       2.928   6.795  18.615  0.00  0.00    +0.000 N 
ATOM     21  H   UNL     1       2.514   6.317  19.413  0.00  0.00    +0.000 HD
BRANCH  20  22
ATOM     22  C   UNL     1       3.823   6.049  17.802  0.00  0.00    +0.000 A 
ATOM     23  C   UNL     1       5.045   6.588  17.375  0.00  0.00    +0.000 A 
ATOM     24  C   UNL     1       5.887   5.895  16.498  0.00  0.00    +0.000 A 
ATOM     25  C   UNL     1       5.529   4.636  16.041  0.00  0.00    +0.000 A 
ATOM     26  C   UNL     1       4.350   4.055  16.498  0.00  0.00    +0.000 A 
ATOM     27  C   UNL     1       3.493   4.740  17.391  0.00  0.00    +0.000 A 
BRANCH  27  28
ATOM     28  C   UNL     1       2.248   4.011  17.826  0.00  0.00    +0.000 C 
ATOM     29  F   UNL     1       1.085   4.585  17.398  0.00  0.00    +0.000 F 
ATOM     30  F   UNL     1       2.210   2.726  17.379  0.00  0.00    +0.000 F 
ATOM     31  F   UNL     1       2.138   3.936  19.183  0.00  0.00    +0.000 F 
ENDBRANCH  27  28
ENDBRANCH  20  22
ENDBRANCH  17  18
ENDBRANCH   1  17
TORSDOF 8
ENDMDL
MODEL 5
REMARK VINA RESULT:      -7.5      1.549      3.676
REMARK  Name = 
REMARK  9 active torsions:
REMARK  status: ('A' for Active; 'I' for Inactive)
REMARK    1  A    between atoms: C_1  and  O_2
REMARK    2  A    between atoms: O_2  and  C_3
REMARK    3  A    between atoms: C_3  and  C_4
REMARK    4  A    between atoms: C_4  and  N_5
REMARK    5  A    between atoms: C_6  and  S_7
REMARK    6  A    between atoms: S_7  and  C_8
REMARK    7  A    between atoms: C_8  and  C_9
REMARK    8  A    between atoms: N_11  and  C_12
REMARK    9  A    between atoms: C_17  and  C_18
REMARK                            x       y       z     vdW  Elec       q    Type
REMARK                         _______ _______ _______ _____ _____    ______ ____
ROOT
ATOM      1  S   UNL     1       2.264   7.427  19.361  0.00  0.00    +0.000 S 
ENDROOT
BRANCH   1   3
ATOM      2  N   UNL     1       2.673   4.945  18.344  0.00  0.00    +0.000 N 
ATOM      3  C   UNL     1       3.111   6.266  18.349  0.00  0.00    +0.000 A 
ATOM      4  N   UNL     1       4.116   6.693  17.653  0.00  0.00    +0.000 NA
ATOM      5  C   UNL     1       4.827   5.784  16.861  0.00  0.00    +0.000 A 
ATOM      6  C   UNL     1       5.963   6.212  16.169  0.00  0.00    +0.000 A 
ATOM      7  C   UNL     1       6.696   5.324  15.371  0.00  0.00    +0.000 A 
ATOM      8  C   UNL     1       6.297   3.993  15.255  0.00  0.00    +0.000 A 
ATOM      9  C   UNL     1       5.167   3.555  15.939  0.00  0.00    +0.000 A 
ATOM     10  C   UNL     1       4.446   4.455  16.734  0.00  0.00    +0.000 A 
ATOM     11  C   UNL     1       3.262   4.020  17.481  0.00  0.00    +0.000 A 
ATOM     12  O   UNL     1       2.853   2.873  17.316  0.00  0.00    +0.000 OA
BRANCH   2  13
ATOM     13  C   UNL     1       1.548   4.416  19.134  0.00  0.00    +0.000 C 
BRANCH  13  14
ATOM     14  C   UNL     1       1.947   4.038  20.570  0.00  0.00    +0.000 C 
BRANCH  14  16
ATOM     15  C   UNL     1       3.624   2.391  20.748  0.00  0.00    +0.000 C 
ATOM     16  O   UNL     1       2.226   2.636  20.626  0.00  0.00    +0.000 OA
ENDBRANCH  14  16
ENDBRANCH  13  14
ENDBRANCH   2  13
ENDBRANCH   1   3
BRANCH   1  17
ATOM     17  C   UNL     1       1.871   8.725  18.149  0.00  0.00    +0.000 C 
BRANCH  17  18
ATOM     18  C   UNL     1       0.810   9.689  18.678  0.00  0.00    +0.000 C 
ATOM     19  O   UNL     1      -0.180   9.943  17.997  0.00  0.00    +0.000 OA
ATOM     20  N   UNL     1       1.060  10.180  19.956  0.00  0.00    +0.000 N 
ATOM     21  H   UNL     1       2.005  10.018  20.299  0.00  0.00    +0.000 HD
BRANCH  20  22
ATOM     22  C   UNL     1       0.250  11.092  20.687  0.00  0.00    +0.000 A 
ATOM     23  C   UNL     1      -0.102  12.342  20.158  0.00  0.00    +0.000 A 
ATOM     24  C   UNL     1      -0.818  13.281  20.908  0.00  0.00    +0.000 A 
ATOM     25  C   UNL     1      -1.212  12.981  22.203  0.00  0.00    +0.000 A 
ATOM     26  C   UNL     1      -0.926  11.725  22.728  0.00  0.00    +0.000 A 
ATOM     27  C   UNL     1      -0.211  10.761  21.979  0.00  0.00    +0.000 A 
BRANCH  27  28
ATOM     28  C   UNL     1       0.035   9.432  22.645  0.00  0.00    +0.000 C 
ATOM     29  F   UNL     1      -0.296   9.399  23.968  0.00  0.00    +0.000 F 
ATOM     30  F   UNL     1      -0.665   8.419  22.064  0.00  0.00    +0.000 F 
ATOM     31  F   UNL     1       1.345   9.058  22.589  0.00  0.00    +0.000 F 
ENDBRANCH  27  28
ENDBRANCH  20  22
ENDBRANCH  17  18
ENDBRANCH   1  17
TORSDOF 8
ENDMDL
MODEL 6
REMARK VINA RESULT:      -7.4      3.639      8.941
REMARK  Name = 
REMARK  9 active torsions:
REMARK  status: ('A' for Active; 'I' for Inactive)
REMARK    1  A    between atoms: C_1  and  O_2
REMARK    2  A    between atoms: O_2  and  C_3
REMARK    3  A    between atoms: C_3  and  C_4
REMARK    4  A    between atoms: C_4  and  N_5
REMARK    5  A    between atoms: C_6  and  S_7
REMARK    6  A    between atoms: S_7  and  C_8
REMARK    7  A    between atoms: C_8  and  C_9
REMARK    8  A    between atoms: N_11  and  C_12
REMARK    9  A    between atoms: C_17  and  C_18
REMARK                            x       y       z     vdW  Elec       q    Type
REMARK                         _______ _______ _______ _____ _____    ______ ____
ROOT
ATOM      1  S   UNL     1       1.245   9.678  19.830  0.00  0.00    +0.000 S 
ENDROOT
BRANCH   1   3
ATOM      2  N   UNL     1      -0.997  11.205  19.883  0.00  0.00    +0.000 N 
ATOM      3  C   UNL     1      -0.256  10.286  19.146  0.00  0.00    +0.000 A 
ATOM      4  N   UNL     1      -0.611   9.844  17.982  0.00  0.00    +0.000 NA
ATOM      5  C   UNL     1      -1.817  10.289  17.426  0.00  0.00    +0.000 A 
ATOM      6  C   UNL     1      -2.253   9.759  16.209  0.00  0.00    +0.000 A 
ATOM      7  C   UNL     1      -3.457  10.183  15.631  0.00  0.00    +0.000 A 
ATOM      8  C   UNL     1      -4.237  11.147  16.267  0.00  0.00    +0.000 A 
ATOM      9  C   UNL     1      -3.814  11.682  17.479  0.00  0.00    +0.000 A 
ATOM     10  C   UNL     1      -2.608  11.246  18.045  0.00  0.00    +0.000 A 
ATOM     11  C   UNL     1      -2.143  11.779  19.329  0.00  0.00    +0.000 A 
ATOM     12  O   UNL     1      -2.780  12.690  19.852  0.00  0.00    +0.000 OA
BRANCH   2  13
ATOM     13  C   UNL     1      -0.639  11.717  21.217  0.00  0.00    +0.000 C 
BRANCH  13  14
ATOM     14  C   UNL     1      -0.646  10.628  22.302  0.00  0.00    +0.000 C 
BRANCH  14  16
ATOM     15  C   UNL     1      -2.171  12.214  23.147  0.00  0.00    +0.000 C 
ATOM     16  O   UNL     1      -1.305  11.131  23.468  0.00  0.00    +0.000 OA
ENDBRANCH  14  16
ENDBRANCH  13  14
ENDBRANCH   2  13
ENDBRANCH   1   3
BRANCH   1  17
ATOM     17  C   UNL     1       1.930   8.765  18.414  0.00  0.00    +0.000 C 
BRANCH  17  18
ATOM     18  C   UNL     1       2.237   7.313  18.773  0.00  0.00    +0.000 C 
ATOM     19  O   UNL     1       2.409   6.996  19.947  0.00  0.00    +0.000 OA
ATOM     20  N   UNL     1       2.256   6.440  17.689  0.00  0.00    +0.000 N 
ATOM     21  H   UNL     1       2.279   6.892  16.777  0.00  0.00    +0.000 HD
BRANCH  20  22
ATOM     22  C   UNL     1       2.520   5.044  17.730  0.00  0.00    +0.000 A 
ATOM     23  C   UNL     1       1.516   4.120  18.053  0.00  0.00    +0.000 A 
ATOM     24  C   UNL     1       1.791   2.754  18.187  0.00  0.00    +0.000 A 
ATOM     25  C   UNL     1       3.079   2.282  17.983  0.00  0.00    +0.000 A 
ATOM     26  C   UNL     1       4.078   3.171  17.602  0.00  0.00    +0.000 A 
ATOM     27  C   UNL     1       3.814   4.553  17.455  0.00  0.00    +0.000 A 
BRANCH  27  28
ATOM     28  C   UNL     1       4.970   5.422  17.031  0.00  0.00    +0.000 C 
ATOM     29  F   UNL     1       6.124   4.737  16.783  0.00  0.00    +0.000 F 
ATOM     30  F   UNL     1       4.707   6.125  15.895  0.00  0.00    +0.000 F 
ATOM     31  F   UNL     1       5.294   6.350  17.976  0.00  0.00    +0.000 F 
ENDBRANCH  27  28
ENDBRANCH  20  22
ENDBRANCH  17  18
ENDBRANCH   1  17
TORSDOF 8
ENDMDL
MODEL 7
REMARK VINA RESULT:      -7.4      0.783      1.054
REMARK  Name = 
REMARK  9 active torsions:
REMARK  status: ('A' for Active; 'I' for Inactive)
REMARK    1  A    between atoms: C_1  and  O_2
REMARK    2  A    between atoms: O_2  and  C_3
REMARK    3  A    between atoms: C_3  and  C_4
REMARK    4  A    between atoms: C_4  and  N_5
REMARK    5  A    between atoms: C_6  and  S_7
REMARK    6  A    between atoms: S_7  and  C_8
REMARK    7  A    between atoms: C_8  and  C_9
REMARK    8  A    between atoms: N_11  and  C_12
REMARK    9  A    between atoms: C_17  and  C_18
REMARK                            x       y       z     vdW  Elec       q    Type
REMARK                         _______ _______ _______ _____ _____    ______ ____
ROOT
ATOM      1  S   UNL     1       2.866   8.645  17.961  0.00  0.00    +0.000 S 
ENDROOT
BRANCH   1   3
ATOM      2  N   UNL     1       4.209   6.300  18.195  0.00  0.00    +0.000 N 
ATOM      3  C   UNL     1       3.071   7.008  18.568  0.00  0.00    +0.000 A 
ATOM      4  N   UNL     1       2.144   6.529  19.334  0.00  0.00    +0.000 NA
ATOM      5  C   UNL     1       2.266   5.217  19.808  0.00  0.00    +0.000 A 
ATOM      6  C   UNL     1       1.235   4.657  20.567  0.00  0.00    +0.000 A 
ATOM      7  C   UNL     1       1.329   3.346  21.052  0.00  0.00    +0.000 A 
ATOM      8  C   UNL     1       2.461   2.580  20.782  0.00  0.00    +0.000 A 
ATOM      9  C   UNL     1       3.495   3.125  20.027  0.00  0.00    +0.000 A 
ATOM     10  C   UNL     1       3.385   4.438  19.548  0.00  0.00    +0.000 A 
ATOM     11  C   UNL     1       4.449   5.034  18.735  0.00  0.00    +0.000 A 
ATOM     12  O   UNL     1       5.486   4.397  18.566  0.00  0.00    +0.000 OA
BRANCH   2  13
ATOM     13  C   UNL     1       5.276   6.801  17.312  0.00  0.00    +0.000 C 
BRANCH  13  14
ATOM     14  C   UNL     1       5.167   6.265  15.875  0.00  0.00    +0.000 C 
BRANCH  14  16
ATOM     15  C   UNL     1       6.414   4.476  14.981  0.00  0.00    +0.000 C 
ATOM     16  O   UNL     1       6.455   5.824  15.439  0.00  0.00    +0.000 OA
ENDBRANCH  14  16
ENDBRANCH  13  14
ENDBRANCH   2  13
ENDBRANCH   1   3
BRANCH   1  17
ATOM     17  C   UNL     1       1.126   8.607  17.433  0.00  0.00    +0.000 C 
BRANCH  17  18
ATOM     18  C   UNL     1       0.275   9.600  18.221  0.00  0.00    +0.000 C 
ATOM     19  O   UNL     1      -0.813   9.961  17.778  0.00  0.00    +0.000 OA
ATOM     20  N   UNL     1       0.819   9.990  19.441  0.00  0.00    +0.000 N 
ATOM     21  H   UNL     1       1.800   9.746  19.568  0.00  0.00    +0.000 HD
BRANCH  20  22
ATOM     22  C   UNL     1       0.251  10.903  20.371  0.00  0.00    +0.000 A 
ATOM     23  C   UNL     1       0.032  12.247  20.034  0.00  0.00    +0.000 A 
ATOM     24  C   UNL     1      -0.439  13.171  20.974  0.00  0.00    +0.000 A 
ATOM     25  C   UNL     1      -0.717  12.763  22.270  0.00  0.00    +0.000 A 
ATOM     26  C   UNL     1      -0.565  11.423  22.611  0.00  0.00    +0.000 A 
ATOM     27  C   UNL     1      -0.098  10.475  21.670  0.00  0.00    +0.000 A 
BRANCH  27  28
ATOM     28  C   UNL     1       0.021   9.051  22.146  0.00  0.00    +0.000 C 
ATOM     29  F   UNL     1      -0.796   8.172  21.494  0.00  0.00    +0.000 F 
ATOM     30  F   UNL     1       1.282   8.555  22.005  0.00  0.00    +0.000 F 
ATOM     31  F   UNL     1      -0.284   8.919  23.468  0.00  0.00    +0.000 F 
ENDBRANCH  27  28
ENDBRANCH  20  22
ENDBRANCH  17  18
ENDBRANCH   1  17
TORSDOF 8
ENDMDL
MODEL 8
REMARK VINA RESULT:      -7.3      2.861      8.219
REMARK  Name = 
REMARK  9 active torsions:
REMARK  status: ('A' for Active; 'I' for Inactive)
REMARK    1  A    between atoms: C_1  and  O_2
REMARK    2  A    between atoms: O_2  and  C_3
REMARK    3  A    between atoms: C_3  and  C_4
REMARK    4  A    between atoms: C_4  and  N_5
REMARK    5  A    between atoms: C_6  and  S_7
REMARK    6  A    between atoms: S_7  and  C_8
REMARK    7  A    between atoms: C_8  and  C_9
REMARK    8  A    between atoms: N_11  and  C_12
REMARK    9  A    between atoms: C_17  and  C_18
REMARK                            x       y       z     vdW  Elec       q    Type
REMARK                         _______ _______ _______ _____ _____    ______ ____
ROOT
ATOM      1  S   UNL     1       1.267   9.289  19.390  0.00  0.00    +0.000 S 
ENDROOT
BRANCH   1   3
ATOM      2  N   UNL     1      -0.926  10.826  19.819  0.00  0.00    +0.000 N 
ATOM      3  C   UNL     1      -0.260  10.014  18.907  0.00  0.00    +0.000 A 
ATOM      4  N   UNL     1      -0.702   9.752  17.719  0.00  0.00    +0.000 NA
ATOM      5  C   UNL     1      -1.930  10.292  17.318  0.00  0.00    +0.000 A 
ATOM      6  C   UNL     1      -2.460   9.953  16.071  0.00  0.00    +0.000 A 
ATOM      7  C   UNL     1      -3.688  10.476  15.644  0.00  0.00    +0.000 A 
ATOM      8  C   UNL     1      -4.400  11.349  16.465  0.00  0.00    +0.000 A 
ATOM      9  C   UNL     1      -3.883  11.695  17.710  0.00  0.00    +0.000 A 
ATOM     10  C   UNL     1      -2.654  11.161  18.122  0.00  0.00    +0.000 A 
ATOM     11  C   UNL     1      -2.092  11.493  19.434  0.00  0.00    +0.000 A 
ATOM     12  O   UNL     1      -2.669  12.328  20.127  0.00  0.00    +0.000 OA
BRANCH   2  13
ATOM     13  C   UNL     1      -0.468  11.133  21.184  0.00  0.00    +0.000 C 
BRANCH  13  14
ATOM     14  C   UNL     1       0.223  12.502  21.293  0.00  0.00    +0.000 C 
BRANCH  14  16
ATOM     15  C   UNL     1       2.164  13.207  20.157  0.00  0.00    +0.000 C 
ATOM     16  O   UNL     1       1.635  12.329  21.145  0.00  0.00    +0.000 OA
ENDBRANCH  14  16
ENDBRANCH  13  14
ENDBRANCH   2  13
ENDBRANCH   1   3
BRANCH   1  17
ATOM     17  C   UNL     1       1.968   8.840  17.773  0.00  0.00    +0.000 C 
BRANCH  17  18
ATOM     18  C   UNL     1       2.868   7.610  17.869  0.00  0.00    +0.000 C 
ATOM     19  O   UNL     1       4.083   7.729  17.731  0.00  0.00    +0.000 OA
ATOM     20  N   UNL     1       2.200   6.424  18.156  0.00  0.00    +0.000 N 
ATOM     21  H   UNL     1       1.187   6.469  18.055  0.00  0.00    +0.000 HD
BRANCH  20  22
ATOM     22  C   UNL     1       2.782   5.135  18.295  0.00  0.00    +0.000 A 
ATOM     23  C   UNL     1       3.576   4.578  17.282  0.00  0.00    +0.000 A 
ATOM     24  C   UNL     1       4.073   3.274  17.372  0.00  0.00    +0.000 A 
ATOM     25  C   UNL     1       3.798   2.501  18.491  0.00  0.00    +0.000 A 
ATOM     26  C   UNL     1       3.064   3.052  19.535  0.00  0.00    +0.000 A 
ATOM     27  C   UNL     1       2.561   4.373  19.462  0.00  0.00    +0.000 A 
BRANCH  27  28
ATOM     28  C   UNL     1       1.785   4.869  20.655  0.00  0.00    +0.000 C 
ATOM     29  F   UNL     1       0.435   4.691  20.559  0.00  0.00    +0.000 F 
ATOM     30  F   UNL     1       2.156   4.254  21.813  0.00  0.00    +0.000 F 
ATOM     31  F   UNL     1       1.962   6.204  20.870  0.00  0.00    +0.000 F 
ENDBRANCH  27  28
ENDBRANCH  20  22
ENDBRANCH  17  18
ENDBRANCH   1  17
TORSDOF 8
ENDMDL
MODEL 9
REMARK VINA RESULT:      -7.3      2.580      4.614
REMARK  Name = 
REMARK  9 active torsions:
REMARK  status: ('A' for Active; 'I' for Inactive)
REMARK    1  A    between atoms: C_1  and  O_2
REMARK    2  A    between atoms: O_2  and  C_3
REMARK    3  A    between atoms: C_3  and  C_4
REMARK    4  A    between atoms: C_4  and  N_5
REMARK    5  A    between atoms: C_6  and  S_7
REMARK    6  A    between atoms: S_7  and  C_8
REMARK    7  A    between atoms: C_8  and  C_9
REMARK    8  A    between atoms: N_11  and  C_12
REMARK    9  A    between atoms: C_17  and  C_18
REMARK                            x       y       z     vdW  Elec       q    Type
REMARK                         _______ _______ _______ _____ _____    ______ ____
ROOT
ATOM      1  S   UNL     1       2.139   7.772  19.253  0.00  0.00    +0.000 S 
ENDROOT
BRANCH   1   3
ATOM      2  N   UNL     1       2.743   5.188  18.691  0.00  0.00    +0.000 N 
ATOM      3  C   UNL     1       2.994   6.517  18.367  0.00  0.00    +0.000 A 
ATOM      4  N   UNL     1       3.829   6.889  17.451  0.00  0.00    +0.000 NA
ATOM      5  C   UNL     1       4.546   5.911  16.749  0.00  0.00    +0.000 A 
ATOM      6  C   UNL     1       5.510   6.299  15.815  0.00  0.00    +0.000 A 
ATOM      7  C   UNL     1       6.244   5.343  15.101  0.00  0.00    +0.000 A 
ATOM      8  C   UNL     1       6.018   3.984  15.314  0.00  0.00    +0.000 A 
ATOM      9  C   UNL     1       5.060   3.585  16.240  0.00  0.00    +0.000 A 
ATOM     10  C   UNL     1       4.335   4.554  16.948  0.00  0.00    +0.000 A 
ATOM     11  C   UNL     1       3.332   4.166  17.944  0.00  0.00    +0.000 A 
ATOM     12  O   UNL     1       3.065   2.974  18.074  0.00  0.00    +0.000 OA
BRANCH   2  13
ATOM     13  C   UNL     1       1.816   4.724  19.738  0.00  0.00    +0.000 C 
BRANCH  13  14
ATOM     14  C   UNL     1       2.494   4.553  21.108  0.00  0.00    +0.000 C 
BRANCH  14  16
ATOM     15  C   UNL     1       1.498   2.418  21.052  0.00  0.00    +0.000 C 
ATOM     16  O   UNL     1       1.796   3.554  21.856  0.00  0.00    +0.000 OA
ENDBRANCH  14  16
ENDBRANCH  13  14
ENDBRANCH   2  13
ENDBRANCH   1   3
BRANCH   1  17
ATOM     17  C   UNL     1       1.749   8.941  17.916  0.00  0.00    +0.000 C 
BRANCH  17  18
ATOM     18  C   UNL     1       1.051  10.192  18.444  0.00  0.00    +0.000 C 
ATOM     19  O   UNL     1       1.651  11.264  18.468  0.00  0.00    +0.000 OA
ATOM     20  N   UNL     1      -0.272   9.998  18.831  0.00  0.00    +0.000 N 
ATOM     21  H   UNL     1      -0.551   9.023  18.921  0.00  0.00    +0.000 HD
BRANCH  20  22
ATOM     22  C   UNL     1      -1.152  10.979  19.362  0.00  0.00    +0.000 A 
ATOM     23  C   UNL     1      -0.839  11.684  20.533  0.00  0.00    +0.000 A 
ATOM     24  C   UNL     1      -1.743  12.582  21.113  0.00  0.00    +0.000 A 
ATOM     25  C   UNL     1      -2.977  12.805  20.521  0.00  0.00    +0.000 A 
ATOM     26  C   UNL     1      -3.286  12.162  19.327  0.00  0.00    +0.000 A 
ATOM     27  C   UNL     1      -2.380  11.258  18.724  0.00  0.00    +0.000 A 
BRANCH  27  28
ATOM     28  C   UNL     1      -2.816  10.625  17.428  0.00  0.00    +0.000 C 
ATOM     29  F   UNL     1      -1.873  10.659  16.442  0.00  0.00    +0.000 F 
ATOM     30  F   UNL     1      -3.151   9.313  17.573  0.00  0.00    +0.000 F 
ATOM     31  F   UNL     1      -3.917  11.232  16.899  0.00  0.00    +0.000 F 
ENDBRANCH  27  28
ENDBRANCH  20  22
ENDBRANCH  17  18
ENDBRANCH   1  17
TORSDOF 8
ENDMDL
