MODEL 1
REMARK VINA RESULT:      -8.2      0.000      0.000
REMARK  Name = 
REMARK  9 active torsions:
REMARK  status: ('A' for Active; 'I' for Inactive)
REMARK    1  A    between atoms: C_1  and  C_2
REMARK    2  A    between atoms: C_2  and  C_4
REMARK    3  A    between atoms: C_7  and  N_8
REMARK    4  A    between atoms: C_9  and  O_11
REMARK    5  A    between atoms: O_11  and  C_12
REMARK    6  A    between atoms: C_12  and  C_13
REMARK    7  A    between atoms: C_13  and  N_14
REMARK    8  A    between atoms: N_17  and  C_18
REMARK    9  A    between atoms: C_18  and  C_19
REMARK                            x       y       z     vdW  Elec       q    Type
REMARK                         _______ _______ _______ _____ _____    ______ ____
ROOT
ATOM      1  C   UNL     1       3.616   7.950  17.223  0.00  0.00    +0.000 C 
ENDROOT
BRANCH   1   2
ATOM      2  N   UNL     1       4.074   6.567  17.321  0.00  0.00    +0.000 N 
ATOM      3  C   UNL     1       3.541   5.768  18.426  0.00  0.00    +0.000 C 
ATOM      4  C   UNL     1       4.636   5.323  19.405  0.00  0.00    +0.000 C 
ATOM      5  N   UNL     1       5.413   4.143  18.990  0.00  0.00    +0.000 NA
ATOM      6  C   UNL     1       6.221   4.438  17.793  0.00  0.00    +0.000 C 
ATOM      7  C   UNL     1       5.462   4.676  16.488  0.00  0.00    +0.000 C 
ATOM      8  C   UNL     1       4.921   6.082  16.346  0.00  0.00    +0.000 C 
ATOM      9  O   UNL     1       5.223   6.753  15.356  0.00  0.00    +0.000 OA
BRANCH   5  10
ATOM     10  C   UNL     1       4.610   2.919  18.819  0.00  0.00    +0.000 C 
BRANCH  10  11
ATOM     11  C   UNL     1       3.318   2.880  19.604  0.00  0.00    +0.000 A 
ATOM     12  C   UNL     1       2.084   2.901  18.933  0.00  0.00    +0.000 A 
ATOM     13  C   UNL     1       0.886   2.826  19.643  0.00  0.00    +0.000 A 
ATOM     14  C   UNL     1       0.910   2.715  21.031  0.00  0.00    +0.000 A 
ATOM     15  C   UNL     1       2.128   2.698  21.709  0.00  0.00    +0.000 A 
ATOM     16  C   UNL     1       3.328   2.790  21.002  0.00  0.00    +0.000 A 
ENDBRANCH  10  11
ENDBRANCH   5  10
ENDBRANCH   1   2
BRANCH   1  17
ATOM     17  C   UNL     1       2.538   8.311  18.253  0.00  0.00    +0.000 C 
BRANCH  17  18
ATOM     18  O   UNL     1       1.968   9.601  17.950  0.00  0.00    +0.000 OA
BRANCH  18  20
ATOM     19  N   UNL     1      -0.135  10.332  17.634  0.00  0.00    +0.000 N 
ATOM     20  C   UNL     1       0.748   9.779  18.529  0.00  0.00    +0.000 C 
ATOM     21  O   UNL     1       0.527   9.486  19.695  0.00  0.00    +0.000 OA
ATOM     22  H   UNL     1       0.231  10.498  16.705  0.00  0.00    +0.000 HD
BRANCH  19  26
ATOM     23  C   UNL     1      -4.174  11.319  18.447  0.00  0.00    +0.000 A 
ATOM     24  C   UNL     1      -3.148  12.092  18.977  0.00  0.00    +0.000 A 
ATOM     25  C   UNL     1      -1.820  11.773  18.705  0.00  0.00    +0.000 A 
ATOM     26  C   UNL     1      -1.479  10.674  17.909  0.00  0.00    +0.000 A 
ATOM     27  C   UNL     1      -2.508   9.895  17.377  0.00  0.00    +0.000 A 
ATOM     28  C   UNL     1      -3.851  10.213  17.647  0.00  0.00    +0.000 A 
BRANCH  23  30
ATOM     29  C   UNL     1      -6.633  10.563  18.651  0.00  0.00    +0.000 C 
ATOM     30  C   UNL     1      -5.598  11.658  18.715  0.00  0.00    +0.000 C 
ATOM     31  O   UNL     1      -5.908  12.822  18.998  0.00  0.00    +0.000 OA
ENDBRANCH  23  30
ENDBRANCH  19  26
ENDBRANCH  18  20
ENDBRANCH  17  18
ENDBRANCH   1  17
TORSDOF 8
ENDMDL
MODEL 2
REMARK VINA RESULT:      -8.0      2.299      2.752
REMARK  Name = 
REMARK  9 active torsions:
REMARK  status: ('A' for Active; 'I' for Inactive)
REMARK    1  A    between atoms: C_1  and  C_2
REMARK    2  A    between atoms: C_2  and  C_4
REMARK    3  A    between atoms: C_7  and  N_8
REMARK    4  A    between atoms: C_9  and  O_11
REMARK    5  A    between atoms: O_11  and  C_12
REMARK    6  A    between atoms: C_12  and  C_13
REMARK    7  A    between atoms: C_13  and  N_14
REMARK    8  A    between atoms: N_17  and  C_18
REMARK    9  A    between atoms: C_18  and  C_19
REMARK                            x       y       z     vdW  Elec       q    Type
REMARK                         _______ _______ _______ _____ _____    ______ ____
ROOT
ATOM      1  C   UNL     1       3.741   8.098  17.424  0.00  0.00    +0.000 C 
ENDROOT
BRANCH   1   2
ATOM      2  N   UNL     1       4.110   6.686  17.413  0.00  0.00    +0.000 N 
ATOM      3  C   UNL     1       3.593   5.857  18.503  0.00  0.00    +0.000 C 
ATOM      4  C   UNL     1       4.713   5.285  19.383  0.00  0.00    +0.000 C 
ATOM      5  N   UNL     1       5.383   4.085  18.853  0.00  0.00    +0.000 NA
ATOM      6  C   UNL     1       6.135   4.400  17.626  0.00  0.00    +0.000 C 
ATOM      7  C   UNL     1       5.316   4.765  16.388  0.00  0.00    +0.000 C 
ATOM      8  C   UNL     1       4.863   6.208  16.360  0.00  0.00    +0.000 C 
ATOM      9  O   UNL     1       5.149   6.918  15.392  0.00  0.00    +0.000 OA
BRANCH   5  10
ATOM     10  C   UNL     1       4.490   2.927  18.665  0.00  0.00    +0.000 C 
BRANCH  10  11
ATOM     11  C   UNL     1       3.268   2.903  19.555  0.00  0.00    +0.000 A 
ATOM     12  C   UNL     1       1.987   3.048  18.997  0.00  0.00    +0.000 A 
ATOM     13  C   UNL     1       0.849   2.988  19.803  0.00  0.00    +0.000 A 
ATOM     14  C   UNL     1       0.981   2.768  21.172  0.00  0.00    +0.000 A 
ATOM     15  C   UNL     1       2.247   2.628  21.738  0.00  0.00    +0.000 A 
ATOM     16  C   UNL     1       3.387   2.704  20.936  0.00  0.00    +0.000 A 
ENDBRANCH  10  11
ENDBRANCH   5  10
ENDBRANCH   1   2
BRANCH   1  17
ATOM     17  C   UNL     1       2.398   8.374  18.111  0.00  0.00    +0.000 C 
BRANCH  17  18
ATOM     18  O   UNL     1       1.665   9.387  17.391  0.00  0.00    +0.000 OA
BRANCH  18  20
ATOM     19  N   UNL     1       0.980  10.360  19.299  0.00  0.00    +0.000 N 
ATOM     20  C   UNL     1       0.588   9.843  18.088  0.00  0.00    +0.000 C 
ATOM     21  O   UNL     1      -0.554   9.761  17.659  0.00  0.00    +0.000 OA
ATOM     22  H   UNL     1       1.976  10.348  19.477  0.00  0.00    +0.000 HD
BRANCH  19  26
ATOM     23  C   UNL     1      -1.585  11.939  22.278  0.00  0.00    +0.000 A 
ATOM     24  C   UNL     1      -1.529  12.531  21.022  0.00  0.00    +0.000 A 
ATOM     25  C   UNL     1      -0.691  12.009  20.040  0.00  0.00    +0.000 A 
ATOM     26  C   UNL     1       0.118  10.894  20.283  0.00  0.00    +0.000 A 
ATOM     27  C   UNL     1       0.064  10.297  21.545  0.00  0.00    +0.000 A 
ATOM     28  C   UNL     1      -0.781  10.820  22.541  0.00  0.00    +0.000 A 
BRANCH  23  30
ATOM     29  C   UNL     1      -2.303  13.900  23.794  0.00  0.00    +0.000 C 
ATOM     30  C   UNL     1      -2.488  12.475  23.331  0.00  0.00    +0.000 C 
ATOM     31  O   UNL     1      -3.380  11.757  23.800  0.00  0.00    +0.000 OA
ENDBRANCH  23  30
ENDBRANCH  19  26
ENDBRANCH  18  20
ENDBRANCH  17  18
ENDBRANCH   1  17
TORSDOF 8
ENDMDL
MODEL 3
REMARK VINA RESULT:      -7.9      7.300     11.290
REMARK  Name = 
REMARK  9 active torsions:
REMARK  status: ('A' for Active; 'I' for Inactive)
REMARK    1  A    between atoms: C_1  and  C_2
REMARK    2  A    between atoms: C_2  and  C_4
REMARK    3  A    between atoms: C_7  and  N_8
REMARK    4  A    between atoms: C_9  and  O_11
REMARK    5  A    between atoms: O_11  and  C_12
REMARK    6  A    between atoms: C_12  and  C_13
REMARK    7  A    between atoms: C_13  and  N_14
REMARK    8  A    between atoms: N_17  and  C_18
REMARK    9  A    between atoms: C_18  and  C_19
REMARK                            x       y       z     vdW  Elec       q    Type
REMARK                         _______ _______ _______ _____ _____    ______ ____
ROOT
ATOM      1  C   UNL     1       8.966   9.366  18.798  0.00  0.00    +0.000 C 
ENDROOT
BRANCH   1   2
ATOM      2  N   UNL     1       9.140  10.807  18.952  0.00  0.00    +0.000 N 
ATOM      3  C   UNL     1       9.228  11.600  17.725  0.00  0.00    +0.000 C 
ATOM      4  C   UNL     1      10.589  12.293  17.576  0.00  0.00    +0.000 C 
ATOM      5  N   UNL     1      10.750  13.543  18.337  0.00  0.00    +0.000 NA
ATOM      6  C   UNL     1      10.735  13.282  19.787  0.00  0.00    +0.000 C 
ATOM      7  C   UNL     1       9.410  12.819  20.393  0.00  0.00    +0.000 C 
ATOM      8  C   UNL     1       9.149  11.338  20.226  0.00  0.00    +0.000 C 
ATOM      9  O   UNL     1       8.924  10.643  21.220  0.00  0.00    +0.000 OA
BRANCH   5  10
ATOM     10  C   UNL     1       9.798  14.605  17.963  0.00  0.00    +0.000 C 
BRANCH  10  11
ATOM     11  C   UNL     1      10.387  15.994  17.863  0.00  0.00    +0.000 A 
ATOM     12  C   UNL     1      11.774  16.162  17.719  0.00  0.00    +0.000 A 
ATOM     13  C   UNL     1      12.327  17.436  17.586  0.00  0.00    +0.000 A 
ATOM     14  C   UNL     1      11.496  18.554  17.581  0.00  0.00    +0.000 A 
ATOM     15  C   UNL     1      10.118  18.400  17.729  0.00  0.00    +0.000 A 
ATOM     16  C   UNL     1       9.565  17.128  17.878  0.00  0.00    +0.000 A 
ENDBRANCH  10  11
ENDBRANCH   5  10
ENDBRANCH   1   2
BRANCH   1  17
ATOM     17  C   UNL     1       7.794   8.985  17.885  0.00  0.00    +0.000 C 
BRANCH  17  18
ATOM     18  O   UNL     1       8.109   7.796  17.132  0.00  0.00    +0.000 OA
BRANCH  18  20
ATOM     19  N   UNL     1       6.079   6.829  17.091  0.00  0.00    +0.000 N 
ATOM     20  C   UNL     1       7.377   6.720  17.530  0.00  0.00    +0.000 C 
ATOM     21  O   UNL     1       7.852   5.816  18.202  0.00  0.00    +0.000 OA
ATOM     22  H   UNL     1       5.873   7.650  16.538  0.00  0.00    +0.000 HD
BRANCH  19  26
ATOM     23  C   UNL     1       2.958   4.078  17.887  0.00  0.00    +0.000 A 
ATOM     24  C   UNL     1       3.809   3.872  16.808  0.00  0.00    +0.000 A 
ATOM     25  C   UNL     1       4.840   4.772  16.549  0.00  0.00    +0.000 A 
ATOM     26  C   UNL     1       5.044   5.902  17.348  0.00  0.00    +0.000 A 
ATOM     27  C   UNL     1       4.189   6.111  18.433  0.00  0.00    +0.000 A 
ATOM     28  C   UNL     1       3.147   5.206  18.699  0.00  0.00    +0.000 A 
BRANCH  23  30
ATOM     29  C   UNL     1       2.215   1.771  18.773  0.00  0.00    +0.000 C 
ATOM     30  C   UNL     1       1.863   3.115  18.185  0.00  0.00    +0.000 C 
ATOM     31  O   UNL     1       0.688   3.433  17.962  0.00  0.00    +0.000 OA
ENDBRANCH  23  30
ENDBRANCH  19  26
ENDBRANCH  18  20
ENDBRANCH  17  18
ENDBRANCH   1  17
TORSDOF 8
ENDMDL
MODEL 4
REMARK VINA RESULT:      -7.9      5.924      9.100
REMARK  Name = 
REMARK  9 active torsions:
REMARK  status: ('A' for Active; 'I' for Inactive)
REMARK    1  A    between atoms: C_1  and  C_2
REMARK    2  A    between atoms: C_2  and  C_4
REMARK    3  A    between atoms: C_7  and  N_8
REMARK    4  A    between atoms: C_9  and  O_11
REMARK    5  A    between atoms: O_11  and  C_12
REMARK    6  A    between atoms: C_12  and  C_13
REMARK    7  A    between atoms: C_13  and  N_14
REMARK    8  A    between atoms: N_17  and  C_18
REMARK    9  A    between atoms: C_18  and  C_19
REMARK                            x       y       z     vdW  Elec       q    Type
REMARK                         _______ _______ _______ _____ _____    ______ ____
ROOT
ATOM      1  C   UNL     1       7.892   7.187  17.127  0.00  0.00    +0.000 C 
ENDROOT
BRANCH   1   2
ATOM      2  N   UNL     1       6.621   6.483  16.990  0.00  0.00    +0.000 N 
ATOM      3  C   UNL     1       5.550   6.862  17.913  0.00  0.00    +0.000 C 
ATOM      4  C   UNL     1       5.138   5.706  18.835  0.00  0.00    +0.000 C 
ATOM      5  N   UNL     1       4.213   4.724  18.243  0.00  0.00    +0.000 NA
ATOM      6  C   UNL     1       4.864   3.981  17.150  0.00  0.00    +0.000 C 
ATOM      7  C   UNL     1       5.197   4.768  15.882  0.00  0.00    +0.000 C 
ATOM      8  C   UNL     1       6.484   5.557  15.976  0.00  0.00    +0.000 C 
ATOM      9  O   UNL     1       7.369   5.382  15.135  0.00  0.00    +0.000 OA
BRANCH   5  10
ATOM     10  C   UNL     1       2.918   5.288  17.825  0.00  0.00    +0.000 C 
BRANCH  10  11
ATOM     11  C   UNL     1       2.405   6.429  18.675  0.00  0.00    +0.000 A 
ATOM     12  C   UNL     1       2.185   7.692  18.102  0.00  0.00    +0.000 A 
ATOM     13  C   UNL     1       1.675   8.742  18.866  0.00  0.00    +0.000 A 
ATOM     14  C   UNL     1       1.368   8.535  20.209  0.00  0.00    +0.000 A 
ATOM     15  C   UNL     1       1.587   7.287  20.791  0.00  0.00    +0.000 A 
ATOM     16  C   UNL     1       2.112   6.240  20.032  0.00  0.00    +0.000 A 
ENDBRANCH  10  11
ENDBRANCH   5  10
ENDBRANCH   1   2
BRANCH   1  17
ATOM     17  C   UNL     1       7.766   8.546  17.827  0.00  0.00    +0.000 C 
BRANCH  17  18
ATOM     18  O   UNL     1       8.751   8.664  18.874  0.00  0.00    +0.000 OA
BRANCH  18  20
ATOM     19  N   UNL     1       9.212  10.672  17.972  0.00  0.00    +0.000 N 
ATOM     20  C   UNL     1       9.074   9.960  19.139  0.00  0.00    +0.000 C 
ATOM     21  O   UNL     1       9.227  10.377  20.278  0.00  0.00    +0.000 OA
ATOM     22  H   UNL     1       9.037  10.154  17.121  0.00  0.00    +0.000 HD
BRANCH  19  26
ATOM     23  C   UNL     1      10.314  14.752  17.671  0.00  0.00    +0.000 A 
ATOM     24  C   UNL     1       9.037  14.404  18.096  0.00  0.00    +0.000 A 
ATOM     25  C   UNL     1       8.676  13.064  18.202  0.00  0.00    +0.000 A 
ATOM     26  C   UNL     1       9.569  12.037  17.880  0.00  0.00    +0.000 A 
ATOM     27  C   UNL     1      10.852  12.383  17.451  0.00  0.00    +0.000 A 
ATOM     28  C   UNL     1      11.223  13.735  17.343  0.00  0.00    +0.000 A 
BRANCH  23  30
ATOM     29  C   UNL     1      10.176  17.164  18.577  0.00  0.00    +0.000 C 
ATOM     30  C   UNL     1      10.719  16.180  17.570  0.00  0.00    +0.000 C 
ATOM     31  O   UNL     1      11.500  16.535  16.678  0.00  0.00    +0.000 OA
ENDBRANCH  23  30
ENDBRANCH  19  26
ENDBRANCH  18  20
ENDBRANCH  17  18
ENDBRANCH   1  17
TORSDOF 8
ENDMDL
MODEL 5
REMARK VINA RESULT:      -7.7      4.371     10.236
REMARK  Name = 
REMARK  9 active torsions:
REMARK  status: ('A' for Active; 'I' for Inactive)
REMARK    1  A    between atoms: C_1  and  C_2
REMARK    2  A    between atoms: C_2  and  C_4
REMARK    3  A    between atoms: C_7  and  N_8
REMARK    4  A    between atoms: C_9  and  O_11
REMARK    5  A    between atoms: O_11  and  C_12
REMARK    6  A    between atoms: C_12  and  C_13
REMARK    7  A    between atoms: C_13  and  N_14
REMARK    8  A    between atoms: N_17  and  C_18
REMARK    9  A    between atoms: C_18  and  C_19
REMARK                            x       y       z     vdW  Elec       q    Type
REMARK                         _______ _______ _______ _____ _____    ______ ____
ROOT
ATOM      1  C   UNL     1      -4.317  13.533  23.047  0.00  0.00    +0.000 C 
ENDROOT
BRANCH   1   2
ATOM      2  N   UNL     1      -5.047  12.853  21.981  0.00  0.00    +0.000 N 
ATOM      3  C   UNL     1      -4.270  12.418  20.819  0.00  0.00    +0.000 C 
ATOM      4  C   UNL     1      -4.705  13.127  19.528  0.00  0.00    +0.000 C 
ATOM      5  N   UNL     1      -5.903  12.572  18.875  0.00  0.00    +0.000 NA
ATOM      6  C   UNL     1      -7.099  12.771  19.712  0.00  0.00    +0.000 C 
ATOM      7  C   UNL     1      -7.169  11.980  21.018  0.00  0.00    +0.000 C 
ATOM      8  C   UNL     1      -6.394  12.610  22.154  0.00  0.00    +0.000 C 
ATOM      9  O   UNL     1      -6.968  12.867  23.215  0.00  0.00    +0.000 OA
BRANCH   5  10
ATOM     10  C   UNL     1      -5.763  11.168  18.448  0.00  0.00    +0.000 C 
BRANCH  10  11
ATOM     11  C   UNL     1      -4.559  10.874  17.581  0.00  0.00    +0.000 A 
ATOM     12  C   UNL     1      -3.541  10.029  18.053  0.00  0.00    +0.000 A 
ATOM     13  C   UNL     1      -2.445   9.718  17.248  0.00  0.00    +0.000 A 
ATOM     14  C   UNL     1      -2.363  10.238  15.958  0.00  0.00    +0.000 A 
ATOM     15  C   UNL     1      -3.365  11.082  15.481  0.00  0.00    +0.000 A 
ATOM     16  C   UNL     1      -4.454  11.407  16.290  0.00  0.00    +0.000 A 
ENDBRANCH  10  11
ENDBRANCH   5  10
ENDBRANCH   1   2
BRANCH   1  17
ATOM     17  C   UNL     1      -2.870  13.878  22.674  0.00  0.00    +0.000 C 
BRANCH  17  18
ATOM     18  O   UNL     1      -1.949  13.071  23.436  0.00  0.00    +0.000 OA
BRANCH  18  20
ATOM     19  N   UNL     1      -1.234  11.260  22.310  0.00  0.00    +0.000 N 
ATOM     20  C   UNL     1      -0.950  12.557  22.667  0.00  0.00    +0.000 C 
ATOM     21  O   UNL     1       0.051  13.196  22.378  0.00  0.00    +0.000 OA
ATOM     22  H   UNL     1      -2.120  10.901  22.639  0.00  0.00    +0.000 HD
BRANCH  19  26
ATOM     23  C   UNL     1       1.257   8.710  20.021  0.00  0.00    +0.000 A 
ATOM     24  C   UNL     1       0.737   9.867  19.455  0.00  0.00    +0.000 A 
ATOM     25  C   UNL     1      -0.077  10.710  20.208  0.00  0.00    +0.000 A 
ATOM     26  C   UNL     1      -0.401  10.420  21.537  0.00  0.00    +0.000 A 
ATOM     27  C   UNL     1       0.120   9.256  22.109  0.00  0.00    +0.000 A 
ATOM     28  C   UNL     1       0.942   8.402  21.353  0.00  0.00    +0.000 A 
BRANCH  23  30
ATOM     29  C   UNL     1       2.571   8.237  17.851  0.00  0.00    +0.000 C 
ATOM     30  C   UNL     1       2.142   7.810  19.233  0.00  0.00    +0.000 C 
ATOM     31  O   UNL     1       2.521   6.739  19.724  0.00  0.00    +0.000 OA
ENDBRANCH  23  30
ENDBRANCH  19  26
ENDBRANCH  18  20
ENDBRANCH  17  18
ENDBRANCH   1  17
TORSDOF 8
ENDMDL
MODEL 6
REMARK VINA RESULT:      -7.7      6.386      9.403
REMARK  Name = 
REMARK  9 active torsions:
REMARK  status: ('A' for Active; 'I' for Inactive)
REMARK    1  A    between atoms: C_1  and  C_2
REMARK    2  A    between atoms: C_2  and  C_4
REMARK    3  A    between atoms: C_7  and  N_8
REMARK    4  A    between atoms: C_9  and  O_11
REMARK    5  A    between atoms: O_11  and  C_12
REMARK    6  A    between atoms: C_12  and  C_13
REMARK    7  A    between atoms: C_13  and  N_14
REMARK    8  A    between atoms: N_17  and  C_18
REMARK    9  A    between atoms: C_18  and  C_19
REMARK                            x       y       z     vdW  Elec       q    Type
REMARK                         _______ _______ _______ _____ _____    ______ ____
ROOT
ATOM      1  C   UNL     1       8.038   7.134  17.307  0.00  0.00    +0.000 C 
ENDROOT
BRANCH   1   2
ATOM      2  N   UNL     1       6.875   6.316  16.976  0.00  0.00    +0.000 N 
ATOM      3  C   UNL     1       5.775   6.306  17.940  0.00  0.00    +0.000 C 
ATOM      4  C   UNL     1       5.540   4.913  18.542  0.00  0.00    +0.000 C 
ATOM      5  N   UNL     1       4.753   3.988  17.708  0.00  0.00    +0.000 NA
ATOM      6  C   UNL     1       5.486   3.634  16.480  0.00  0.00    +0.000 C 
ATOM      7  C   UNL     1       5.689   4.746  15.451  0.00  0.00    +0.000 C 
ATOM      8  C   UNL     1       6.855   5.658  15.763  0.00  0.00    +0.000 C 
ATOM      9  O   UNL     1       7.744   5.819  14.923  0.00  0.00    +0.000 OA
BRANCH   5  10
ATOM     10  C   UNL     1       3.386   4.453  17.413  0.00  0.00    +0.000 C 
BRANCH  10  11
ATOM     11  C   UNL     1       2.329   4.020  18.405  0.00  0.00    +0.000 A 
ATOM     12  C   UNL     1       1.694   2.776  18.258  0.00  0.00    +0.000 A 
ATOM     13  C   UNL     1       0.746   2.347  19.188  0.00  0.00    +0.000 A 
ATOM     14  C   UNL     1       0.435   3.153  20.281  0.00  0.00    +0.000 A 
ATOM     15  C   UNL     1       1.055   4.392  20.434  0.00  0.00    +0.000 A 
ATOM     16  C   UNL     1       1.992   4.829  19.497  0.00  0.00    +0.000 A 
ENDBRANCH  10  11
ENDBRANCH   5  10
ENDBRANCH   1   2
BRANCH   1  17
ATOM     17  C   UNL     1       7.692   8.600  17.598  0.00  0.00    +0.000 C 
BRANCH  17  18
ATOM     18  O   UNL     1       8.580   9.136  18.600  0.00  0.00    +0.000 OA
BRANCH  18  20
ATOM     19  N   UNL     1       9.883  10.865  19.208  0.00  0.00    +0.000 N 
ATOM     20  C   UNL     1       8.845  10.457  18.406  0.00  0.00    +0.000 C 
ATOM     21  O   UNL     1       8.203  11.147  17.626  0.00  0.00    +0.000 OA
ATOM     22  H   UNL     1      10.298  10.145  19.785  0.00  0.00    +0.000 HD
BRANCH  19  26
ATOM     23  C   UNL     1      11.390  14.818  19.427  0.00  0.00    +0.000 A 
ATOM     24  C   UNL     1      12.238  13.737  19.633  0.00  0.00    +0.000 A 
ATOM     25  C   UNL     1      11.746  12.437  19.555  0.00  0.00    +0.000 A 
ATOM     26  C   UNL     1      10.399  12.179  19.280  0.00  0.00    +0.000 A 
ATOM     27  C   UNL     1       9.544  13.264  19.072  0.00  0.00    +0.000 A 
ATOM     28  C   UNL     1      10.036  14.579  19.149  0.00  0.00    +0.000 A 
BRANCH  23  30
ATOM     29  C   UNL     1      12.333  16.771  20.825  0.00  0.00    +0.000 C 
ATOM     30  C   UNL     1      11.907  16.212  19.490  0.00  0.00    +0.000 C 
ATOM     31  O   UNL     1      11.992  16.883  18.454  0.00  0.00    +0.000 OA
ENDBRANCH  23  30
ENDBRANCH  19  26
ENDBRANCH  18  20
ENDBRANCH  17  18
ENDBRANCH   1  17
TORSDOF 8
ENDMDL
MODEL 7
REMARK VINA RESULT:      -7.6      3.360      9.881
REMARK  Name = 
REMARK  9 active torsions:
REMARK  status: ('A' for Active; 'I' for Inactive)
REMARK    1  A    between atoms: C_1  and  C_2
REMARK    2  A    between atoms: C_2  and  C_4
REMARK    3  A    between atoms: C_7  and  N_8
REMARK    4  A    between atoms: C_9  and  O_11
REMARK    5  A    between atoms: O_11  and  C_12
REMARK    6  A    between atoms: C_12  and  C_13
REMARK    7  A    between atoms: C_13  and  N_14
REMARK    8  A    between atoms: N_17  and  C_18
REMARK    9  A    between atoms: C_18  and  C_19
REMARK                            x       y       z     vdW  Elec       q    Type
REMARK                         _______ _______ _______ _____ _____    ______ ____
ROOT
ATOM      1  C   UNL     1       2.048   7.596  19.965  0.00  0.00    +0.000 C 
ENDROOT
BRANCH   1   2
ATOM      2  N   UNL     1       1.407   8.872  20.267  0.00  0.00    +0.000 N 
ATOM      3  C   UNL     1       1.145   9.166  21.676  0.00  0.00    +0.000 C 
ATOM      4  C   UNL     1      -0.356   9.291  21.977  0.00  0.00    +0.000 C 
ATOM      5  N   UNL     1      -0.961  10.592  21.643  0.00  0.00    +0.000 NA
ATOM      6  C   UNL     1      -0.955  10.817  20.187  0.00  0.00    +0.000 C 
ATOM      7  C   UNL     1       0.407  11.028  19.526  0.00  0.00    +0.000 C 
ATOM      8  C   UNL     1       1.144   9.741  19.227  0.00  0.00    +0.000 C 
ATOM      9  O   UNL     1       1.519   9.507  18.076  0.00  0.00    +0.000 OA
BRANCH   5  10
ATOM     10  C   UNL     1      -0.384  11.733  22.375  0.00  0.00    +0.000 C 
BRANCH  10  11
ATOM     11  C   UNL     1      -1.389  12.657  23.027  0.00  0.00    +0.000 A 
ATOM     12  C   UNL     1      -1.121  14.033  23.124  0.00  0.00    +0.000 A 
ATOM     13  C   UNL     1      -2.057  14.901  23.687  0.00  0.00    +0.000 A 
ATOM     14  C   UNL     1      -3.275  14.404  24.145  0.00  0.00    +0.000 A 
ATOM     15  C   UNL     1      -3.549  13.040  24.059  0.00  0.00    +0.000 A 
ATOM     16  C   UNL     1      -2.608  12.167  23.511  0.00  0.00    +0.000 A 
ENDBRANCH  10  11
ENDBRANCH   5  10
ENDBRANCH   1   2
BRANCH   1  17
ATOM     17  C   UNL     1       1.566   6.444  20.855  0.00  0.00    +0.000 C 
BRANCH  17  18
ATOM     18  O   UNL     1       1.845   5.175  20.229  0.00  0.00    +0.000 OA
BRANCH  18  20
ATOM     19  N   UNL     1       2.819   5.097  18.203  0.00  0.00    +0.000 N 
ATOM     20  C   UNL     1       3.030   5.177  19.558  0.00  0.00    +0.000 C 
ATOM     21  O   UNL     1       4.108   5.226  20.132  0.00  0.00    +0.000 OA
ATOM     22  H   UNL     1       1.850   5.073  17.913  0.00  0.00    +0.000 HD
BRANCH  19  26
ATOM     23  C   UNL     1       5.833   4.914  15.232  0.00  0.00    +0.000 A 
ATOM     24  C   UNL     1       5.436   6.143  15.747  0.00  0.00    +0.000 A 
ATOM     25  C   UNL     1       4.450   6.204  16.728  0.00  0.00    +0.000 A 
ATOM     26  C   UNL     1       3.828   5.049  17.215  0.00  0.00    +0.000 A 
ATOM     27  C   UNL     1       4.225   3.813  16.698  0.00  0.00    +0.000 A 
ATOM     28  C   UNL     1       5.220   3.746  15.708  0.00  0.00    +0.000 A 
BRANCH  23  30
ATOM     29  C   UNL     1       6.658   3.986  12.970  0.00  0.00    +0.000 C 
ATOM     30  C   UNL     1       6.897   4.833  14.196  0.00  0.00    +0.000 C 
ATOM     31  O   UNL     1       7.950   5.467  14.345  0.00  0.00    +0.000 OA
ENDBRANCH  23  30
ENDBRANCH  19  26
ENDBRANCH  18  20
ENDBRANCH  17  18
ENDBRANCH   1  17
TORSDOF 8
ENDMDL
MODEL 8
REMARK VINA RESULT:      -7.6      3.651     10.650
REMARK  Name = 
REMARK  9 active torsions:
REMARK  status: ('A' for Active; 'I' for Inactive)
REMARK    1  A    between atoms: C_1  and  C_2
REMARK    2  A    between atoms: C_2  and  C_4
REMARK    3  A    between atoms: C_7  and  N_8
REMARK    4  A    between atoms: C_9  and  O_11
REMARK    5  A    between atoms: O_11  and  C_12
REMARK    6  A    between atoms: C_12  and  C_13
REMARK    7  A    between atoms: C_13  and  N_14
REMARK    8  A    between atoms: N_17  and  C_18
REMARK    9  A    between atoms: C_18  and  C_19
REMARK                            x       y       z     vdW  Elec       q    Type
REMARK                         _______ _______ _______ _____ _____    ______ ____
ROOT
ATOM      1  C   UNL     1       1.272   9.283  21.589  0.00  0.00    +0.000 C 
ENDROOT
BRANCH   1   2
ATOM      2  N   UNL     1       0.623  10.559  21.304  0.00  0.00    +0.000 N 
ATOM      3  C   UNL     1       1.137  11.326  20.168  0.00  0.00    +0.000 C 
ATOM      4  C   UNL     1       1.733  12.674  20.597  0.00  0.00    +0.000 C 
ATOM      5  N   UNL     1       0.757  13.754  20.822  0.00  0.00    +0.000 NA
ATOM      6  C   UNL     1      -0.101  13.455  21.982  0.00  0.00    +0.000 C 
ATOM      7  C   UNL     1      -1.083  12.293  21.833  0.00  0.00    +0.000 C 
ATOM      8  C   UNL     1      -0.460  10.935  22.072  0.00  0.00    +0.000 C 
ATOM      9  O   UNL     1      -0.944  10.184  22.922  0.00  0.00    +0.000 OA
BRANCH   5  10
ATOM     10  C   UNL     1      -0.037  14.109  19.632  0.00  0.00    +0.000 C 
BRANCH  10  11
ATOM     11  C   UNL     1       0.331  15.423  18.979  0.00  0.00    +0.000 A 
ATOM     12  C   UNL     1       1.677  15.723  18.710  0.00  0.00    +0.000 A 
ATOM     13  C   UNL     1       2.026  16.914  18.072  0.00  0.00    +0.000 A 
ATOM     14  C   UNL     1       1.033  17.809  17.685  0.00  0.00    +0.000 A 
ATOM     15  C   UNL     1      -0.306  17.525  17.952  0.00  0.00    +0.000 A 
ATOM     16  C   UNL     1      -0.657  16.342  18.604  0.00  0.00    +0.000 A 
ENDBRANCH  10  11
ENDBRANCH   5  10
ENDBRANCH   1   2
BRANCH   1  17
ATOM     17  C   UNL     1       1.409   8.379  20.357  0.00  0.00    +0.000 C 
BRANCH  17  18
ATOM     18  O   UNL     1       1.375   6.990  20.748  0.00  0.00    +0.000 OA
BRANCH  18  20
ATOM     19  N   UNL     1       2.630   6.809  18.890  0.00  0.00    +0.000 N 
ATOM     20  C   UNL     1       2.316   6.247  20.104  0.00  0.00    +0.000 C 
ATOM     21  O   UNL     1       2.773   5.216  20.577  0.00  0.00    +0.000 OA
ATOM     22  H   UNL     1       2.150   7.673  18.672  0.00  0.00    +0.000 HD
BRANCH  19  26
ATOM     23  C   UNL     1       5.358   5.200  16.077  0.00  0.00    +0.000 A 
ATOM     24  C   UNL     1       5.440   6.539  16.440  0.00  0.00    +0.000 A 
ATOM     25  C   UNL     1       4.548   7.067  17.370  0.00  0.00    +0.000 A 
ATOM     26  C   UNL     1       3.548   6.283  17.953  0.00  0.00    +0.000 A 
ATOM     27  C   UNL     1       3.462   4.937  17.589  0.00  0.00    +0.000 A 
ATOM     28  C   UNL     1       4.361   4.398  16.652  0.00  0.00    +0.000 A 
BRANCH  23  30
ATOM     29  C   UNL     1       5.773   3.927  13.871  0.00  0.00    +0.000 C 
ATOM     30  C   UNL     1       6.315   4.618  15.098  0.00  0.00    +0.000 C 
ATOM     31  O   UNL     1       7.532   4.719  15.295  0.00  0.00    +0.000 OA
ENDBRANCH  23  30
ENDBRANCH  19  26
ENDBRANCH  18  20
ENDBRANCH  17  18
ENDBRANCH   1  17
TORSDOF 8
ENDMDL
MODEL 9
REMARK VINA RESULT:      -7.6      3.449     10.789
REMARK  Name = 
REMARK  9 active torsions:
REMARK  status: ('A' for Active; 'I' for Inactive)
REMARK    1  A    between atoms: C_1  and  C_2
REMARK    2  A    between atoms: C_2  and  C_4
REMARK    3  A    between atoms: C_7  and  N_8
REMARK    4  A    between atoms: C_9  and  O_11
REMARK    5  A    between atoms: O_11  and  C_12
REMARK    6  A    between atoms: C_12  and  C_13
REMARK    7  A    between atoms: C_13  and  N_14
REMARK    8  A    between atoms: N_17  and  C_18
REMARK    9  A    between atoms: C_18  and  C_19
REMARK                            x       y       z     vdW  Elec       q    Type
REMARK                         _______ _______ _______ _____ _____    ______ ____
ROOT
ATOM      1  C   UNL     1       1.062   8.977  21.423  0.00  0.00    +0.000 C 
ENDROOT
BRANCH   1   2
ATOM      2  N   UNL     1      -0.004   9.948  21.651  0.00  0.00    +0.000 N 
ATOM      3  C   UNL     1      -0.663  10.500  20.467  0.00  0.00    +0.000 C 
ATOM      4  C   UNL     1      -0.450  12.014  20.335  0.00  0.00    +0.000 C 
ATOM      5  N   UNL     1      -1.337  12.853  21.160  0.00  0.00    +0.000 NA
ATOM      6  C   UNL     1      -1.056  12.663  22.594  0.00  0.00    +0.000 C 
ATOM      7  C   UNL     1      -1.412  11.303  23.194  0.00  0.00    +0.000 C 
ATOM      8  C   UNL     1      -0.364  10.238  22.951  0.00  0.00    +0.000 C 
ATOM      9  O   UNL     1       0.123   9.634  23.910  0.00  0.00    +0.000 OA
BRANCH   5  10
ATOM     10  C   UNL     1      -2.771  12.696  20.858  0.00  0.00    +0.000 C 
BRANCH  10  11
ATOM     11  C   UNL     1      -3.689  13.671  21.561  0.00  0.00    +0.000 A 
ATOM     12  C   UNL     1      -3.549  15.051  21.345  0.00  0.00    +0.000 A 
ATOM     13  C   UNL     1      -4.414  15.959  21.956  0.00  0.00    +0.000 A 
ATOM     14  C   UNL     1      -5.438  15.493  22.778  0.00  0.00    +0.000 A 
ATOM     15  C   UNL     1      -5.584  14.125  23.004  0.00  0.00    +0.000 A 
ATOM     16  C   UNL     1      -4.709  13.217  22.406  0.00  0.00    +0.000 A 
ENDBRANCH  10  11
ENDBRANCH   5  10
ENDBRANCH   1   2
BRANCH   1  17
ATOM     17  C   UNL     1       1.294   8.662  19.940  0.00  0.00    +0.000 C 
BRANCH  17  18
ATOM     18  O   UNL     1       2.044   7.437  19.798  0.00  0.00    +0.000 OA
BRANCH  18  20
ATOM     19  N   UNL     1       3.401   6.187  18.513  0.00  0.00    +0.000 N 
ATOM     20  C   UNL     1       2.700   7.365  18.608  0.00  0.00    +0.000 C 
ATOM     21  O   UNL     1       2.654   8.262  17.778  0.00  0.00    +0.000 OA
ATOM     22  H   UNL     1       3.310   5.561  19.302  0.00  0.00    +0.000 HD
BRANCH  19  26
ATOM     23  C   UNL     1       5.846   5.065  15.241  0.00  0.00    +0.000 A 
ATOM     24  C   UNL     1       5.394   4.102  16.135  0.00  0.00    +0.000 A 
ATOM     25  C   UNL     1       4.585   4.468  17.207  0.00  0.00    +0.000 A 
ATOM     26  C   UNL     1       4.213   5.799  17.423  0.00  0.00    +0.000 A 
ATOM     27  C   UNL     1       4.667   6.769  16.526  0.00  0.00    +0.000 A 
ATOM     28  C   UNL     1       5.484   6.405  15.441  0.00  0.00    +0.000 A 
BRANCH  23  30
ATOM     29  C   UNL     1       6.191   3.640  13.117  0.00  0.00    +0.000 C 
ATOM     30  C   UNL     1       6.697   4.685  14.081  0.00  0.00    +0.000 C 
ATOM     31  O   UNL     1       7.793   5.235  13.916  0.00  0.00    +0.000 OA
ENDBRANCH  23  30
ENDBRANCH  19  26
ENDBRANCH  18  20
ENDBRANCH  17  18
ENDBRANCH   1  17
TORSDOF 8
ENDMDL
