MODEL 1
REMARK VINA RESULT:      -8.0      0.000      0.000
REMARK  Name = 
REMARK  5 active torsions:
REMARK  status: ('A' for Active; 'I' for Inactive)
REMARK    1  A    between atoms: C_1  and  C_2
REMARK    2  A    between atoms: C_6  and  N_7
REMARK    3  A    between atoms: C_8  and  S_9
REMARK    4  A    between atoms: N_10  and  C_11
REMARK    5  A    between atoms: C_11  and  C_12
REMARK                            x       y       z     vdW  Elec       q    Type
REMARK                         _______ _______ _______ _____ _____    ______ ____
ROOT
ATOM      1  N   UNL     1       7.289   4.946  15.819  0.00  0.00    +0.000 N 
ATOM      2  C   UNL     1       6.346   5.359  16.722  0.00  0.00    +0.000 C 
ATOM      3  N   UNL     1       5.082   5.321  16.559  0.00  0.00    +0.000 NA
ATOM      4  H   UNL     1       8.243   5.018  16.135  0.00  0.00    +0.000 HD
ENDROOT
BRANCH   1  10
ATOM      5  C   UNL     1       5.314   2.593  11.886  0.00  0.00    +0.000 C 
ATOM      6  C   UNL     1       6.250   3.619  12.450  0.00  0.00    +0.000 A 
ATOM      7  C   UNL     1       7.007   4.442  11.616  0.00  0.00    +0.000 A 
ATOM      8  C   UNL     1       7.860   5.390  12.174  0.00  0.00    +0.000 A 
ATOM      9  C   UNL     1       7.939   5.536  13.559  0.00  0.00    +0.000 A 
ATOM     10  C   UNL     1       7.167   4.753  14.425  0.00  0.00    +0.000 A 
ATOM     11  C   UNL     1       6.352   3.773  13.843  0.00  0.00    +0.000 A 
ENDBRANCH   1  10
BRANCH   2  12
ATOM     12  S   UNL     1       7.089   5.945  18.204  0.00  0.00    +0.000 S 
ATOM     13  H   UNL     1       6.291   7.012  18.342  0.00  0.00    +0.000 HD
ENDBRANCH   2  12
BRANCH   3  14
ATOM     14  C   UNL     1       4.058   5.811  17.469  0.00  0.00    +0.000 C 
BRANCH  14  15
ATOM     15  C   UNL     1       3.285   4.580  17.940  0.00  0.00    +0.000 A 
ATOM     16  C   UNL     1       1.904   4.434  17.662  0.00  0.00    +0.000 A 
ATOM     17  C   UNL     1       1.101   3.624  18.473  0.00  0.00    +0.000 A 
ATOM     18  C   UNL     1       1.706   3.049  19.568  0.00  0.00    +0.000 A 
ATOM     19  C   UNL     1       3.071   3.083  19.753  0.00  0.00    +0.000 A 
ATOM     20  C   UNL     1       3.901   3.763  18.903  0.00  0.00    +0.000 A 
ATOM     21  O   UNL     1       3.428   2.601  20.978  0.00  0.00    +0.000 OA
ATOM     22  C   UNL     1       2.147   2.738  21.623  0.00  0.00    +0.000 C 
ATOM     23  O   UNL     1       1.067   2.576  20.680  0.00  0.00    +0.000 OA
ENDBRANCH  14  15
ENDBRANCH   3  14
TORSDOF 4
ENDMDL
MODEL 2
REMARK VINA RESULT:      -7.9      1.354      1.756
REMARK  Name = 
REMARK  5 active torsions:
REMARK  status: ('A' for Active; 'I' for Inactive)
REMARK    1  A    between atoms: C_1  and  C_2
REMARK    2  A    between atoms: C_6  and  N_7
REMARK    3  A    between atoms: C_8  and  S_9
REMARK    4  A    between atoms: N_10  and  C_11
REMARK    5  A    between atoms: C_11  and  C_12
REMARK                            x       y       z     vdW  Elec       q    Type
REMARK                         _______ _______ _______ _____ _____    ______ ____
ROOT
ATOM      1  N   UNL     1       6.133   4.218  16.540  0.00  0.00    +0.000 N 
ATOM      2  C   UNL     1       5.406   5.064  17.334  0.00  0.00    +0.000 C 
ATOM      3  N   UNL     1       4.500   5.871  16.941  0.00  0.00    +0.000 NA
ATOM      4  H   UNL     1       6.782   3.625  17.030  0.00  0.00    +0.000 HD
ENDROOT
BRANCH   1  10
ATOM      5  C   UNL     1       4.916   2.975  11.862  0.00  0.00    +0.000 C 
ATOM      6  C   UNL     1       5.824   3.680  12.824  0.00  0.00    +0.000 A 
ATOM      7  C   UNL     1       6.902   4.442  12.373  0.00  0.00    +0.000 A 
ATOM      8  C   UNL     1       7.720   5.090  13.295  0.00  0.00    +0.000 A 
ATOM      9  C   UNL     1       7.450   5.000  14.660  0.00  0.00    +0.000 A 
ATOM     10  C   UNL     1       6.357   4.273  15.146  0.00  0.00    +0.000 A 
ATOM     11  C   UNL     1       5.576   3.591  14.205  0.00  0.00    +0.000 A 
ENDBRANCH   1  10
BRANCH   2  12
ATOM     12  S   UNL     1       5.849   4.894  19.028  0.00  0.00    +0.000 S 
ATOM     13  H   UNL     1       5.983   6.206  19.264  0.00  0.00    +0.000 HD
ENDBRANCH   2  12
BRANCH   3  14
ATOM     14  C   UNL     1       3.758   6.827  17.749  0.00  0.00    +0.000 C 
BRANCH  14  15
ATOM     15  C   UNL     1       2.624   6.039  18.403  0.00  0.00    +0.000 A 
ATOM     16  C   UNL     1       2.331   6.187  19.781  0.00  0.00    +0.000 A 
ATOM     17  C   UNL     1       1.683   5.163  20.480  0.00  0.00    +0.000 A 
ATOM     18  C   UNL     1       1.416   4.007  19.782  0.00  0.00    +0.000 A 
ATOM     19  C   UNL     1       1.577   3.923  18.416  0.00  0.00    +0.000 A 
ATOM     20  C   UNL     1       2.093   4.958  17.681  0.00  0.00    +0.000 A 
ATOM     21  O   UNL     1       1.416   2.646  17.964  0.00  0.00    +0.000 OA
ATOM     22  C   UNL     1       1.618   1.968  19.219  0.00  0.00    +0.000 C 
ATOM     23  O   UNL     1       1.174   2.778  20.328  0.00  0.00    +0.000 OA
ENDBRANCH  14  15
ENDBRANCH   3  14
TORSDOF 4
ENDMDL
MODEL 3
REMARK VINA RESULT:      -7.7      1.163      1.563
REMARK  Name = 
REMARK  5 active torsions:
REMARK  status: ('A' for Active; 'I' for Inactive)
REMARK    1  A    between atoms: C_1  and  C_2
REMARK    2  A    between atoms: C_6  and  N_7
REMARK    3  A    between atoms: C_8  and  S_9
REMARK    4  A    between atoms: N_10  and  C_11
REMARK    5  A    between atoms: C_11  and  C_12
REMARK                            x       y       z     vdW  Elec       q    Type
REMARK                         _______ _______ _______ _____ _____    ______ ____
ROOT
ATOM      1  N   UNL     1       7.234   4.874  15.926  0.00  0.00    +0.000 N 
ATOM      2  C   UNL     1       6.430   5.596  16.766  0.00  0.00    +0.000 C 
ATOM      3  N   UNL     1       5.240   5.981  16.521  0.00  0.00    +0.000 NA
ATOM      4  H   UNL     1       8.134   4.627  16.304  0.00  0.00    +0.000 HD
ENDROOT
BRANCH   1  10
ATOM      5  C   UNL     1       5.309   2.627  11.907  0.00  0.00    +0.000 C 
ATOM      6  C   UNL     1       6.250   3.625  12.510  0.00  0.00    +0.000 A 
ATOM      7  C   UNL     1       7.042   4.447  11.709  0.00  0.00    +0.000 A 
ATOM      8  C   UNL     1       7.900   5.369  12.303  0.00  0.00    +0.000 A 
ATOM      9  C   UNL     1       7.948   5.490  13.692  0.00  0.00    +0.000 A 
ATOM     10  C   UNL     1       7.142   4.707  14.526  0.00  0.00    +0.000 A 
ATOM     11  C   UNL     1       6.323   3.753  13.908  0.00  0.00    +0.000 A 
ENDBRANCH   1  10
BRANCH   2  12
ATOM     12  S   UNL     1       7.233   5.926  18.296  0.00  0.00    +0.000 S 
ATOM     13  H   UNL     1       8.333   6.467  17.756  0.00  0.00    +0.000 HD
ENDBRANCH   2  12
BRANCH   3  14
ATOM     14  C   UNL     1       4.385   6.803  17.364  0.00  0.00    +0.000 C 
BRANCH  14  15
ATOM     15  C   UNL     1       3.443   5.838  18.082  0.00  0.00    +0.000 A 
ATOM     16  C   UNL     1       3.255   5.907  19.484  0.00  0.00    +0.000 A 
ATOM     17  C   UNL     1       2.829   4.781  20.197  0.00  0.00    +0.000 A 
ATOM     18  C   UNL     1       2.676   3.616  19.482  0.00  0.00    +0.000 A 
ATOM     19  C   UNL     1       2.726   3.590  18.105  0.00  0.00    +0.000 A 
ATOM     20  C   UNL     1       3.015   4.707  17.368  0.00  0.00    +0.000 A 
ATOM     21  O   UNL     1       2.715   2.314  17.622  0.00  0.00    +0.000 OA
ATOM     22  C   UNL     1       3.127   1.644  18.829  0.00  0.00    +0.000 C 
ATOM     23  O   UNL     1       2.668   2.351  20.001  0.00  0.00    +0.000 OA
ENDBRANCH  14  15
ENDBRANCH   3  14
TORSDOF 4
ENDMDL
MODEL 4
REMARK VINA RESULT:      -7.5      1.388      2.300
REMARK  Name = 
REMARK  5 active torsions:
REMARK  status: ('A' for Active; 'I' for Inactive)
REMARK    1  A    between atoms: C_1  and  C_2
REMARK    2  A    between atoms: C_6  and  N_7
REMARK    3  A    between atoms: C_8  and  S_9
REMARK    4  A    between atoms: N_10  and  C_11
REMARK    5  A    between atoms: C_11  and  C_12
REMARK                            x       y       z     vdW  Elec       q    Type
REMARK                         _______ _______ _______ _____ _____    ______ ____
ROOT
ATOM      1  N   UNL     1       6.271   4.466  16.772  0.00  0.00    +0.000 N 
ATOM      2  C   UNL     1       5.478   5.297  17.517  0.00  0.00    +0.000 C 
ATOM      3  N   UNL     1       4.467   5.949  17.096  0.00  0.00    +0.000 NA
ATOM      4  H   UNL     1       7.005   4.004  17.283  0.00  0.00    +0.000 HD
ENDROOT
BRANCH   1  10
ATOM      5  C   UNL     1       8.552   5.897  12.569  0.00  0.00    +0.000 C 
ATOM      6  C   UNL     1       7.500   5.087  13.264  0.00  0.00    +0.000 A 
ATOM      7  C   UNL     1       6.668   4.221  12.554  0.00  0.00    +0.000 A 
ATOM      8  C   UNL     1       5.706   3.478  13.234  0.00  0.00    +0.000 A 
ATOM      9  C   UNL     1       5.592   3.577  14.620  0.00  0.00    +0.000 A 
ATOM     10  C   UNL     1       6.433   4.407  15.369  0.00  0.00    +0.000 A 
ATOM     11  C   UNL     1       7.361   5.181  14.660  0.00  0.00    +0.000 A 
ENDBRANCH   1  10
BRANCH   2  12
ATOM     12  S   UNL     1       6.003   5.349  19.195  0.00  0.00    +0.000 S 
ATOM     13  H   UNL     1       6.485   4.100  19.224  0.00  0.00    +0.000 HD
ENDBRANCH   2  12
BRANCH   3  14
ATOM     14  C   UNL     1       3.647   6.888  17.845  0.00  0.00    +0.000 C 
BRANCH  14  15
ATOM     15  C   UNL     1       2.546   6.058  18.504  0.00  0.00    +0.000 A 
ATOM     16  C   UNL     1       2.291   6.154  19.894  0.00  0.00    +0.000 A 
ATOM     17  C   UNL     1       1.681   5.096  20.576  0.00  0.00    +0.000 A 
ATOM     18  C   UNL     1       1.416   3.959  19.848  0.00  0.00    +0.000 A 
ATOM     19  C   UNL     1       1.540   3.923  18.476  0.00  0.00    +0.000 A 
ATOM     20  C   UNL     1       2.015   4.990  17.762  0.00  0.00    +0.000 A 
ATOM     21  O   UNL     1       1.389   2.658  17.987  0.00  0.00    +0.000 OA
ATOM     22  C   UNL     1       1.640   1.943  19.212  0.00  0.00    +0.000 C 
ATOM     23  O   UNL     1       1.213   2.708  20.360  0.00  0.00    +0.000 OA
ENDBRANCH  14  15
ENDBRANCH   3  14
TORSDOF 4
ENDMDL
MODEL 5
REMARK VINA RESULT:      -7.4      2.420      3.596
REMARK  Name = 
REMARK  5 active torsions:
REMARK  status: ('A' for Active; 'I' for Inactive)
REMARK    1  A    between atoms: C_1  and  C_2
REMARK    2  A    between atoms: C_6  and  N_7
REMARK    3  A    between atoms: C_8  and  S_9
REMARK    4  A    between atoms: N_10  and  C_11
REMARK    5  A    between atoms: C_11  and  C_12
REMARK                            x       y       z     vdW  Elec       q    Type
REMARK                         _______ _______ _______ _____ _____    ______ ____
ROOT
ATOM      1  N   UNL     1       4.242   7.679  17.143  0.00  0.00    +0.000 N 
ATOM      2  C   UNL     1       3.238   7.575  18.068  0.00  0.00    +0.000 C 
ATOM      3  N   UNL     1       3.191   6.748  19.037  0.00  0.00    +0.000 NA
ATOM      4  H   UNL     1       4.127   8.418  16.469  0.00  0.00    +0.000 HD
ENDROOT
BRANCH   1  10
ATOM      5  C   UNL     1       5.977   4.115  14.109  0.00  0.00    +0.000 C 
ATOM      6  C   UNL     1       6.123   4.956  15.342  0.00  0.00    +0.000 A 
ATOM      7  C   UNL     1       7.252   4.855  16.155  0.00  0.00    +0.000 A 
ATOM      8  C   UNL     1       7.358   5.657  17.289  0.00  0.00    +0.000 A 
ATOM      9  C   UNL     1       6.355   6.577  17.595  0.00  0.00    +0.000 A 
ATOM     10  C   UNL     1       5.226   6.730  16.782  0.00  0.00    +0.000 A 
ATOM     11  C   UNL     1       5.117   5.880  15.675  0.00  0.00    +0.000 A 
ENDBRANCH   1  10
BRANCH   2  12
ATOM     12  S   UNL     1       1.982   8.774  17.788  0.00  0.00    +0.000 S 
ATOM     13  H   UNL     1       1.124   7.933  17.194  0.00  0.00    +0.000 HD
ENDBRANCH   2  12
BRANCH   3  14
ATOM     14  C   UNL     1       2.111   6.570  19.995  0.00  0.00    +0.000 C 
BRANCH  14  15
ATOM     15  C   UNL     1       1.790   5.076  20.000  0.00  0.00    +0.000 A 
ATOM     16  C   UNL     1       2.010   4.285  21.155  0.00  0.00    +0.000 A 
ATOM     17  C   UNL     1       2.205   2.905  21.039  0.00  0.00    +0.000 A 
ATOM     18  C   UNL     1       2.239   2.387  19.765  0.00  0.00    +0.000 A 
ATOM     19  C   UNL     1       1.889   3.134  18.661  0.00  0.00    +0.000 A 
ATOM     20  C   UNL     1       1.568   4.462  18.757  0.00  0.00    +0.000 A 
ATOM     21  O   UNL     1       2.156   2.475  17.497  0.00  0.00    +0.000 OA
ATOM     22  C   UNL     1       3.098   1.521  18.024  0.00  0.00    +0.000 C 
ATOM     23  O   UNL     1       2.797   1.194  19.398  0.00  0.00    +0.000 OA
ENDBRANCH  14  15
ENDBRANCH   3  14
TORSDOF 4
ENDMDL
MODEL 6
REMARK VINA RESULT:      -7.4      0.988      1.049
REMARK  Name = 
REMARK  5 active torsions:
REMARK  status: ('A' for Active; 'I' for Inactive)
REMARK    1  A    between atoms: C_1  and  C_2
REMARK    2  A    between atoms: C_6  and  N_7
REMARK    3  A    between atoms: C_8  and  S_9
REMARK    4  A    between atoms: N_10  and  C_11
REMARK    5  A    between atoms: C_11  and  C_12
REMARK                            x       y       z     vdW  Elec       q    Type
REMARK                         _______ _______ _______ _____ _____    ______ ____
ROOT
ATOM      1  N   UNL     1       7.460   5.348  15.452  0.00  0.00    +0.000 N 
ATOM      2  C   UNL     1       6.517   5.682  16.387  0.00  0.00    +0.000 C 
ATOM      3  N   UNL     1       5.275   5.398  16.336  0.00  0.00    +0.000 NA
ATOM      4  H   UNL     1       8.402   5.625  15.678  0.00  0.00    +0.000 HD
ENDROOT
BRANCH   1  10
ATOM      5  C   UNL     1       5.319   2.549  11.917  0.00  0.00    +0.000 C 
ATOM      6  C   UNL     1       6.286   3.624  12.315  0.00  0.00    +0.000 A 
ATOM      7  C   UNL     1       7.021   4.325  11.358  0.00  0.00    +0.000 A 
ATOM      8  C   UNL     1       7.904   5.322  11.762  0.00  0.00    +0.000 A 
ATOM      9  C   UNL     1       8.034   5.640  13.114  0.00  0.00    +0.000 A 
ATOM     10  C   UNL     1       7.286   4.983  14.098  0.00  0.00    +0.000 A 
ATOM     11  C   UNL     1       6.440   3.951  13.673  0.00  0.00    +0.000 A 
ENDBRANCH   1  10
BRANCH   2  12
ATOM     12  S   UNL     1       7.233   6.552  17.738  0.00  0.00    +0.000 S 
ATOM     13  H   UNL     1       6.164   6.458  18.540  0.00  0.00    +0.000 HD
ENDBRANCH   2  12
BRANCH   3  14
ATOM     14  C   UNL     1       4.239   5.793  17.278  0.00  0.00    +0.000 C 
BRANCH  14  15
ATOM     15  C   UNL     1       4.020   4.591  18.196  0.00  0.00    +0.000 A 
ATOM     16  C   UNL     1       3.800   3.296  17.665  0.00  0.00    +0.000 A 
ATOM     17  C   UNL     1       3.123   2.330  18.416  0.00  0.00    +0.000 A 
ATOM     18  C   UNL     1       2.634   2.726  19.641  0.00  0.00    +0.000 A 
ATOM     19  C   UNL     1       2.969   3.937  20.206  0.00  0.00    +0.000 A 
ATOM     20  C   UNL     1       3.740   4.857  19.547  0.00  0.00    +0.000 A 
ATOM     21  O   UNL     1       2.244   4.187  21.334  0.00  0.00    +0.000 OA
ATOM     22  C   UNL     1       1.170   3.258  21.087  0.00  0.00    +0.000 C 
ATOM     23  O   UNL     1       1.634   2.112  20.341  0.00  0.00    +0.000 OA
ENDBRANCH  14  15
ENDBRANCH   3  14
TORSDOF 4
ENDMDL
MODEL 7
REMARK VINA RESULT:      -7.3      4.368      7.618
REMARK  Name = 
REMARK  5 active torsions:
REMARK  status: ('A' for Active; 'I' for Inactive)
REMARK    1  A    between atoms: C_1  and  C_2
REMARK    2  A    between atoms: C_6  and  N_7
REMARK    3  A    between atoms: C_8  and  S_9
REMARK    4  A    between atoms: N_10  and  C_11
REMARK    5  A    between atoms: C_11  and  C_12
REMARK                            x       y       z     vdW  Elec       q    Type
REMARK                         _______ _______ _______ _____ _____    ______ ____
ROOT
ATOM      1  N   UNL     1       2.066   6.777  20.499  0.00  0.00    +0.000 N 
ATOM      2  C   UNL     1       2.402   5.585  19.913  0.00  0.00    +0.000 C 
ATOM      3  N   UNL     1       2.830   5.427  18.723  0.00  0.00    +0.000 NA
ATOM      4  H   UNL     1       1.780   6.713  21.462  0.00  0.00    +0.000 HD
ENDROOT
BRANCH   1  10
ATOM      5  C   UNL     1      -0.079  11.282  20.620  0.00  0.00    +0.000 C 
ATOM      6  C   UNL     1       0.689  10.229  19.880  0.00  0.00    +0.000 A 
ATOM      7  C   UNL     1       1.140  10.445  18.578  0.00  0.00    +0.000 A 
ATOM      8  C   UNL     1       1.858   9.448  17.923  0.00  0.00    +0.000 A 
ATOM      9  C   UNL     1       2.148   8.248  18.573  0.00  0.00    +0.000 A 
ATOM     10  C   UNL     1       1.743   8.011  19.891  0.00  0.00    +0.000 A 
ATOM     11  C   UNL     1       0.981   9.008  20.514  0.00  0.00    +0.000 A 
ENDBRANCH   1  10
BRANCH   2  12
ATOM     12  S   UNL     1       2.199   4.242  21.030  0.00  0.00    +0.000 S 
ATOM     13  H   UNL     1       2.647   4.897  22.110  0.00  0.00    +0.000 HD
ENDBRANCH   2  12
BRANCH   3  14
ATOM     14  C   UNL     1       3.132   4.172  18.052  0.00  0.00    +0.000 C 
BRANCH  14  15
ATOM     15  C   UNL     1       4.606   4.247  17.655  0.00  0.00    +0.000 A 
ATOM     16  C   UNL     1       5.456   5.247  18.186  0.00  0.00    +0.000 A 
ATOM     17  C   UNL     1       6.606   5.639  17.493  0.00  0.00    +0.000 A 
ATOM     18  C   UNL     1       6.817   5.059  16.263  0.00  0.00    +0.000 A 
ATOM     19  C   UNL     1       6.066   3.993  15.818  0.00  0.00    +0.000 A 
ATOM     20  C   UNL     1       5.008   3.501  16.535  0.00  0.00    +0.000 A 
ATOM     21  O   UNL     1       6.337   3.692  14.515  0.00  0.00    +0.000 OA
ATOM     22  C   UNL     1       6.937   4.948  14.144  0.00  0.00    +0.000 C 
ATOM     23  O   UNL     1       7.610   5.557  15.267  0.00  0.00    +0.000 OA
ENDBRANCH  14  15
ENDBRANCH   3  14
TORSDOF 4
ENDMDL
MODEL 8
REMARK VINA RESULT:      -7.3      4.823      8.261
REMARK  Name = 
REMARK  5 active torsions:
REMARK  status: ('A' for Active; 'I' for Inactive)
REMARK    1  A    between atoms: C_1  and  C_2
REMARK    2  A    between atoms: C_6  and  N_7
REMARK    3  A    between atoms: C_8  and  S_9
REMARK    4  A    between atoms: N_10  and  C_11
REMARK    5  A    between atoms: C_11  and  C_12
REMARK                            x       y       z     vdW  Elec       q    Type
REMARK                         _______ _______ _______ _____ _____    ______ ____
ROOT
ATOM      1  N   UNL     1       1.839   6.907  21.066  0.00  0.00    +0.000 N 
ATOM      2  C   UNL     1       2.140   5.962  20.122  0.00  0.00    +0.000 C 
ATOM      3  N   UNL     1       2.307   6.171  18.876  0.00  0.00    +0.000 NA
ATOM      4  H   UNL     1       1.780   6.564  22.011  0.00  0.00    +0.000 HD
ENDROOT
BRANCH   1  10
ATOM      5  C   UNL     1      -0.787  10.797  22.767  0.00  0.00    +0.000 C 
ATOM      6  C   UNL     1      -0.021  10.129  21.665  0.00  0.00    +0.000 A 
ATOM      7  C   UNL     1       0.195  10.770  20.445  0.00  0.00    +0.000 A 
ATOM      8  C   UNL     1       0.918  10.123  19.445  0.00  0.00    +0.000 A 
ATOM      9  C   UNL     1       1.446   8.852  19.671  0.00  0.00    +0.000 A 
ATOM     10  C   UNL     1       1.280   8.194  20.895  0.00  0.00    +0.000 A 
ATOM     11  C   UNL     1       0.509   8.843  21.868  0.00  0.00    +0.000 A 
ENDBRANCH   1  10
BRANCH   2  12
ATOM     12  S   UNL     1       2.311   4.367  20.844  0.00  0.00    +0.000 S 
ATOM     13  H   UNL     1       3.334   4.692  21.646  0.00  0.00    +0.000 HD
ENDBRANCH   2  12
BRANCH   3  14
ATOM     14  C   UNL     1       2.563   5.182  17.841  0.00  0.00    +0.000 C 
BRANCH  14  15
ATOM     15  C   UNL     1       4.068   5.223  17.577  0.00  0.00    +0.000 A 
ATOM     16  C   UNL     1       4.793   6.436  17.674  0.00  0.00    +0.000 A 
ATOM     17  C   UNL     1       5.996   6.598  16.977  0.00  0.00    +0.000 A 
ATOM     18  C   UNL     1       6.383   5.561  16.159  0.00  0.00    +0.000 A 
ATOM     19  C   UNL     1       5.749   4.338  16.176  0.00  0.00    +0.000 A 
ATOM     20  C   UNL     1       4.640   4.106  16.947  0.00  0.00    +0.000 A 
ATOM     21  O   UNL     1       6.189   3.524  15.174  0.00  0.00    +0.000 OA
ATOM     22  C   UNL     1       6.762   4.544  14.332  0.00  0.00    +0.000 C 
ATOM     23  O   UNL     1       7.261   5.648  15.115  0.00  0.00    +0.000 OA
ENDBRANCH  14  15
ENDBRANCH   3  14
TORSDOF 4
ENDMDL
MODEL 9
REMARK VINA RESULT:      -7.3      4.344      7.660
REMARK  Name = 
REMARK  5 active torsions:
REMARK  status: ('A' for Active; 'I' for Inactive)
REMARK    1  A    between atoms: C_1  and  C_2
REMARK    2  A    between atoms: C_6  and  N_7
REMARK    3  A    between atoms: C_8  and  S_9
REMARK    4  A    between atoms: N_10  and  C_11
REMARK    5  A    between atoms: C_11  and  C_12
REMARK                            x       y       z     vdW  Elec       q    Type
REMARK                         _______ _______ _______ _____ _____    ______ ____
ROOT
ATOM      1  N   UNL     1       1.824   6.253  21.104  0.00  0.00    +0.000 N 
ATOM      2  C   UNL     1       2.203   5.195  20.323  0.00  0.00    +0.000 C 
ATOM      3  N   UNL     1       2.646   5.263  19.129  0.00  0.00    +0.000 NA
ATOM      4  H   UNL     1       1.534   6.012  22.038  0.00  0.00    +0.000 HD
ENDROOT
BRANCH   1  10
ATOM      5  C   UNL     1       1.731   9.962  17.766  0.00  0.00    +0.000 C 
ATOM      6  C   UNL     1       1.404   9.434  19.130  0.00  0.00    +0.000 A 
ATOM      7  C   UNL     1       0.702  10.208  20.054  0.00  0.00    +0.000 A 
ATOM      8  C   UNL     1       0.408   9.683  21.310  0.00  0.00    +0.000 A 
ATOM      9  C   UNL     1       0.790   8.381  21.634  0.00  0.00    +0.000 A 
ATOM     10  C   UNL     1       1.463   7.564  20.719  0.00  0.00    +0.000 A 
ATOM     11  C   UNL     1       1.790   8.129  19.480  0.00  0.00    +0.000 A 
ENDBRANCH   1  10
BRANCH   2  12
ATOM     12  S   UNL     1       2.039   3.670  21.183  0.00  0.00    +0.000 S 
ATOM     13  H   UNL     1       2.236   4.183  22.405  0.00  0.00    +0.000 HD
ENDBRANCH   2  12
BRANCH   3  14
ATOM     14  C   UNL     1       2.995   4.156  18.252  0.00  0.00    +0.000 C 
BRANCH  14  15
ATOM     15  C   UNL     1       3.988   4.717  17.234  0.00  0.00    +0.000 A 
ATOM     16  C   UNL     1       4.785   3.857  16.440  0.00  0.00    +0.000 A 
ATOM     17  C   UNL     1       5.997   4.309  15.907  0.00  0.00    +0.000 A 
ATOM     18  C   UNL     1       6.389   5.583  16.249  0.00  0.00    +0.000 A 
ATOM     19  C   UNL     1       5.548   6.457  16.904  0.00  0.00    +0.000 A 
ATOM     20  C   UNL     1       4.301   6.083  17.329  0.00  0.00    +0.000 A 
ATOM     21  O   UNL     1       6.197   7.594  17.287  0.00  0.00    +0.000 OA
ATOM     22  C   UNL     1       7.543   7.085  17.213  0.00  0.00    +0.000 C 
ATOM     23  O   UNL     1       7.663   6.073  16.190  0.00  0.00    +0.000 OA
ENDBRANCH  14  15
ENDBRANCH   3  14
TORSDOF 4
ENDMDL
