MODEL 1
REMARK VINA RESULT:      -8.5      0.000      0.000
REMARK  Name = 
REMARK  6 active torsions:
REMARK  status: ('A' for Active; 'I' for Inactive)
REMARK    1  A    between atoms: N_5  and  C_6
REMARK    2  A    between atoms: C_6  and  C_7
REMARK    3  A    between atoms: C_7  and  C_8
REMARK    4  A    between atoms: C_8  and  N_9
REMARK    5  A    between atoms: N_9  and  C_10
REMARK    6  A    between atoms: C_16  and  C_17
REMARK                            x       y       z     vdW  Elec       q    Type
REMARK                         _______ _______ _______ _____ _____    ______ ____
ROOT
ATOM      1  N   UNL     1       2.494   6.015  20.496  0.00  0.00    +0.000 N 
ATOM      2  H   UNL     1       3.385   5.627  20.207  0.00  0.00    +0.000 HD
ENDROOT
BRANCH   1   3
ATOM      3  C   UNL     1       2.214   7.223  19.814  0.00  0.00    +0.000 A 
ATOM      4  C   UNL     1       2.550   7.380  18.467  0.00  0.00    +0.000 A 
ATOM      5  C   UNL     1       2.192   8.541  17.810  0.00  0.00    +0.000 A 
ATOM      6  N   UNL     1       1.502   9.543  18.381  0.00  0.00    +0.000 NA
ATOM      7  C   UNL     1       1.132   9.400  19.659  0.00  0.00    +0.000 A 
ATOM      8  C   UNL     1       0.399  10.433  20.226  0.00  0.00    +0.000 A 
ATOM      9  C   UNL     1      -0.041  10.402  21.557  0.00  0.00    +0.000 A 
ATOM     10  C   UNL     1       0.269   9.285  22.332  0.00  0.00    +0.000 A 
ATOM     11  C   UNL     1       0.999   8.231  21.780  0.00  0.00    +0.000 A 
ATOM     12  C   UNL     1       1.450   8.258  20.435  0.00  0.00    +0.000 A 
BRANCH   9  13
ATOM     13  C   UNL     1      -0.828  11.542  22.150  0.00  0.00    +0.000 C 
ATOM     14  F   UNL     1      -1.962  11.846  21.461  0.00  0.00    +0.000 F 
ATOM     15  F   UNL     1      -1.223  11.289  23.428  0.00  0.00    +0.000 F 
ATOM     16  F   UNL     1      -0.104  12.695  22.205  0.00  0.00    +0.000 F 
ENDBRANCH   9  13
ENDBRANCH   1   3
BRANCH   1  17
ATOM     17  C   UNL     1       1.462   4.980  20.535  0.00  0.00    +0.000 C 
BRANCH  17  18
ATOM     18  C   UNL     1       1.771   3.918  19.480  0.00  0.00    +0.000 C 
BRANCH  18  19
ATOM     19  C   UNL     1       3.232   3.482  19.566  0.00  0.00    +0.000 C 
BRANCH  19  24
ATOM     20  O   UNL     1       4.800   4.199  15.001  0.00  0.00    +0.000 OA
ATOM     21  C   UNL     1       4.729   4.214  16.208  0.00  0.00    +0.000 C 
ATOM     22  C   UNL     1       3.612   3.606  17.095  0.00  0.00    +0.000 C 
ATOM     23  O   UNL     1       2.630   3.021  16.691  0.00  0.00    +0.000 OA
ATOM     24  N   UNL     1       3.992   3.880  18.402  0.00  0.00    +0.000 N 
ATOM     25  C   UNL     1       5.196   4.601  18.432  0.00  0.00    +0.000 A 
ATOM     26  C   UNL     1       5.897   5.071  19.527  0.00  0.00    +0.000 A 
ATOM     27  C   UNL     1       7.103   5.744  19.295  0.00  0.00    +0.000 A 
ATOM     28  C   UNL     1       7.588   5.939  17.987  0.00  0.00    +0.000 A 
ATOM     29  C   UNL     1       6.870   5.473  16.884  0.00  0.00    +0.000 A 
ATOM     30  C   UNL     1       5.683   4.813  17.142  0.00  0.00    +0.000 A 
ENDBRANCH  19  24
ENDBRANCH  18  19
ENDBRANCH  17  18
ENDBRANCH   1  17
TORSDOF 6
ENDMDL
MODEL 2
REMARK VINA RESULT:      -8.4      5.643      9.139
REMARK  Name = 
REMARK  6 active torsions:
REMARK  status: ('A' for Active; 'I' for Inactive)
REMARK    1  A    between atoms: N_5  and  C_6
REMARK    2  A    between atoms: C_6  and  C_7
REMARK    3  A    between atoms: C_7  and  C_8
REMARK    4  A    between atoms: C_8  and  N_9
REMARK    5  A    between atoms: N_9  and  C_10
REMARK    6  A    between atoms: C_16  and  C_17
REMARK                            x       y       z     vdW  Elec       q    Type
REMARK                         _______ _______ _______ _____ _____    ______ ____
ROOT
ATOM      1  N   UNL     1       1.913   7.625  19.622  0.00  0.00    +0.000 N 
ATOM      2  H   UNL     1       2.450   8.238  19.017  0.00  0.00    +0.000 HD
ENDROOT
BRANCH   1   3
ATOM      3  C   UNL     1       2.458   6.319  19.644  0.00  0.00    +0.000 A 
ATOM      4  C   UNL     1       1.969   5.354  20.528  0.00  0.00    +0.000 A 
ATOM      5  C   UNL     1       2.469   4.067  20.470  0.00  0.00    +0.000 A 
ATOM      6  N   UNL     1       3.394   3.661  19.583  0.00  0.00    +0.000 NA
ATOM      7  C   UNL     1       3.848   4.556  18.698  0.00  0.00    +0.000 A 
ATOM      8  C   UNL     1       4.785   4.115  17.774  0.00  0.00    +0.000 A 
ATOM      9  C   UNL     1       5.340   4.959  16.802  0.00  0.00    +0.000 A 
ATOM     10  C   UNL     1       4.925   6.290  16.766  0.00  0.00    +0.000 A 
ATOM     11  C   UNL     1       3.979   6.754  17.681  0.00  0.00    +0.000 A 
ATOM     12  C   UNL     1       3.417   5.906  18.669  0.00  0.00    +0.000 A 
BRANCH   9  13
ATOM     13  C   UNL     1       6.362   4.456  15.817  0.00  0.00    +0.000 C 
ATOM     14  F   UNL     1       6.053   3.248  15.271  0.00  0.00    +0.000 F 
ATOM     15  F   UNL     1       6.534   5.307  14.768  0.00  0.00    +0.000 F 
ATOM     16  F   UNL     1       7.593   4.307  16.381  0.00  0.00    +0.000 F 
ENDBRANCH   9  13
ENDBRANCH   1   3
BRANCH   1  17
ATOM     17  C   UNL     1       1.614   8.280  20.895  0.00  0.00    +0.000 C 
BRANCH  17  18
ATOM     18  C   UNL     1       0.295   9.041  20.775  0.00  0.00    +0.000 C 
BRANCH  18  19
ATOM     19  C   UNL     1       0.440  10.223  19.820  0.00  0.00    +0.000 C 
BRANCH  19  24
ATOM     20  O   UNL     1      -3.463  13.114  20.284  0.00  0.00    +0.000 OA
ATOM     21  C   UNL     1      -2.677  12.306  19.849  0.00  0.00    +0.000 C 
ATOM     22  C   UNL     1      -1.336  11.856  20.486  0.00  0.00    +0.000 C 
ATOM     23  O   UNL     1      -0.879  12.265  21.531  0.00  0.00    +0.000 OA
ATOM     24  N   UNL     1      -0.812  10.915  19.610  0.00  0.00    +0.000 N 
ATOM     25  C   UNL     1      -1.654  10.742  18.499  0.00  0.00    +0.000 A 
ATOM     26  C   UNL     1      -1.487   9.911  17.408  0.00  0.00    +0.000 A 
ATOM     27  C   UNL     1      -2.494   9.895  16.434  0.00  0.00    +0.000 A 
ATOM     28  C   UNL     1      -3.642  10.702  16.561  0.00  0.00    +0.000 A 
ATOM     29  C   UNL     1      -3.799  11.548  17.660  0.00  0.00    +0.000 A 
ATOM     30  C   UNL     1      -2.791  11.544  18.605  0.00  0.00    +0.000 A 
ENDBRANCH  19  24
ENDBRANCH  18  19
ENDBRANCH  17  18
ENDBRANCH   1  17
TORSDOF 6
ENDMDL
MODEL 3
REMARK VINA RESULT:      -8.4      5.314      8.906
REMARK  Name = 
REMARK  6 active torsions:
REMARK  status: ('A' for Active; 'I' for Inactive)
REMARK    1  A    between atoms: N_5  and  C_6
REMARK    2  A    between atoms: C_6  and  C_7
REMARK    3  A    between atoms: C_7  and  C_8
REMARK    4  A    between atoms: C_8  and  N_9
REMARK    5  A    between atoms: N_9  and  C_10
REMARK    6  A    between atoms: C_16  and  C_17
REMARK                            x       y       z     vdW  Elec       q    Type
REMARK                         _______ _______ _______ _____ _____    ______ ____
ROOT
ATOM      1  N   UNL     1       2.129   6.001  20.732  0.00  0.00    +0.000 N 
ATOM      2  H   UNL     1       1.544   5.781  21.532  0.00  0.00    +0.000 HD
ENDROOT
BRANCH   1   3
ATOM      3  C   UNL     1       2.179   4.920  19.820  0.00  0.00    +0.000 A 
ATOM      4  C   UNL     1       1.150   3.976  19.772  0.00  0.00    +0.000 A 
ATOM      5  C   UNL     1       1.190   2.979  18.817  0.00  0.00    +0.000 A 
ATOM      6  N   UNL     1       2.157   2.867  17.890  0.00  0.00    +0.000 NA
ATOM      7  C   UNL     1       3.131   3.784  17.887  0.00  0.00    +0.000 A 
ATOM      8  C   UNL     1       4.109   3.668  16.908  0.00  0.00    +0.000 A 
ATOM      9  C   UNL     1       5.182   4.563  16.807  0.00  0.00    +0.000 A 
ATOM     10  C   UNL     1       5.262   5.609  17.725  0.00  0.00    +0.000 A 
ATOM     11  C   UNL     1       4.287   5.749  18.714  0.00  0.00    +0.000 A 
ATOM     12  C   UNL     1       3.200   4.845  18.823  0.00  0.00    +0.000 A 
BRANCH   9  13
ATOM     13  C   UNL     1       6.234   4.409  15.739  0.00  0.00    +0.000 C 
ATOM     14  F   UNL     1       6.101   3.277  14.994  0.00  0.00    +0.000 F 
ATOM     15  F   UNL     1       6.229   5.443  14.853  0.00  0.00    +0.000 F 
ATOM     16  F   UNL     1       7.493   4.369  16.257  0.00  0.00    +0.000 F 
ENDBRANCH   9  13
ENDBRANCH   1   3
BRANCH   1  17
ATOM     17  C   UNL     1       1.829   7.336  20.218  0.00  0.00    +0.000 C 
BRANCH  17  18
ATOM     18  C   UNL     1       1.435   8.249  21.378  0.00  0.00    +0.000 C 
BRANCH  18  19
ATOM     19  C   UNL     1      -0.073   8.490  21.388  0.00  0.00    +0.000 C 
BRANCH  19  24
ATOM     20  O   UNL     1      -1.007  13.047  22.859  0.00  0.00    +0.000 OA
ATOM     21  C   UNL     1      -0.848  12.075  22.158  0.00  0.00    +0.000 C 
ATOM     22  C   UNL     1      -0.447  10.645  22.603  0.00  0.00    +0.000 C 
ATOM     23  O   UNL     1      -0.229  10.296  23.743  0.00  0.00    +0.000 OA
ATOM     24  N   UNL     1      -0.403   9.896  21.435  0.00  0.00    +0.000 N 
ATOM     25  C   UNL     1      -0.707  10.693  20.319  0.00  0.00    +0.000 A 
ATOM     26  C   UNL     1      -0.758  10.331  18.986  0.00  0.00    +0.000 A 
ATOM     27  C   UNL     1      -1.120  11.312  18.053  0.00  0.00    +0.000 A 
ATOM     28  C   UNL     1      -1.419  12.627  18.459  0.00  0.00    +0.000 A 
ATOM     29  C   UNL     1      -1.353  12.989  19.805  0.00  0.00    +0.000 A 
ATOM     30  C   UNL     1      -0.994  12.002  20.703  0.00  0.00    +0.000 A 
ENDBRANCH  19  24
ENDBRANCH  18  19
ENDBRANCH  17  18
ENDBRANCH   1  17
TORSDOF 6
ENDMDL
MODEL 4
REMARK VINA RESULT:      -8.3      4.927      8.865
REMARK  Name = 
REMARK  6 active torsions:
REMARK  status: ('A' for Active; 'I' for Inactive)
REMARK    1  A    between atoms: N_5  and  C_6
REMARK    2  A    between atoms: C_6  and  C_7
REMARK    3  A    between atoms: C_7  and  C_8
REMARK    4  A    between atoms: C_8  and  N_9
REMARK    5  A    between atoms: N_9  and  C_10
REMARK    6  A    between atoms: C_16  and  C_17
REMARK                            x       y       z     vdW  Elec       q    Type
REMARK                         _______ _______ _______ _____ _____    ______ ____
ROOT
ATOM      1  N   UNL     1       2.162   6.127  20.841  0.00  0.00    +0.000 N 
ATOM      2  H   UNL     1       1.650   5.899  21.688  0.00  0.00    +0.000 HD
ENDROOT
BRANCH   1   3
ATOM      3  C   UNL     1       2.184   5.032  19.944  0.00  0.00    +0.000 A 
ATOM      4  C   UNL     1       1.129   4.117  19.906  0.00  0.00    +0.000 A 
ATOM      5  C   UNL     1       1.144   3.105  18.965  0.00  0.00    +0.000 A 
ATOM      6  N   UNL     1       2.110   2.954  18.042  0.00  0.00    +0.000 NA
ATOM      7  C   UNL     1       3.109   3.843  18.031  0.00  0.00    +0.000 A 
ATOM      8  C   UNL     1       4.086   3.687  17.056  0.00  0.00    +0.000 A 
ATOM      9  C   UNL     1       5.185   4.550  16.946  0.00  0.00    +0.000 A 
ATOM     10  C   UNL     1       5.291   5.606  17.850  0.00  0.00    +0.000 A 
ATOM     11  C   UNL     1       4.317   5.787  18.834  0.00  0.00    +0.000 A 
ATOM     12  C   UNL     1       3.205   4.915  18.952  0.00  0.00    +0.000 A 
BRANCH   9  13
ATOM     13  C   UNL     1       6.235   4.352  15.885  0.00  0.00    +0.000 C 
ATOM     14  F   UNL     1       6.054   3.231  15.133  0.00  0.00    +0.000 F 
ATOM     15  F   UNL     1       6.283   5.389  15.003  0.00  0.00    +0.000 F 
ATOM     16  F   UNL     1       7.488   4.251  16.410  0.00  0.00    +0.000 F 
ENDBRANCH   9  13
ENDBRANCH   1   3
BRANCH   1  17
ATOM     17  C   UNL     1       1.769   7.440  20.332  0.00  0.00    +0.000 C 
BRANCH  17  18
ATOM     18  C   UNL     1       0.871   8.132  21.357  0.00  0.00    +0.000 C 
BRANCH  18  19
ATOM     19  C   UNL     1       1.261   9.600  21.511  0.00  0.00    +0.000 C 
BRANCH  19  24
ATOM     20  O   UNL     1      -1.196  12.335  18.303  0.00  0.00    +0.000 OA
ATOM     21  C   UNL     1      -0.854  11.795  19.329  0.00  0.00    +0.000 C 
ATOM     22  C   UNL     1       0.338  10.824  19.533  0.00  0.00    +0.000 C 
ATOM     23  O   UNL     1       1.109  10.462  18.670  0.00  0.00    +0.000 OA
ATOM     24  N   UNL     1       0.311  10.489  20.880  0.00  0.00    +0.000 N 
ATOM     25  C   UNL     1      -0.764  11.116  21.530  0.00  0.00    +0.000 A 
ATOM     26  C   UNL     1      -1.141  11.032  22.857  0.00  0.00    +0.000 A 
ATOM     27  C   UNL     1      -2.245  11.786  23.275  0.00  0.00    +0.000 A 
ATOM     28  C   UNL     1      -2.953  12.602  22.372  0.00  0.00    +0.000 A 
ATOM     29  C   UNL     1      -2.575  12.673  21.030  0.00  0.00    +0.000 A 
ATOM     30  C   UNL     1      -1.482  11.920  20.645  0.00  0.00    +0.000 A 
ENDBRANCH  19  24
ENDBRANCH  18  19
ENDBRANCH  17  18
ENDBRANCH   1  17
TORSDOF 6
ENDMDL
MODEL 5
REMARK VINA RESULT:      -8.3      5.500      8.984
REMARK  Name = 
REMARK  6 active torsions:
REMARK  status: ('A' for Active; 'I' for Inactive)
REMARK    1  A    between atoms: N_5  and  C_6
REMARK    2  A    between atoms: C_6  and  C_7
REMARK    3  A    between atoms: C_7  and  C_8
REMARK    4  A    between atoms: C_8  and  N_9
REMARK    5  A    between atoms: N_9  and  C_10
REMARK    6  A    between atoms: C_16  and  C_17
REMARK                            x       y       z     vdW  Elec       q    Type
REMARK                         _______ _______ _______ _____ _____    ______ ____
ROOT
ATOM      1  N   UNL     1       2.377   7.235  20.179  0.00  0.00    +0.000 N 
ATOM      2  H   UNL     1       3.184   7.538  20.715  0.00  0.00    +0.000 HD
ENDROOT
BRANCH   1   3
ATOM      3  C   UNL     1       2.530   5.902  19.729  0.00  0.00    +0.000 A 
ATOM      4  C   UNL     1       1.803   4.862  20.313  0.00  0.00    +0.000 A 
ATOM      5  C   UNL     1       1.917   3.584  19.798  0.00  0.00    +0.000 A 
ATOM      6  N   UNL     1       2.672   3.270  18.732  0.00  0.00    +0.000 NA
ATOM      7  C   UNL     1       3.345   4.257  18.129  0.00  0.00    +0.000 A 
ATOM      8  C   UNL     1       4.102   3.920  17.014  0.00  0.00    +0.000 A 
ATOM      9  C   UNL     1       4.854   4.864  16.302  0.00  0.00    +0.000 A 
ATOM     10  C   UNL     1       4.833   6.190  16.732  0.00  0.00    +0.000 A 
ATOM     11  C   UNL     1       4.074   6.553  17.846  0.00  0.00    +0.000 A 
ATOM     12  C   UNL     1       3.313   5.602  18.573  0.00  0.00    +0.000 A 
BRANCH   9  13
ATOM     13  C   UNL     1       5.673   4.469  15.101  0.00  0.00    +0.000 C 
ATOM     14  F   UNL     1       6.700   5.321  14.829  0.00  0.00    +0.000 F 
ATOM     15  F   UNL     1       6.236   3.236  15.239  0.00  0.00    +0.000 F 
ATOM     16  F   UNL     1       4.925   4.410  13.963  0.00  0.00    +0.000 F 
ENDBRANCH   9  13
ENDBRANCH   1   3
BRANCH   1  17
ATOM     17  C   UNL     1       1.134   7.607  20.854  0.00  0.00    +0.000 C 
BRANCH  17  18
ATOM     18  C   UNL     1       1.079   9.126  21.013  0.00  0.00    +0.000 C 
BRANCH  18  19
ATOM     19  C   UNL     1       0.869   9.802  19.661  0.00  0.00    +0.000 C 
BRANCH  19  24
ATOM     20  O   UNL     1      -2.665  12.997  20.714  0.00  0.00    +0.000 OA
ATOM     21  C   UNL     1      -2.014  12.147  20.153  0.00  0.00    +0.000 C 
ATOM     22  C   UNL     1      -0.656  11.548  20.604  0.00  0.00    +0.000 C 
ATOM     23  O   UNL     1      -0.045  11.859  21.604  0.00  0.00    +0.000 OA
ATOM     24  N   UNL     1      -0.329  10.612  19.633  0.00  0.00    +0.000 N 
ATOM     25  C   UNL     1      -1.306  10.573  18.625  0.00  0.00    +0.000 A 
ATOM     26  C   UNL     1      -1.345   9.790  17.487  0.00  0.00    +0.000 A 
ATOM     27  C   UNL     1      -2.456   9.915  16.642  0.00  0.00    +0.000 A 
ATOM     28  C   UNL     1      -3.500  10.812  16.940  0.00  0.00    +0.000 A 
ATOM     29  C   UNL     1      -3.449  11.609  18.085  0.00  0.00    +0.000 A 
ATOM     30  C   UNL     1      -2.342  11.465  18.900  0.00  0.00    +0.000 A 
ENDBRANCH  19  24
ENDBRANCH  18  19
ENDBRANCH  17  18
ENDBRANCH   1  17
TORSDOF 6
ENDMDL
MODEL 6
REMARK VINA RESULT:      -8.2      5.429      8.588
REMARK  Name = 
REMARK  6 active torsions:
REMARK  status: ('A' for Active; 'I' for Inactive)
REMARK    1  A    between atoms: N_5  and  C_6
REMARK    2  A    between atoms: C_6  and  C_7
REMARK    3  A    between atoms: C_7  and  C_8
REMARK    4  A    between atoms: C_8  and  N_9
REMARK    5  A    between atoms: N_9  and  C_10
REMARK    6  A    between atoms: C_16  and  C_17
REMARK                            x       y       z     vdW  Elec       q    Type
REMARK                         _______ _______ _______ _____ _____    ______ ____
ROOT
ATOM      1  N   UNL     1       4.570   4.368  18.564  0.00  0.00    +0.000 N 
ATOM      2  H   UNL     1       4.900   3.457  18.865  0.00  0.00    +0.000 HD
ENDROOT
BRANCH   1   3
ATOM      3  C   UNL     1       5.545   5.037  17.786  0.00  0.00    +0.000 A 
ATOM      4  C   UNL     1       6.420   5.957  18.370  0.00  0.00    +0.000 A 
ATOM      5  C   UNL     1       7.411   6.532  17.599  0.00  0.00    +0.000 A 
ATOM      6  N   UNL     1       7.617   6.241  16.303  0.00  0.00    +0.000 NA
ATOM      7  C   UNL     1       6.820   5.331  15.731  0.00  0.00    +0.000 A 
ATOM      8  C   UNL     1       7.062   5.024  14.399  0.00  0.00    +0.000 A 
ATOM      9  C   UNL     1       6.291   4.092  13.690  0.00  0.00    +0.000 A 
ATOM     10  C   UNL     1       5.248   3.451  14.355  0.00  0.00    +0.000 A 
ATOM     11  C   UNL     1       4.991   3.739  15.697  0.00  0.00    +0.000 A 
ATOM     12  C   UNL     1       5.765   4.683  16.419  0.00  0.00    +0.000 A 
BRANCH   9  13
ATOM     13  C   UNL     1       6.570   3.784  12.242  0.00  0.00    +0.000 C 
ATOM     14  F   UNL     1       5.456   3.748  11.461  0.00  0.00    +0.000 F 
ATOM     15  F   UNL     1       7.400   4.699  11.667  0.00  0.00    +0.000 F 
ATOM     16  F   UNL     1       7.179   2.576  12.079  0.00  0.00    +0.000 F 
ENDBRANCH   9  13
ENDBRANCH   1   3
BRANCH   1  17
ATOM     17  C   UNL     1       3.203   4.284  18.050  0.00  0.00    +0.000 C 
BRANCH  17  18
ATOM     18  C   UNL     1       2.242   4.905  19.062  0.00  0.00    +0.000 C 
BRANCH  18  19
ATOM     19  C   UNL     1       2.911   6.064  19.799  0.00  0.00    +0.000 C 
BRANCH  19  24
ATOM     20  O   UNL     1       1.926  10.159  17.336  0.00  0.00    +0.000 OA
ATOM     21  C   UNL     1       1.932   9.306  18.192  0.00  0.00    +0.000 C 
ATOM     22  C   UNL     1       2.711   7.965  18.184  0.00  0.00    +0.000 C 
ATOM     23  O   UNL     1       3.438   7.577  17.295  0.00  0.00    +0.000 OA
ATOM     24  N   UNL     1       2.392   7.348  19.386  0.00  0.00    +0.000 N 
ATOM     25  C   UNL     1       1.494   8.133  20.127  0.00  0.00    +0.000 A 
ATOM     26  C   UNL     1       0.929   7.869  21.361  0.00  0.00    +0.000 A 
ATOM     27  C   UNL     1       0.077   8.834  21.913  0.00  0.00    +0.000 A 
ATOM     28  C   UNL     1      -0.201  10.035  21.231  0.00  0.00    +0.000 A 
ATOM     29  C   UNL     1       0.362  10.290  19.979  0.00  0.00    +0.000 A 
ATOM     30  C   UNL     1       1.199   9.321  19.459  0.00  0.00    +0.000 A 
ENDBRANCH  19  24
ENDBRANCH  18  19
ENDBRANCH  17  18
ENDBRANCH   1  17
TORSDOF 6
ENDMDL
MODEL 7
REMARK VINA RESULT:      -8.2      4.795      8.525
REMARK  Name = 
REMARK  6 active torsions:
REMARK  status: ('A' for Active; 'I' for Inactive)
REMARK    1  A    between atoms: N_5  and  C_6
REMARK    2  A    between atoms: C_6  and  C_7
REMARK    3  A    between atoms: C_7  and  C_8
REMARK    4  A    between atoms: C_8  and  N_9
REMARK    5  A    between atoms: N_9  and  C_10
REMARK    6  A    between atoms: C_16  and  C_17
REMARK                            x       y       z     vdW  Elec       q    Type
REMARK                         _______ _______ _______ _____ _____    ______ ____
ROOT
ATOM      1  N   UNL     1       2.050   7.559  20.189  0.00  0.00    +0.000 N 
ATOM      2  H   UNL     1       2.867   8.117  20.419  0.00  0.00    +0.000 HD
ENDROOT
BRANCH   1   3
ATOM      3  C   UNL     1       2.405   6.216  19.920  0.00  0.00    +0.000 A 
ATOM      4  C   UNL     1       1.844   5.167  20.652  0.00  0.00    +0.000 A 
ATOM      5  C   UNL     1       2.151   3.863  20.312  0.00  0.00    +0.000 A 
ATOM      6  N   UNL     1       2.947   3.524  19.284  0.00  0.00    +0.000 NA
ATOM      7  C   UNL     1       3.463   4.510  18.540  0.00  0.00    +0.000 A 
ATOM      8  C   UNL     1       4.264   4.142  17.468  0.00  0.00    +0.000 A 
ATOM      9  C   UNL     1       4.866   5.083  16.620  0.00  0.00    +0.000 A 
ATOM     10  C   UNL     1       4.643   6.436  16.868  0.00  0.00    +0.000 A 
ATOM     11  C   UNL     1       3.836   6.829  17.937  0.00  0.00    +0.000 A 
ATOM     12  C   UNL     1       3.227   5.883  18.800  0.00  0.00    +0.000 A 
BRANCH   9  13
ATOM     13  C   UNL     1       5.737   4.656  15.468  0.00  0.00    +0.000 C 
ATOM     14  F   UNL     1       6.953   5.269  15.439  0.00  0.00    +0.000 F 
ATOM     15  F   UNL     1       5.993   3.318  15.479  0.00  0.00    +0.000 F 
ATOM     16  F   UNL     1       5.160   4.913  14.261  0.00  0.00    +0.000 F 
ENDBRANCH   9  13
ENDBRANCH   1   3
BRANCH   1  17
ATOM     17  C   UNL     1       0.959   7.820  21.127  0.00  0.00    +0.000 C 
BRANCH  17  18
ATOM     18  C   UNL     1       1.034   9.271  21.599  0.00  0.00    +0.000 C 
BRANCH  18  19
ATOM     19  C   UNL     1       1.331  10.205  20.428  0.00  0.00    +0.000 C 
BRANCH  19  24
ATOM     20  O   UNL     1      -1.848  10.107  16.728  0.00  0.00    +0.000 OA
ATOM     21  C   UNL     1      -1.333  10.346  17.796  0.00  0.00    +0.000 C 
ATOM     22  C   UNL     1       0.045   9.855  18.311  0.00  0.00    +0.000 C 
ATOM     23  O   UNL     1       0.814   9.144  17.700  0.00  0.00    +0.000 OA
ATOM     24  N   UNL     1       0.178  10.403  19.579  0.00  0.00    +0.000 N 
ATOM     25  C   UNL     1      -0.957  11.156  19.921  0.00  0.00    +0.000 A 
ATOM     26  C   UNL     1      -1.218  11.846  21.089  0.00  0.00    +0.000 A 
ATOM     27  C   UNL     1      -2.423  12.554  21.178  0.00  0.00    +0.000 A 
ATOM     28  C   UNL     1      -3.344  12.561  20.112  0.00  0.00    +0.000 A 
ATOM     29  C   UNL     1      -3.080  11.852  18.939  0.00  0.00    +0.000 A 
ATOM     30  C   UNL     1      -1.884  11.162  18.879  0.00  0.00    +0.000 A 
ENDBRANCH  19  24
ENDBRANCH  18  19
ENDBRANCH  17  18
ENDBRANCH   1  17
TORSDOF 6
ENDMDL
MODEL 8
REMARK VINA RESULT:      -8.1      3.336      5.036
REMARK  Name = 
REMARK  6 active torsions:
REMARK  status: ('A' for Active; 'I' for Inactive)
REMARK    1  A    between atoms: N_5  and  C_6
REMARK    2  A    between atoms: C_6  and  C_7
REMARK    3  A    between atoms: C_7  and  C_8
REMARK    4  A    between atoms: C_8  and  N_9
REMARK    5  A    between atoms: N_9  and  C_10
REMARK    6  A    between atoms: C_16  and  C_17
REMARK                            x       y       z     vdW  Elec       q    Type
REMARK                         _______ _______ _______ _____ _____    ______ ____
ROOT
ATOM      1  N   UNL     1       0.348   9.761  17.888  0.00  0.00    +0.000 N 
ATOM      2  H   UNL     1      -0.169   8.900  17.745  0.00  0.00    +0.000 HD
ENDROOT
BRANCH   1   3
ATOM      3  C   UNL     1      -0.377  10.667  18.698  0.00  0.00    +0.000 A 
ATOM      4  C   UNL     1       0.279  11.489  19.618  0.00  0.00    +0.000 A 
ATOM      5  C   UNL     1      -0.449  12.417  20.336  0.00  0.00    +0.000 A 
ATOM      6  N   UNL     1      -1.771  12.611  20.189  0.00  0.00    +0.000 NA
ATOM      7  C   UNL     1      -2.415  11.866  19.283  0.00  0.00    +0.000 A 
ATOM      8  C   UNL     1      -3.775  12.095  19.125  0.00  0.00    +0.000 A 
ATOM      9  C   UNL     1      -4.560  11.375  18.214  0.00  0.00    +0.000 A 
ATOM     10  C   UNL     1      -3.942  10.396  17.436  0.00  0.00    +0.000 A 
ATOM     11  C   UNL     1      -2.574  10.153  17.573  0.00  0.00    +0.000 A 
ATOM     12  C   UNL     1      -1.776  10.877  18.496  0.00  0.00    +0.000 A 
BRANCH   9  13
ATOM     13  C   UNL     1      -6.036  11.639  18.069  0.00  0.00    +0.000 C 
ATOM     14  F   UNL     1      -6.806  10.518  18.141  0.00  0.00    +0.000 F 
ATOM     15  F   UNL     1      -6.509  12.480  19.031  0.00  0.00    +0.000 F 
ATOM     16  F   UNL     1      -6.341  12.226  16.878  0.00  0.00    +0.000 F 
ENDBRANCH   9  13
ENDBRANCH   1   3
BRANCH   1  17
ATOM     17  C   UNL     1       1.742   9.481  18.228  0.00  0.00    +0.000 C 
BRANCH  17  18
ATOM     18  C   UNL     1       2.155   8.146  17.612  0.00  0.00    +0.000 C 
BRANCH  18  19
ATOM     19  C   UNL     1       2.801   7.245  18.662  0.00  0.00    +0.000 C 
BRANCH  19  24
ATOM     20  O   UNL     1       5.108   3.711  16.213  0.00  0.00    +0.000 OA
ATOM     21  C   UNL     1       4.329   4.290  16.932  0.00  0.00    +0.000 C 
ATOM     22  C   UNL     1       4.286   5.808  17.250  0.00  0.00    +0.000 C 
ATOM     23  O   UNL     1       5.049   6.642  16.812  0.00  0.00    +0.000 OA
ATOM     24  N   UNL     1       3.212   5.971  18.114  0.00  0.00    +0.000 N 
ATOM     25  C   UNL     1       2.597   4.739  18.387  0.00  0.00    +0.000 A 
ATOM     26  C   UNL     1       1.513   4.474  19.201  0.00  0.00    +0.000 A 
ATOM     27  C   UNL     1       1.063   3.150  19.287  0.00  0.00    +0.000 A 
ATOM     28  C   UNL     1       1.698   2.118  18.568  0.00  0.00    +0.000 A 
ATOM     29  C   UNL     1       2.801   2.390  17.757  0.00  0.00    +0.000 A 
ATOM     30  C   UNL     1       3.222   3.704  17.691  0.00  0.00    +0.000 A 
ENDBRANCH  19  24
ENDBRANCH  18  19
ENDBRANCH  17  18
ENDBRANCH   1  17
TORSDOF 6
ENDMDL
MODEL 9
REMARK VINA RESULT:      -8.1      5.444      9.066
REMARK  Name = 
REMARK  6 active torsions:
REMARK  status: ('A' for Active; 'I' for Inactive)
REMARK    1  A    between atoms: N_5  and  C_6
REMARK    2  A    between atoms: C_6  and  C_7
REMARK    3  A    between atoms: C_7  and  C_8
REMARK    4  A    between atoms: C_8  and  N_9
REMARK    5  A    between atoms: N_9  and  C_10
REMARK    6  A    between atoms: C_16  and  C_17
REMARK                            x       y       z     vdW  Elec       q    Type
REMARK                         _______ _______ _______ _____ _____    ______ ____
ROOT
ATOM      1  N   UNL     1       2.954   6.747  20.016  0.00  0.00    +0.000 N 
ATOM      2  H   UNL     1       3.233   6.628  20.985  0.00  0.00    +0.000 HD
ENDROOT
BRANCH   1   3
ATOM      3  C   UNL     1       2.893   5.503  19.344  0.00  0.00    +0.000 A 
ATOM      4  C   UNL     1       1.989   4.516  19.745  0.00  0.00    +0.000 A 
ATOM      5  C   UNL     1       1.900   3.344  19.019  0.00  0.00    +0.000 A 
ATOM      6  N   UNL     1       2.616   3.092  17.910  0.00  0.00    +0.000 NA
ATOM      7  C   UNL     1       3.458   4.040  17.480  0.00  0.00    +0.000 A 
ATOM      8  C   UNL     1       4.173   3.774  16.320  0.00  0.00    +0.000 A 
ATOM      9  C   UNL     1       5.089   4.684  15.775  0.00  0.00    +0.000 A 
ATOM     10  C   UNL     1       5.280   5.902  16.426  0.00  0.00    +0.000 A 
ATOM     11  C   UNL     1       4.567   6.194  17.590  0.00  0.00    +0.000 A 
ATOM     12  C   UNL     1       3.641   5.276  18.148  0.00  0.00    +0.000 A 
BRANCH   9  13
ATOM     13  C   UNL     1       5.858   4.366  14.519  0.00  0.00    +0.000 C 
ATOM     14  F   UNL     1       6.797   5.298  14.197  0.00  0.00    +0.000 F 
ATOM     15  F   UNL     1       6.521   3.179  14.604  0.00  0.00    +0.000 F 
ATOM     16  F   UNL     1       5.046   4.262  13.430  0.00  0.00    +0.000 F 
ENDBRANCH   9  13
ENDBRANCH   1   3
BRANCH   1  17
ATOM     17  C   UNL     1       1.814   7.656  19.909  0.00  0.00    +0.000 C 
BRANCH  17  18
ATOM     18  C   UNL     1       1.418   8.137  21.304  0.00  0.00    +0.000 C 
BRANCH  18  19
ATOM     19  C   UNL     1      -0.085   8.392  21.379  0.00  0.00    +0.000 C 
BRANCH  19  24
ATOM     20  O   UNL     1      -0.922  12.852  23.173  0.00  0.00    +0.000 OA
ATOM     21  C   UNL     1      -0.795  11.928  22.405  0.00  0.00    +0.000 C 
ATOM     22  C   UNL     1      -0.400  10.466  22.744  0.00  0.00    +0.000 C 
ATOM     23  O   UNL     1      -0.157  10.040  23.853  0.00  0.00    +0.000 OA
ATOM     24  N   UNL     1      -0.396   9.796  21.528  0.00  0.00    +0.000 N 
ATOM     25  C   UNL     1      -0.719  10.668  20.476  0.00  0.00    +0.000 A 
ATOM     26  C   UNL     1      -0.810  10.396  19.124  0.00  0.00    +0.000 A 
ATOM     27  C   UNL     1      -1.184  11.440  18.268  0.00  0.00    +0.000 A 
ATOM     28  C   UNL     1      -1.455  12.729  18.767  0.00  0.00    +0.000 A 
ATOM     29  C   UNL     1      -1.349  13.000  20.132  0.00  0.00    +0.000 A 
ATOM     30  C   UNL     1      -0.980  11.952  20.953  0.00  0.00    +0.000 A 
ENDBRANCH  19  24
ENDBRANCH  18  19
ENDBRANCH  17  18
ENDBRANCH   1  17
TORSDOF 6
ENDMDL
