MODEL 1
REMARK VINA RESULT:      -7.7      0.000      0.000
REMARK  Name = 
REMARK  4 active torsions:
REMARK  status: ('A' for Active; 'I' for Inactive)
REMARK    1  A    between atoms: C_1  and  N_2
REMARK    2  A    between atoms: N_2  and  C_3
REMARK    3  A    between atoms: C_8  and  C_9
REMARK    4  A    between atoms: N_11  and  C_12
REMARK                            x       y       z     vdW  Elec       q    Type
REMARK                         _______ _______ _______ _____ _____    ______ ____
ROOT
ATOM      1  C   UNL     1       5.227   4.291  17.588  0.00  0.00    +0.000 A 
ATOM      2  C   UNL     1       5.878   5.257  18.340  0.00  0.00    +0.000 A 
ATOM      3  N   UNL     1       6.800   5.871  17.535  0.00  0.00    +0.000 N 
ATOM      4  C   UNL     1       7.674   6.951  17.924  0.00  0.00    +0.000 C 
ATOM      5  C   UNL     1       6.762   5.327  16.278  0.00  0.00    +0.000 A 
ATOM      6  N   UNL     1       7.540   5.716  15.246  0.00  0.00    +0.000 NA
ATOM      7  C   UNL     1       7.292   5.027  14.110  0.00  0.00    +0.000 A 
ATOM      8  C   UNL     1       6.357   4.014  13.965  0.00  0.00    +0.000 A 
ATOM      9  C   UNL     1       5.584   3.644  15.063  0.00  0.00    +0.000 A 
ATOM     10  C   UNL     1       5.789   4.334  16.272  0.00  0.00    +0.000 A 
ENDROOT
BRANCH   1  18
ATOM     11  C   UNL     1       1.258   2.941  21.694  0.00  0.00    +0.000 C 
ATOM     12  N   UNL     1       1.683   3.870  20.668  0.00  0.00    +0.000 N 
ATOM     13  C   UNL     1       1.982   5.244  21.022  0.00  0.00    +0.000 C 
ATOM     14  C   UNL     1       2.439   3.307  19.646  0.00  0.00    +0.000 A 
ATOM     15  N   UNL     1       2.210   2.025  19.304  0.00  0.00    +0.000 NA
ATOM     16  C   UNL     1       2.953   1.499  18.314  0.00  0.00    +0.000 A 
ATOM     17  C   UNL     1       3.949   2.187  17.674  0.00  0.00    +0.000 A 
ATOM     18  C   UNL     1       4.136   3.481  18.102  0.00  0.00    +0.000 A 
ATOM     19  N   UNL     1       3.375   4.054  19.052  0.00  0.00    +0.000 NA
ENDBRANCH   1  18
TORSDOF 1
ENDMDL
MODEL 2
REMARK VINA RESULT:      -7.2      3.625      6.098
REMARK  Name = 
REMARK  4 active torsions:
REMARK  status: ('A' for Active; 'I' for Inactive)
REMARK    1  A    between atoms: C_1  and  N_2
REMARK    2  A    between atoms: N_2  and  C_3
REMARK    3  A    between atoms: C_8  and  C_9
REMARK    4  A    between atoms: N_11  and  C_12
REMARK                            x       y       z     vdW  Elec       q    Type
REMARK                         _______ _______ _______ _____ _____    ______ ____
ROOT
ATOM      1  C   UNL     1       2.877   6.386  19.198  0.00  0.00    +0.000 A 
ATOM      2  C   UNL     1       4.126   6.109  18.663  0.00  0.00    +0.000 A 
ATOM      3  N   UNL     1       4.404   4.789  18.897  0.00  0.00    +0.000 N 
ATOM      4  C   UNL     1       5.597   4.092  18.483  0.00  0.00    +0.000 C 
ATOM      5  C   UNL     1       3.365   4.202  19.570  0.00  0.00    +0.000 A 
ATOM      6  N   UNL     1       3.322   2.907  19.944  0.00  0.00    +0.000 NA
ATOM      7  C   UNL     1       2.176   2.579  20.581  0.00  0.00    +0.000 A 
ATOM      8  C   UNL     1       1.126   3.443  20.855  0.00  0.00    +0.000 A 
ATOM      9  C   UNL     1       1.222   4.774  20.454  0.00  0.00    +0.000 A 
ATOM     10  C   UNL     1       2.390   5.172  19.776  0.00  0.00    +0.000 A 
ENDROOT
BRANCH   1  18
ATOM     11  C   UNL     1      -0.671  10.612  21.194  0.00  0.00    +0.000 C 
ATOM     12  N   UNL     1       0.586   9.908  21.337  0.00  0.00    +0.000 N 
ATOM     13  C   UNL     1       0.874   9.194  22.565  0.00  0.00    +0.000 C 
ATOM     14  C   UNL     1       1.084   9.359  20.161  0.00  0.00    +0.000 A 
ATOM     15  N   UNL     1       0.817   9.978  18.994  0.00  0.00    +0.000 NA
ATOM     16  C   UNL     1       1.308   9.430  17.868  0.00  0.00    +0.000 A 
ATOM     17  C   UNL     1       2.023   8.263  17.849  0.00  0.00    +0.000 A 
ATOM     18  C   UNL     1       2.229   7.681  19.079  0.00  0.00    +0.000 A 
ATOM     19  N   UNL     1       1.799   8.231  20.229  0.00  0.00    +0.000 NA
ENDBRANCH   1  18
TORSDOF 1
ENDMDL
MODEL 3
REMARK VINA RESULT:      -7.0      3.603      5.839
REMARK  Name = 
REMARK  4 active torsions:
REMARK  status: ('A' for Active; 'I' for Inactive)
REMARK    1  A    between atoms: C_1  and  N_2
REMARK    2  A    between atoms: N_2  and  C_3
REMARK    3  A    between atoms: C_8  and  C_9
REMARK    4  A    between atoms: N_11  and  C_12
REMARK                            x       y       z     vdW  Elec       q    Type
REMARK                         _______ _______ _______ _____ _____    ______ ____
ROOT
ATOM      1  C   UNL     1       2.255   6.059  19.582  0.00  0.00    +0.000 A 
ATOM      2  C   UNL     1       1.901   5.391  20.744  0.00  0.00    +0.000 A 
ATOM      3  N   UNL     1       2.337   4.097  20.639  0.00  0.00    +0.000 N 
ATOM      4  C   UNL     1       2.189   3.073  21.644  0.00  0.00    +0.000 C 
ATOM      5  C   UNL     1       2.966   3.909  19.437  0.00  0.00    +0.000 A 
ATOM      6  N   UNL     1       3.517   2.748  19.028  0.00  0.00    +0.000 NA
ATOM      7  C   UNL     1       4.089   2.837  17.806  0.00  0.00    +0.000 A 
ATOM      8  C   UNL     1       4.127   3.971  17.010  0.00  0.00    +0.000 A 
ATOM      9  C   UNL     1       3.537   5.144  17.475  0.00  0.00    +0.000 A 
ATOM     10  C   UNL     1       2.934   5.116  18.747  0.00  0.00    +0.000 A 
ENDROOT
BRANCH   1  18
ATOM     11  C   UNL     1      -0.379  11.125  20.936  0.00  0.00    +0.000 C 
ATOM     12  N   UNL     1       0.595  10.120  21.308  0.00  0.00    +0.000 N 
ATOM     13  C   UNL     1       0.436   9.392  22.552  0.00  0.00    +0.000 C 
ATOM     14  C   UNL     1       1.153   9.425  20.242  0.00  0.00    +0.000 A 
ATOM     15  N   UNL     1       1.295  10.058  19.061  0.00  0.00    +0.000 NA
ATOM     16  C   UNL     1       1.837   9.367  18.041  0.00  0.00    +0.000 A 
ATOM     17  C   UNL     1       2.209   8.053  18.137  0.00  0.00    +0.000 A 
ATOM     18  C   UNL     1       2.007   7.475  19.369  0.00  0.00    +0.000 A 
ATOM     19  N   UNL     1       1.517   8.152  20.424  0.00  0.00    +0.000 NA
ENDBRANCH   1  18
TORSDOF 1
ENDMDL
MODEL 4
REMARK VINA RESULT:      -6.8      3.821      5.540
REMARK  Name = 
REMARK  4 active torsions:
REMARK  status: ('A' for Active; 'I' for Inactive)
REMARK    1  A    between atoms: C_1  and  N_2
REMARK    2  A    between atoms: N_2  and  C_3
REMARK    3  A    between atoms: C_8  and  C_9
REMARK    4  A    between atoms: N_11  and  C_12
REMARK                            x       y       z     vdW  Elec       q    Type
REMARK                         _______ _______ _______ _____ _____    ______ ____
ROOT
ATOM      1  C   UNL     1       2.635   6.622  19.006  0.00  0.00    +0.000 A 
ATOM      2  C   UNL     1       2.248   5.640  19.905  0.00  0.00    +0.000 A 
ATOM      3  N   UNL     1       3.005   4.524  19.667  0.00  0.00    +0.000 N 
ATOM      4  C   UNL     1       2.932   3.283  20.399  0.00  0.00    +0.000 C 
ATOM      5  C   UNL     1       3.876   4.759  18.636  0.00  0.00    +0.000 A 
ATOM      6  N   UNL     1       4.768   3.865  18.161  0.00  0.00    +0.000 NA
ATOM      7  C   UNL     1       5.518   4.355  17.149  0.00  0.00    +0.000 A 
ATOM      8  C   UNL     1       5.421   5.629  16.611  0.00  0.00    +0.000 A 
ATOM      9  C   UNL     1       4.478   6.513  17.132  0.00  0.00    +0.000 A 
ATOM     10  C   UNL     1       3.674   6.063  18.196  0.00  0.00    +0.000 A 
ENDROOT
BRANCH   1  18
ATOM     11  C   UNL     1      -0.647  10.880  21.357  0.00  0.00    +0.000 C 
ATOM     12  N   UNL     1       0.553  10.074  21.449  0.00  0.00    +0.000 N 
ATOM     13  C   UNL     1       0.759   9.223  22.604  0.00  0.00    +0.000 C 
ATOM     14  C   UNL     1       1.038   9.609  20.233  0.00  0.00    +0.000 A 
ATOM     15  N   UNL     1       0.845  10.359  19.130  0.00  0.00    +0.000 NA
ATOM     16  C   UNL     1       1.322   9.890  17.963  0.00  0.00    +0.000 A 
ATOM     17  C   UNL     1       1.952   8.681  17.839  0.00  0.00    +0.000 A 
ATOM     18  C   UNL     1       2.085   7.967  19.007  0.00  0.00    +0.000 A 
ATOM     19  N   UNL     1       1.667   8.430  20.200  0.00  0.00    +0.000 NA
ENDBRANCH   1  18
TORSDOF 1
ENDMDL
MODEL 5
REMARK VINA RESULT:      -6.8      1.148      2.272
REMARK  Name = 
REMARK  4 active torsions:
REMARK  status: ('A' for Active; 'I' for Inactive)
REMARK    1  A    between atoms: C_1  and  N_2
REMARK    2  A    between atoms: N_2  and  C_3
REMARK    3  A    between atoms: C_8  and  C_9
REMARK    4  A    between atoms: N_11  and  C_12
REMARK                            x       y       z     vdW  Elec       q    Type
REMARK                         _______ _______ _______ _____ _____    ______ ____
ROOT
ATOM      1  C   UNL     1       5.086   5.689  17.987  0.00  0.00    +0.000 A 
ATOM      2  C   UNL     1       5.914   6.737  18.360  0.00  0.00    +0.000 A 
ATOM      3  N   UNL     1       6.899   6.856  17.416  0.00  0.00    +0.000 N 
ATOM      4  C   UNL     1       7.954   7.840  17.417  0.00  0.00    +0.000 C 
ATOM      5  C   UNL     1       6.729   5.911  16.439  0.00  0.00    +0.000 A 
ATOM      6  N   UNL     1       7.526   5.765  15.360  0.00  0.00    +0.000 NA
ATOM      7  C   UNL     1       7.129   4.766  14.541  0.00  0.00    +0.000 A 
ATOM      8  C   UNL     1       6.032   3.942  14.742  0.00  0.00    +0.000 A 
ATOM      9  C   UNL     1       5.245   4.127  15.877  0.00  0.00    +0.000 A 
ATOM     10  C   UNL     1       5.603   5.161  16.762  0.00  0.00    +0.000 A 
ENDROOT
BRANCH   1  18
ATOM     11  C   UNL     1       0.592   2.084  19.098  0.00  0.00    +0.000 C 
ATOM     12  N   UNL     1       2.021   2.304  19.161  0.00  0.00    +0.000 N 
ATOM     13  C   UNL     1       2.918   1.410  18.455  0.00  0.00    +0.000 C 
ATOM     14  C   UNL     1       2.403   3.638  19.242  0.00  0.00    +0.000 A 
ATOM     15  N   UNL     1       1.586   4.508  19.868  0.00  0.00    +0.000 NA
ATOM     16  C   UNL     1       1.973   5.794  19.935  0.00  0.00    +0.000 A 
ATOM     17  C   UNL     1       3.128   6.262  19.368  0.00  0.00    +0.000 A 
ATOM     18  C   UNL     1       3.892   5.315  18.726  0.00  0.00    +0.000 A 
ATOM     19  N   UNL     1       3.560   4.012  18.686  0.00  0.00    +0.000 NA
ENDBRANCH   1  18
TORSDOF 1
ENDMDL
MODEL 6
REMARK VINA RESULT:      -6.6      0.728      2.385
REMARK  Name = 
REMARK  4 active torsions:
REMARK  status: ('A' for Active; 'I' for Inactive)
REMARK    1  A    between atoms: C_1  and  N_2
REMARK    2  A    between atoms: N_2  and  C_3
REMARK    3  A    between atoms: C_8  and  C_9
REMARK    4  A    between atoms: N_11  and  C_12
REMARK                            x       y       z     vdW  Elec       q    Type
REMARK                         _______ _______ _______ _____ _____    ______ ____
ROOT
ATOM      1  C   UNL     1       4.843   4.095  17.186  0.00  0.00    +0.000 A 
ATOM      2  C   UNL     1       5.032   4.041  15.813  0.00  0.00    +0.000 A 
ATOM      3  N   UNL     1       6.087   4.855  15.498  0.00  0.00    +0.000 N 
ATOM      4  C   UNL     1       6.624   5.066  14.175  0.00  0.00    +0.000 C 
ATOM      5  C   UNL     1       6.588   5.435  16.633  0.00  0.00    +0.000 A 
ATOM      6  N   UNL     1       7.636   6.284  16.667  0.00  0.00    +0.000 NA
ATOM      7  C   UNL     1       7.938   6.700  17.917  0.00  0.00    +0.000 A 
ATOM      8  C   UNL     1       7.272   6.332  19.076  0.00  0.00    +0.000 A 
ATOM      9  C   UNL     1       6.190   5.459  18.987  0.00  0.00    +0.000 A 
ATOM     10  C   UNL     1       5.835   4.983  17.711  0.00  0.00    +0.000 A 
ENDROOT
BRANCH   1  18
ATOM     11  C   UNL     1       1.319   3.061  21.762  0.00  0.00    +0.000 C 
ATOM     12  N   UNL     1       1.603   3.882  20.604  0.00  0.00    +0.000 N 
ATOM     13  C   UNL     1       1.856   5.299  20.773  0.00  0.00    +0.000 C 
ATOM     14  C   UNL     1       2.299   3.238  19.588  0.00  0.00    +0.000 A 
ATOM     15  N   UNL     1       2.110   1.915  19.414  0.00  0.00    +0.000 NA
ATOM     16  C   UNL     1       2.794   1.310  18.425  0.00  0.00    +0.000 A 
ATOM     17  C   UNL     1       3.692   1.962  17.624  0.00  0.00    +0.000 A 
ATOM     18  C   UNL     1       3.845   3.304  17.885  0.00  0.00    +0.000 A 
ATOM     19  N   UNL     1       3.138   3.951  18.830  0.00  0.00    +0.000 NA
ENDBRANCH   1  18
TORSDOF 1
ENDMDL
MODEL 7
REMARK VINA RESULT:      -6.5      4.450      7.327
REMARK  Name = 
REMARK  4 active torsions:
REMARK  status: ('A' for Active; 'I' for Inactive)
REMARK    1  A    between atoms: C_1  and  N_2
REMARK    2  A    between atoms: N_2  and  C_3
REMARK    3  A    between atoms: C_8  and  C_9
REMARK    4  A    between atoms: N_11  and  C_12
REMARK                            x       y       z     vdW  Elec       q    Type
REMARK                         _______ _______ _______ _____ _____    ______ ____
ROOT
ATOM      1  C   UNL     1       1.444   8.452  20.071  0.00  0.00    +0.000 A 
ATOM      2  C   UNL     1       1.340   8.340  21.449  0.00  0.00    +0.000 A 
ATOM      3  N   UNL     1       0.472   9.303  21.888  0.00  0.00    +0.000 N 
ATOM      4  C   UNL     1       0.070   9.515  23.258  0.00  0.00    +0.000 C 
ATOM      5  C   UNL     1       0.008  10.037  20.828  0.00  0.00    +0.000 A 
ATOM      6  N   UNL     1      -0.870  11.057  20.921  0.00  0.00    +0.000 NA
ATOM      7  C   UNL     1      -1.174  11.603  19.723  0.00  0.00    +0.000 A 
ATOM      8  C   UNL     1      -0.662  11.203  18.498  0.00  0.00    +0.000 A 
ATOM      9  C   UNL     1       0.248  10.149  18.455  0.00  0.00    +0.000 A 
ATOM     10  C   UNL     1       0.595   9.533  19.673  0.00  0.00    +0.000 A 
ENDROOT
BRANCH   1  18
ATOM     11  C   UNL     1       4.601   3.563  19.319  0.00  0.00    +0.000 C 
ATOM     12  N   UNL     1       3.295   4.149  19.540  0.00  0.00    +0.000 N 
ATOM     13  C   UNL     1       2.548   3.807  20.734  0.00  0.00    +0.000 C 
ATOM     14  C   UNL     1       3.146   5.443  19.056  0.00  0.00    +0.000 A 
ATOM     15  N   UNL     1       3.843   5.809  17.963  0.00  0.00    +0.000 NA
ATOM     16  C   UNL     1       3.686   7.067  17.512  0.00  0.00    +0.000 A 
ATOM     17  C   UNL     1       2.890   7.994  18.130  0.00  0.00    +0.000 A 
ATOM     18  C   UNL     1       2.235   7.547  19.255  0.00  0.00    +0.000 A 
ATOM     19  N   UNL     1       2.328   6.281  19.701  0.00  0.00    +0.000 NA
ENDBRANCH   1  18
TORSDOF 1
ENDMDL
MODEL 8
REMARK VINA RESULT:      -6.5      1.319      6.143
REMARK  Name = 
REMARK  4 active torsions:
REMARK  status: ('A' for Active; 'I' for Inactive)
REMARK    1  A    between atoms: C_1  and  N_2
REMARK    2  A    between atoms: N_2  and  C_3
REMARK    3  A    between atoms: C_8  and  C_9
REMARK    4  A    between atoms: N_11  and  C_12
REMARK                            x       y       z     vdW  Elec       q    Type
REMARK                         _______ _______ _______ _____ _____    ______ ____
ROOT
ATOM      1  C   UNL     1       4.075   5.256  18.299  0.00  0.00    +0.000 A 
ATOM      2  C   UNL     1       3.412   6.113  19.164  0.00  0.00    +0.000 A 
ATOM      3  N   UNL     1       2.434   5.398  19.803  0.00  0.00    +0.000 N 
ATOM      4  C   UNL     1       1.529   5.911  20.802  0.00  0.00    +0.000 C 
ATOM      5  C   UNL     1       2.448   4.097  19.374  0.00  0.00    +0.000 A 
ATOM      6  N   UNL     1       1.617   3.130  19.815  0.00  0.00    +0.000 NA
ATOM      7  C   UNL     1       1.851   1.930  19.241  0.00  0.00    +0.000 A 
ATOM      8  C   UNL     1       2.824   1.663  18.289  0.00  0.00    +0.000 A 
ATOM      9  C   UNL     1       3.653   2.697  17.861  0.00  0.00    +0.000 A 
ATOM     10  C   UNL     1       3.463   3.970  18.431  0.00  0.00    +0.000 A 
ENDROOT
BRANCH   1  18
ATOM     11  C   UNL     1       7.692   4.607  13.724  0.00  0.00    +0.000 C 
ATOM     12  N   UNL     1       6.368   4.963  14.190  0.00  0.00    +0.000 N 
ATOM     13  C   UNL     1       5.219   4.206  13.736  0.00  0.00    +0.000 C 
ATOM     14  C   UNL     1       6.320   5.458  15.488  0.00  0.00    +0.000 A 
ATOM     15  N   UNL     1       7.378   6.146  15.958  0.00  0.00    +0.000 NA
ATOM     16  C   UNL     1       7.311   6.616  17.217  0.00  0.00    +0.000 A 
ATOM     17  C   UNL     1       6.246   6.393  18.047  0.00  0.00    +0.000 A 
ATOM     18  C   UNL     1       5.219   5.660  17.499  0.00  0.00    +0.000 A 
ATOM     19  N   UNL     1       5.230   5.222  16.227  0.00  0.00    +0.000 NA
ENDBRANCH   1  18
TORSDOF 1
ENDMDL
MODEL 9
REMARK VINA RESULT:      -6.4      3.562      5.401
REMARK  Name = 
REMARK  4 active torsions:
REMARK  status: ('A' for Active; 'I' for Inactive)
REMARK    1  A    between atoms: C_1  and  N_2
REMARK    2  A    between atoms: N_2  and  C_3
REMARK    3  A    between atoms: C_8  and  C_9
REMARK    4  A    between atoms: N_11  and  C_12
REMARK                            x       y       z     vdW  Elec       q    Type
REMARK                         _______ _______ _______ _____ _____    ______ ____
ROOT
ATOM      1  C   UNL     1       3.180   6.338  18.487  0.00  0.00    +0.000 A 
ATOM      2  C   UNL     1       4.553   6.229  18.333  0.00  0.00    +0.000 A 
ATOM      3  N   UNL     1       4.863   4.901  18.211  0.00  0.00    +0.000 N 
ATOM      4  C   UNL     1       6.185   4.358  18.013  0.00  0.00    +0.000 C 
ATOM      5  C   UNL     1       3.723   4.145  18.281  0.00  0.00    +0.000 A 
ATOM      6  N   UNL     1       3.683   2.800  18.186  0.00  0.00    +0.000 NA
ATOM      7  C   UNL     1       2.429   2.302  18.270  0.00  0.00    +0.000 A 
ATOM      8  C   UNL     1       1.272   3.046  18.444  0.00  0.00    +0.000 A 
ATOM      9  C   UNL     1       1.367   4.432  18.545  0.00  0.00    +0.000 A 
ATOM     10  C   UNL     1       2.648   5.010  18.453  0.00  0.00    +0.000 A 
ENDROOT
BRANCH   1  18
ATOM     11  C   UNL     1      -0.503  10.052  21.147  0.00  0.00    +0.000 C 
ATOM     12  N   UNL     1       0.779   9.379  21.172  0.00  0.00    +0.000 N 
ATOM     13  C   UNL     1       1.098   8.485  22.268  0.00  0.00    +0.000 C 
ATOM     14  C   UNL     1       1.289   9.048  19.923  0.00  0.00    +0.000 A 
ATOM     15  N   UNL     1       0.994   9.839  18.873  0.00  0.00    +0.000 NA
ATOM     16  C   UNL     1       1.498   9.501  17.673  0.00  0.00    +0.000 A 
ATOM     17  C   UNL     1       2.254   8.379  17.463  0.00  0.00    +0.000 A 
ATOM     18  C   UNL     1       2.486   7.611  18.582  0.00  0.00    +0.000 A 
ATOM     19  N   UNL     1       2.043   7.950  19.806  0.00  0.00    +0.000 NA
ENDBRANCH   1  18
TORSDOF 1
ENDMDL
