MODEL 1
REMARK VINA RESULT:      -9.0      0.000      0.000
REMARK  Name = 
REMARK  3 active torsions:
REMARK  status: ('A' for Active; 'I' for Inactive)
REMARK    1  A    between atoms: N_4  and  O_5
REMARK    2  A    between atoms: N_13  and  C_14
REMARK    3  A    between atoms: C_14  and  C_15
REMARK                            x       y       z     vdW  Elec       q    Type
REMARK                         _______ _______ _______ _____ _____    ______ ____
ROOT
ATOM      1  O   UNL     1       5.545   4.036  19.602  0.00  0.00    +0.000 OA
ATOM      2  C   UNL     1       5.745   4.126  18.409  0.00  0.00    +0.000 C 
ATOM      3  C   UNL     1       7.021   4.655  17.730  0.00  0.00    +0.000 C 
ATOM      4  N   UNL     1       8.125   5.094  18.249  0.00  0.00    +0.000 NA
ATOM      5  C   UNL     1       6.766   4.599  16.297  0.00  0.00    +0.000 A 
ATOM      6  C   UNL     1       7.575   4.994  15.249  0.00  0.00    +0.000 A 
ATOM      7  C   UNL     1       7.050   4.849  13.969  0.00  0.00    +0.000 A 
ATOM      8 CL   UNL     1       7.994   5.328  12.611  0.00  0.00    +0.000 Cl
ATOM      9  C   UNL     1       5.759   4.325  13.766  0.00  0.00    +0.000 A 
ATOM     10  C   UNL     1       4.960   3.935  14.852  0.00  0.00    +0.000 A 
ATOM     11  C   UNL     1       5.480   4.082  16.124  0.00  0.00    +0.000 A 
ATOM     12  N   UNL     1       4.883   3.803  17.365  0.00  0.00    +0.000 N 
ENDROOT
BRANCH   4  13
ATOM     13  O   UNL     1       8.088   5.046  19.642  0.00  0.00    +0.000 OA
ATOM     14  H   UNL     1       8.811   4.428  19.859  0.00  0.00    +0.000 HD
ENDBRANCH   4  13
BRANCH  12  15
ATOM     15  C   UNL     1       3.509   3.377  17.556  0.00  0.00    +0.000 C 
BRANCH  15  16
ATOM     16  C   UNL     1       2.781   4.077  18.685  0.00  0.00    +0.000 A 
ATOM     17  C   UNL     1       2.290   3.320  19.762  0.00  0.00    +0.000 A 
ATOM     18  C   UNL     1       1.694   3.935  20.853  0.00  0.00    +0.000 A 
ATOM     19  F   UNL     1       1.243   3.188  21.870  0.00  0.00    +0.000 F 
ATOM     20  C   UNL     1       1.575   5.314  20.919  0.00  0.00    +0.000 A 
ATOM     21  C   UNL     1       2.053   6.094  19.860  0.00  0.00    +0.000 A 
ATOM     22  C   UNL     1       2.660   5.480  18.754  0.00  0.00    +0.000 A 
ATOM     23  O   UNL     1       3.142   6.224  17.706  0.00  0.00    +0.000 OA
ATOM     24  C   UNL     1       3.121   7.640  17.924  0.00  0.00    +0.000 C 
ATOM     25  O   UNL     1       1.974   8.116  18.613  0.00  0.00    +0.000 OA
ATOM     26  C   UNL     1       1.963   7.587  19.930  0.00  0.00    +0.000 C 
ENDBRANCH  15  16
ENDBRANCH  12  15
TORSDOF 3
ENDMDL
MODEL 2
REMARK VINA RESULT:      -8.5      6.428      8.944
REMARK  Name = 
REMARK  3 active torsions:
REMARK  status: ('A' for Active; 'I' for Inactive)
REMARK    1  A    between atoms: N_4  and  O_5
REMARK    2  A    between atoms: N_13  and  C_14
REMARK    3  A    between atoms: C_14  and  C_15
REMARK                            x       y       z     vdW  Elec       q    Type
REMARK                         _______ _______ _______ _____ _____    ______ ____
ROOT
ATOM      1  O   UNL     1      -0.984  11.572  21.761  0.00  0.00    +0.000 OA
ATOM      2  C   UNL     1      -0.356  10.802  21.066  0.00  0.00    +0.000 C 
ATOM      3  C   UNL     1       0.471   9.598  21.549  0.00  0.00    +0.000 C 
ATOM      4  N   UNL     1       0.669   9.143  22.748  0.00  0.00    +0.000 NA
ATOM      5  C   UNL     1       1.061   9.010  20.353  0.00  0.00    +0.000 A 
ATOM      6  C   UNL     1       1.918   7.933  20.240  0.00  0.00    +0.000 A 
ATOM      7  C   UNL     1       2.349   7.612  18.957  0.00  0.00    +0.000 A 
ATOM      8 CL   UNL     1       3.426   6.288  18.734  0.00  0.00    +0.000 Cl
ATOM      9  C   UNL     1       1.924   8.357  17.840  0.00  0.00    +0.000 A 
ATOM     10  C   UNL     1       1.056   9.448  17.988  0.00  0.00    +0.000 A 
ATOM     11  C   UNL     1       0.630   9.769  19.263  0.00  0.00    +0.000 A 
ATOM     12  N   UNL     1      -0.203  10.820  19.683  0.00  0.00    +0.000 N 
ENDROOT
BRANCH   4  13
ATOM     13  O   UNL     1      -0.006   9.907  23.700  0.00  0.00    +0.000 OA
ATOM     14  H   UNL     1       0.025  10.805  23.321  0.00  0.00    +0.000 HD
ENDBRANCH   4  13
BRANCH  12  15
ATOM     15  C   UNL     1      -0.720  11.871  18.827  0.00  0.00    +0.000 C 
BRANCH  15  16
ATOM     16  C   UNL     1      -2.079  11.582  18.222  0.00  0.00    +0.000 A 
ATOM     17  C   UNL     1      -2.163  10.797  17.059  0.00  0.00    +0.000 A 
ATOM     18  C   UNL     1      -3.393  10.443  16.526  0.00  0.00    +0.000 A 
ATOM     19  F   UNL     1      -3.442   9.686  15.421  0.00  0.00    +0.000 F 
ATOM     20  C   UNL     1      -4.575  10.841  17.129  0.00  0.00    +0.000 A 
ATOM     21  C   UNL     1      -4.523  11.626  18.287  0.00  0.00    +0.000 A 
ATOM     22  C   UNL     1      -3.282  11.987  18.835  0.00  0.00    +0.000 A 
ATOM     23  O   UNL     1      -3.205  12.749  19.973  0.00  0.00    +0.000 OA
ATOM     24  C   UNL     1      -4.464  12.984  20.617  0.00  0.00    +0.000 C 
ATOM     25  O   UNL     1      -5.549  13.212  19.730  0.00  0.00    +0.000 OA
ATOM     26  C   UNL     1      -5.790  12.036  18.970  0.00  0.00    +0.000 C 
ENDBRANCH  15  16
ENDBRANCH  12  15
TORSDOF 3
ENDMDL
MODEL 3
REMARK VINA RESULT:      -8.4      3.649      6.359
REMARK  Name = 
REMARK  3 active torsions:
REMARK  status: ('A' for Active; 'I' for Inactive)
REMARK    1  A    between atoms: N_4  and  O_5
REMARK    2  A    between atoms: N_13  and  C_14
REMARK    3  A    between atoms: C_14  and  C_15
REMARK                            x       y       z     vdW  Elec       q    Type
REMARK                         _______ _______ _______ _____ _____    ______ ____
ROOT
ATOM      1  O   UNL     1       3.128   1.960  19.515  0.00  0.00    +0.000 OA
ATOM      2  C   UNL     1       2.909   3.152  19.549  0.00  0.00    +0.000 C 
ATOM      3  C   UNL     1       2.264   3.933  20.707  0.00  0.00    +0.000 C 
ATOM      4  N   UNL     1       1.837   3.521  21.861  0.00  0.00    +0.000 NA
ATOM      5  C   UNL     1       2.184   5.318  20.262  0.00  0.00    +0.000 A 
ATOM      6  C   UNL     1       1.652   6.415  20.911  0.00  0.00    +0.000 A 
ATOM      7  C   UNL     1       1.687   7.623  20.222  0.00  0.00    +0.000 A 
ATOM      8 CL   UNL     1       1.035   9.036  20.960  0.00  0.00    +0.000 Cl
ATOM      9  C   UNL     1       2.239   7.708  18.929  0.00  0.00    +0.000 A 
ATOM     10  C   UNL     1       2.768   6.574  18.295  0.00  0.00    +0.000 A 
ATOM     11  C   UNL     1       2.731   5.373  18.978  0.00  0.00    +0.000 A 
ATOM     12  N   UNL     1       3.158   4.101  18.562  0.00  0.00    +0.000 N 
ENDROOT
BRANCH   4  13
ATOM     13  O   UNL     1       2.028   2.148  22.014  0.00  0.00    +0.000 OA
ATOM     14  H   UNL     1       2.380   1.879  21.145  0.00  0.00    +0.000 HD
ENDBRANCH   4  13
BRANCH  12  15
ATOM     15  C   UNL     1       3.655   3.777  17.238  0.00  0.00    +0.000 C 
BRANCH  15  16
ATOM     16  C   UNL     1       5.072   4.237  16.964  0.00  0.00    +0.000 A 
ATOM     17  C   UNL     1       5.913   4.557  18.045  0.00  0.00    +0.000 A 
ATOM     18  C   UNL     1       7.240   4.901  17.837  0.00  0.00    +0.000 A 
ATOM     19  F   UNL     1       8.021   5.192  18.886  0.00  0.00    +0.000 F 
ATOM     20  C   UNL     1       7.780   4.927  16.561  0.00  0.00    +0.000 A 
ATOM     21  C   UNL     1       6.967   4.616  15.466  0.00  0.00    +0.000 A 
ATOM     22  C   UNL     1       5.623   4.265  15.667  0.00  0.00    +0.000 A 
ATOM     23  O   UNL     1       4.807   3.948  14.610  0.00  0.00    +0.000 OA
ATOM     24  C   UNL     1       5.480   3.848  13.350  0.00  0.00    +0.000 C 
ATOM     25  O   UNL     1       6.500   4.816  13.144  0.00  0.00    +0.000 OA
ATOM     26  C   UNL     1       7.543   4.607  14.084  0.00  0.00    +0.000 C 
ENDBRANCH  15  16
ENDBRANCH  12  15
TORSDOF 3
ENDMDL
MODEL 4
REMARK VINA RESULT:      -8.4      3.464      5.125
REMARK  Name = 
REMARK  3 active torsions:
REMARK  status: ('A' for Active; 'I' for Inactive)
REMARK    1  A    between atoms: N_4  and  O_5
REMARK    2  A    between atoms: N_13  and  C_14
REMARK    3  A    between atoms: C_14  and  C_15
REMARK                            x       y       z     vdW  Elec       q    Type
REMARK                         _______ _______ _______ _____ _____    ______ ____
ROOT
ATOM      1  O   UNL     1       0.511   4.311  20.342  0.00  0.00    +0.000 OA
ATOM      2  C   UNL     1       1.469   4.479  19.619  0.00  0.00    +0.000 C 
ATOM      3  C   UNL     1       1.937   3.548  18.486  0.00  0.00    +0.000 C 
ATOM      4  N   UNL     1       1.434   2.432  18.056  0.00  0.00    +0.000 NA
ATOM      5  C   UNL     1       3.142   4.157  17.938  0.00  0.00    +0.000 A 
ATOM      6  C   UNL     1       3.970   3.702  16.930  0.00  0.00    +0.000 A 
ATOM      7  C   UNL     1       5.080   4.486  16.635  0.00  0.00    +0.000 A 
ATOM      8 CL   UNL     1       6.166   3.982  15.397  0.00  0.00    +0.000 Cl
ATOM      9  C   UNL     1       5.334   5.681  17.336  0.00  0.00    +0.000 A 
ATOM     10  C   UNL     1       4.476   6.115  18.357  0.00  0.00    +0.000 A 
ATOM     11  C   UNL     1       3.375   5.333  18.652  0.00  0.00    +0.000 A 
ATOM     12  N   UNL     1       2.390   5.522  19.638  0.00  0.00    +0.000 N 
ENDROOT
BRANCH   4  13
ATOM     13  O   UNL     1       0.290   2.081  18.771  0.00  0.00    +0.000 OA
ATOM     14  H   UNL     1       0.075   2.900  19.256  0.00  0.00    +0.000 HD
ENDBRANCH   4  13
BRANCH  12  15
ATOM     15  C   UNL     1       2.400   6.572  20.640  0.00  0.00    +0.000 C 
BRANCH  15  16
ATOM     16  C   UNL     1       1.848   7.901  20.166  0.00  0.00    +0.000 A 
ATOM     17  C   UNL     1       1.969   8.254  18.811  0.00  0.00    +0.000 A 
ATOM     18  C   UNL     1       1.403   9.424  18.327  0.00  0.00    +0.000 A 
ATOM     19  F   UNL     1       1.526   9.730  17.028  0.00  0.00    +0.000 F 
ATOM     20  C   UNL     1       0.693  10.273  19.160  0.00  0.00    +0.000 A 
ATOM     21  C   UNL     1       0.558   9.949  20.515  0.00  0.00    +0.000 A 
ATOM     22  C   UNL     1       1.126   8.766  21.013  0.00  0.00    +0.000 A 
ATOM     23  O   UNL     1       1.001   8.423  22.336  0.00  0.00    +0.000 OA
ATOM     24  C   UNL     1       0.125   9.269  23.089  0.00  0.00    +0.000 C 
ATOM     25  O   UNL     1       0.204  10.649  22.759  0.00  0.00    +0.000 OA
ATOM     26  C   UNL     1      -0.235  10.837  21.421  0.00  0.00    +0.000 C 
ENDBRANCH  15  16
ENDBRANCH  12  15
TORSDOF 3
ENDMDL
MODEL 5
REMARK VINA RESULT:      -8.2      3.505      6.195
REMARK  Name = 
REMARK  3 active torsions:
REMARK  status: ('A' for Active; 'I' for Inactive)
REMARK    1  A    between atoms: N_4  and  O_5
REMARK    2  A    between atoms: N_13  and  C_14
REMARK    3  A    between atoms: C_14  and  C_15
REMARK                            x       y       z     vdW  Elec       q    Type
REMARK                         _______ _______ _______ _____ _____    ______ ____
ROOT
ATOM      1  O   UNL     1       3.077   1.999  19.456  0.00  0.00    +0.000 OA
ATOM      2  C   UNL     1       2.866   3.193  19.448  0.00  0.00    +0.000 C 
ATOM      3  C   UNL     1       2.360   4.042  20.628  0.00  0.00    +0.000 C 
ATOM      4  N   UNL     1       2.070   3.698  21.844  0.00  0.00    +0.000 NA
ATOM      5  C   UNL     1       2.232   5.401  20.118  0.00  0.00    +0.000 A 
ATOM      6  C   UNL     1       1.781   6.537  20.763  0.00  0.00    +0.000 A 
ATOM      7  C   UNL     1       1.738   7.704  20.008  0.00  0.00    +0.000 A 
ATOM      8 CL   UNL     1       1.179   9.161  20.737  0.00  0.00    +0.000 Cl
ATOM      9  C   UNL     1       2.136   7.713  18.657  0.00  0.00    +0.000 A 
ATOM     10  C   UNL     1       2.585   6.541  18.030  0.00  0.00    +0.000 A 
ATOM     11  C   UNL     1       2.626   5.381  18.779  0.00  0.00    +0.000 A 
ATOM     12  N   UNL     1       3.000   4.084  18.387  0.00  0.00    +0.000 N 
ENDROOT
BRANCH   4  13
ATOM     13  O   UNL     1       2.275   2.334  22.050  0.00  0.00    +0.000 OA
ATOM     14  H   UNL     1       2.225   2.250  23.021  0.00  0.00    +0.000 HD
ENDBRANCH   4  13
BRANCH  12  15
ATOM     15  C   UNL     1       3.338   3.683  17.034  0.00  0.00    +0.000 C 
BRANCH  15  16
ATOM     16  C   UNL     1       4.724   4.096  16.581  0.00  0.00    +0.000 A 
ATOM     17  C   UNL     1       5.035   4.076  15.211  0.00  0.00    +0.000 A 
ATOM     18  C   UNL     1       6.264   4.526  14.752  0.00  0.00    +0.000 A 
ATOM     19  F   UNL     1       6.530   4.504  13.439  0.00  0.00    +0.000 F 
ATOM     20  C   UNL     1       7.216   5.020  15.629  0.00  0.00    +0.000 A 
ATOM     21  C   UNL     1       6.936   5.050  17.000  0.00  0.00    +0.000 A 
ATOM     22  C   UNL     1       5.694   4.598  17.472  0.00  0.00    +0.000 A 
ATOM     23  O   UNL     1       5.392   4.624  18.810  0.00  0.00    +0.000 OA
ATOM     24  C   UNL     1       6.364   5.291  19.625  0.00  0.00    +0.000 C 
ATOM     25  O   UNL     1       7.714   5.060  19.246  0.00  0.00    +0.000 OA
ATOM     26  C   UNL     1       7.940   5.611  17.957  0.00  0.00    +0.000 C 
ENDBRANCH  15  16
ENDBRANCH  12  15
TORSDOF 3
ENDMDL
MODEL 6
REMARK VINA RESULT:      -8.1      6.495      8.994
REMARK  Name = 
REMARK  3 active torsions:
REMARK  status: ('A' for Active; 'I' for Inactive)
REMARK    1  A    between atoms: N_4  and  O_5
REMARK    2  A    between atoms: N_13  and  C_14
REMARK    3  A    between atoms: C_14  and  C_15
REMARK                            x       y       z     vdW  Elec       q    Type
REMARK                         _______ _______ _______ _____ _____    ______ ____
ROOT
ATOM      1  O   UNL     1      -0.671  11.639  22.404  0.00  0.00    +0.000 OA
ATOM      2  C   UNL     1      -0.165  10.946  21.549  0.00  0.00    +0.000 C 
ATOM      3  C   UNL     1       0.685   9.682  21.777  0.00  0.00    +0.000 C 
ATOM      4  N   UNL     1       1.028   9.091  22.880  0.00  0.00    +0.000 NA
ATOM      5  C   UNL     1       1.091   9.228  20.454  0.00  0.00    +0.000 A 
ATOM      6  C   UNL     1       1.895   8.159  20.106  0.00  0.00    +0.000 A 
ATOM      7  C   UNL     1       2.140   7.981  18.749  0.00  0.00    +0.000 A 
ATOM      8 CL   UNL     1       3.139   6.677  18.235  0.00  0.00    +0.000 Cl
ATOM      9  C   UNL     1       1.591   8.854  17.789  0.00  0.00    +0.000 A 
ATOM     10  C   UNL     1       0.782   9.933  18.175  0.00  0.00    +0.000 A 
ATOM     11  C   UNL     1       0.541  10.111  19.524  0.00  0.00    +0.000 A 
ATOM     12  N   UNL     1      -0.198  11.119  20.168  0.00  0.00    +0.000 N 
ENDROOT
BRANCH   4  13
ATOM     13  O   UNL     1       0.509   9.750  23.994  0.00  0.00    +0.000 OA
ATOM     14  H   UNL     1       1.193   9.603  24.673  0.00  0.00    +0.000 HD
ENDBRANCH   4  13
BRANCH  12  15
ATOM     15  C   UNL     1      -0.795  12.267  19.513  0.00  0.00    +0.000 C 
BRANCH  15  16
ATOM     16  C   UNL     1      -2.295  12.177  19.322  0.00  0.00    +0.000 A 
ATOM     17  C   UNL     1      -3.148  12.646  20.336  0.00  0.00    +0.000 A 
ATOM     18  C   UNL     1      -4.524  12.655  20.161  0.00  0.00    +0.000 A 
ATOM     19  F   UNL     1      -5.313  13.117  21.142  0.00  0.00    +0.000 F 
ATOM     20  C   UNL     1      -5.097  12.216  18.979  0.00  0.00    +0.000 A 
ATOM     21  C   UNL     1      -4.273  11.742  17.952  0.00  0.00    +0.000 A 
ATOM     22  C   UNL     1      -2.880  11.730  18.120  0.00  0.00    +0.000 A 
ATOM     23  O   UNL     1      -2.051  11.276  17.125  0.00  0.00    +0.000 OA
ATOM     24  C   UNL     1      -2.710  10.990  15.886  0.00  0.00    +0.000 C 
ATOM     25  O   UNL     1      -3.988  10.385  16.022  0.00  0.00    +0.000 OA
ATOM     26  C   UNL     1      -4.874  11.295  16.656  0.00  0.00    +0.000 C 
ENDBRANCH  15  16
ENDBRANCH  12  15
TORSDOF 3
ENDMDL
MODEL 7
REMARK VINA RESULT:      -7.9      2.303      2.960
REMARK  Name = 
REMARK  3 active torsions:
REMARK  status: ('A' for Active; 'I' for Inactive)
REMARK    1  A    between atoms: N_4  and  O_5
REMARK    2  A    between atoms: N_13  and  C_14
REMARK    3  A    between atoms: C_14  and  C_15
REMARK                            x       y       z     vdW  Elec       q    Type
REMARK                         _______ _______ _______ _____ _____    ______ ____
ROOT
ATOM      1  O   UNL     1       6.245   4.897  19.065  0.00  0.00    +0.000 OA
ATOM      2  C   UNL     1       6.342   4.748  17.866  0.00  0.00    +0.000 C 
ATOM      3  C   UNL     1       7.098   5.664  16.887  0.00  0.00    +0.000 C 
ATOM      4  N   UNL     1       7.781   6.744  17.107  0.00  0.00    +0.000 NA
ATOM      5  C   UNL     1       6.895   5.090  15.563  0.00  0.00    +0.000 A 
ATOM      6  C   UNL     1       7.332   5.550  14.336  0.00  0.00    +0.000 A 
ATOM      7  C   UNL     1       6.956   4.804  13.223  0.00  0.00    +0.000 A 
ATOM      8 CL   UNL     1       7.453   5.316  11.656  0.00  0.00    +0.000 Cl
ATOM      9  C   UNL     1       6.171   3.642  13.356  0.00  0.00    +0.000 A 
ATOM     10  C   UNL     1       5.740   3.204  14.617  0.00  0.00    +0.000 A 
ATOM     11  C   UNL     1       6.111   3.946  15.722  0.00  0.00    +0.000 A 
ATOM     12  N   UNL     1       5.788   3.745  17.075  0.00  0.00    +0.000 N 
ENDROOT
BRANCH   4  13
ATOM     13  O   UNL     1       7.798   7.068  18.464  0.00  0.00    +0.000 OA
ATOM     14  H   UNL     1       7.010   6.609  18.808  0.00  0.00    +0.000 HD
ENDBRANCH   4  13
BRANCH  12  15
ATOM     15  C   UNL     1       4.885   2.727  17.578  0.00  0.00    +0.000 C 
BRANCH  15  16
ATOM     16  C   UNL     1       3.576   3.258  18.125  0.00  0.00    +0.000 A 
ATOM     17  C   UNL     1       2.701   3.948  17.269  0.00  0.00    +0.000 A 
ATOM     18  C   UNL     1       1.459   4.376  17.714  0.00  0.00    +0.000 A 
ATOM     19  F   UNL     1       0.642   5.023  16.872  0.00  0.00    +0.000 F 
ATOM     20  C   UNL     1       1.039   4.124  19.010  0.00  0.00    +0.000 A 
ATOM     21  C   UNL     1       1.890   3.441  19.886  0.00  0.00    +0.000 A 
ATOM     22  C   UNL     1       3.148   3.004  19.444  0.00  0.00    +0.000 A 
ATOM     23  O   UNL     1       3.997   2.326  20.282  0.00  0.00    +0.000 OA
ATOM     24  C   UNL     1       3.426   1.973  21.547  0.00  0.00    +0.000 C 
ATOM     25  O   UNL     1       2.576   2.962  22.111  0.00  0.00    +0.000 OA
ATOM     26  C   UNL     1       1.438   3.132  21.279  0.00  0.00    +0.000 C 
ENDBRANCH  15  16
ENDBRANCH  12  15
TORSDOF 3
ENDMDL
MODEL 8
REMARK VINA RESULT:      -7.8      6.572      9.234
REMARK  Name = 
REMARK  3 active torsions:
REMARK  status: ('A' for Active; 'I' for Inactive)
REMARK    1  A    between atoms: N_4  and  O_5
REMARK    2  A    between atoms: N_13  and  C_14
REMARK    3  A    between atoms: C_14  and  C_15
REMARK                            x       y       z     vdW  Elec       q    Type
REMARK                         _______ _______ _______ _____ _____    ______ ____
ROOT
ATOM      1  O   UNL     1      -0.534  11.937  21.488  0.00  0.00    +0.000 OA
ATOM      2  C   UNL     1       0.019  11.053  20.870  0.00  0.00    +0.000 C 
ATOM      3  C   UNL     1       0.575   9.739  21.448  0.00  0.00    +0.000 C 
ATOM      4  N   UNL     1       0.570   9.291  22.665  0.00  0.00    +0.000 NA
ATOM      5  C   UNL     1       1.171   9.027  20.325  0.00  0.00    +0.000 A 
ATOM      6  C   UNL     1       1.838   7.817  20.313  0.00  0.00    +0.000 A 
ATOM      7  C   UNL     1       2.334   7.393  19.084  0.00  0.00    +0.000 A 
ATOM      8 CL   UNL     1       3.185   5.899  18.987  0.00  0.00    +0.000 Cl
ATOM      9  C   UNL     1       2.157   8.167  17.921  0.00  0.00    +0.000 A 
ATOM     10  C   UNL     1       1.478   9.394  17.967  0.00  0.00    +0.000 A 
ATOM     11  C   UNL     1       0.988   9.817  19.189  0.00  0.00    +0.000 A 
ATOM     12  N   UNL     1       0.310  11.005  19.509  0.00  0.00    +0.000 N 
ENDROOT
BRANCH   4  13
ATOM     13  O   UNL     1      -0.055  10.184  23.534  0.00  0.00    +0.000 OA
ATOM     14  H   UNL     1       0.176   9.832  24.414  0.00  0.00    +0.000 HD
ENDBRANCH   4  13
BRANCH  12  15
ATOM     15  C   UNL     1       0.069  12.105  18.594  0.00  0.00    +0.000 C 
BRANCH  15  16
ATOM     16  C   UNL     1       1.040  13.260  18.725  0.00  0.00    +0.000 A 
ATOM     17  C   UNL     1       2.369  13.095  18.296  0.00  0.00    +0.000 A 
ATOM     18  C   UNL     1       3.263  14.155  18.324  0.00  0.00    +0.000 A 
ATOM     19  F   UNL     1       4.521  13.971  17.900  0.00  0.00    +0.000 F 
ATOM     20  C   UNL     1       2.871  15.409  18.762  0.00  0.00    +0.000 A 
ATOM     21  C   UNL     1       1.555  15.603  19.197  0.00  0.00    +0.000 A 
ATOM     22  C   UNL     1       0.643  14.537  19.171  0.00  0.00    +0.000 A 
ATOM     23  O   UNL     1      -0.654  14.703  19.586  0.00  0.00    +0.000 OA
ATOM     24  C   UNL     1      -1.016  16.059  19.873  0.00  0.00    +0.000 C 
ATOM     25  O   UNL     1      -0.004  16.819  20.517  0.00  0.00    +0.000 OA
ATOM     26  C   UNL     1       1.106  16.960  19.642  0.00  0.00    +0.000 C 
ENDBRANCH  15  16
ENDBRANCH  12  15
TORSDOF 3
ENDMDL
MODEL 9
REMARK VINA RESULT:      -7.7      7.279      9.905
REMARK  Name = 
REMARK  3 active torsions:
REMARK  status: ('A' for Active; 'I' for Inactive)
REMARK    1  A    between atoms: N_4  and  O_5
REMARK    2  A    between atoms: N_13  and  C_14
REMARK    3  A    between atoms: C_14  and  C_15
REMARK                            x       y       z     vdW  Elec       q    Type
REMARK                         _______ _______ _______ _____ _____    ______ ____
ROOT
ATOM      1  O   UNL     1      -1.282  11.659  22.989  0.00  0.00    +0.000 OA
ATOM      2  C   UNL     1      -0.772  11.146  22.016  0.00  0.00    +0.000 C 
ATOM      3  C   UNL     1       0.200   9.952  22.013  0.00  0.00    +0.000 C 
ATOM      4  N   UNL     1       0.664   9.247  22.998  0.00  0.00    +0.000 NA
ATOM      5  C   UNL     1       0.559   9.731  20.619  0.00  0.00    +0.000 A 
ATOM      6  C   UNL     1       1.431   8.806  20.077  0.00  0.00    +0.000 A 
ATOM      7  C   UNL     1       1.603   8.847  18.698  0.00  0.00    +0.000 A 
ATOM      8 CL   UNL     1       2.680   7.732  17.948  0.00  0.00    +0.000 Cl
ATOM      9  C   UNL     1       0.919   9.789  17.906  0.00  0.00    +0.000 A 
ATOM     10  C   UNL     1       0.043  10.719  18.487  0.00  0.00    +0.000 A 
ATOM     11  C   UNL     1      -0.126  10.680  19.858  0.00  0.00    +0.000 A 
ATOM     12  N   UNL     1      -0.909  11.509  20.679  0.00  0.00    +0.000 N 
ENDROOT
BRANCH   4  13
ATOM     13  O   UNL     1       0.161   9.688  24.221  0.00  0.00    +0.000 OA
ATOM     14  H   UNL     1       0.520   9.037  24.852  0.00  0.00    +0.000 HD
ENDBRANCH   4  13
BRANCH  12  15
ATOM     15  C   UNL     1      -1.647  12.675  20.231  0.00  0.00    +0.000 C 
BRANCH  15  16
ATOM     16  C   UNL     1      -3.098  12.411  19.886  0.00  0.00    +0.000 A 
ATOM     17  C   UNL     1      -3.412  11.773  18.673  0.00  0.00    +0.000 A 
ATOM     18  C   UNL     1      -4.722  11.441  18.361  0.00  0.00    +0.000 A 
ATOM     19  F   UNL     1      -4.991  10.825  17.202  0.00  0.00    +0.000 F 
ATOM     20  C   UNL     1      -5.757  11.715  19.240  0.00  0.00    +0.000 A 
ATOM     21  C   UNL     1      -5.475  12.351  20.455  0.00  0.00    +0.000 A 
ATOM     22  C   UNL     1      -4.152  12.690  20.778  0.00  0.00    +0.000 A 
ATOM     23  O   UNL     1      -3.849  13.307  21.966  0.00  0.00    +0.000 OA
ATOM     24  C   UNL     1      -4.949  13.412  22.879  0.00  0.00    +0.000 C 
ATOM     25  O   UNL     1      -6.198  13.705  22.269  0.00  0.00    +0.000 OA
ATOM     26  C   UNL     1      -6.577  12.624  21.430  0.00  0.00    +0.000 C 
ENDBRANCH  15  16
ENDBRANCH  12  15
TORSDOF 3
ENDMDL
