MODEL 1
REMARK VINA RESULT:      -8.2      0.000      0.000
REMARK  Name = 
REMARK  8 active torsions:
REMARK  status: ('A' for Active; 'I' for Inactive)
REMARK    1  A    between atoms: C_1  and  C_2
REMARK    2  A    between atoms: C_2  and  S_3
REMARK    3  A    between atoms: S_3  and  C_6
REMARK    4  A    between atoms: C_9  and  O_10
REMARK    5  A    between atoms: C_11  and  N_12
REMARK    6  A    between atoms: C_13  and  C_15
REMARK    7  A    between atoms: C_15  and  O_16
REMARK    8  A    between atoms: O_16  and  C_17
REMARK                            x       y       z     vdW  Elec       q    Type
REMARK                         _______ _______ _______ _____ _____    ______ ____
ROOT
ATOM      1  C   UNL     1       4.948   4.344  17.627  0.00  0.00    +0.000 A 
ATOM      2  C   UNL     1       5.103   3.594  16.460  0.00  0.00    +0.000 A 
ATOM      3  C   UNL     1       5.956   4.063  15.473  0.00  0.00    +0.000 A 
ATOM      4  C   UNL     1       6.633   5.276  15.647  0.00  0.00    +0.000 A 
ATOM      5  C   UNL     1       6.407   6.103  16.759  0.00  0.00    +0.000 A 
ATOM      6  C   UNL     1       5.556   5.605  17.765  0.00  0.00    +0.000 A 
ENDROOT
BRANCH   5   7
ATOM      7  N   UNL     1       6.969   7.395  16.974  0.00  0.00    +0.000 N 
ATOM      8  C   UNL     1       7.853   7.804  17.968  0.00  0.00    +0.000 C 
ATOM      9  O   UNL     1       8.377   7.105  18.832  0.00  0.00    +0.000 OA
ATOM     10  H   UNL     1       6.775   8.083  16.257  0.00  0.00    +0.000 HD
BRANCH   8  11
ATOM     11  C   UNL     1       8.270   9.281  17.857  0.00  0.00    +0.000 C 
BRANCH  11  12
ATOM     12  O   UNL     1       8.746   9.783  19.098  0.00  0.00    +0.000 OA
BRANCH  12  13
ATOM     13  C   UNL     1       9.571  10.878  19.049  0.00  0.00    +0.000 A 
ATOM     14  C   UNL     1      10.120  11.247  20.281  0.00  0.00    +0.000 A 
ATOM     15  C   UNL     1      10.972  12.350  20.385  0.00  0.00    +0.000 A 
ATOM     16  C   UNL     1      11.293  13.082  19.247  0.00  0.00    +0.000 A 
ATOM     17 CL   UNL     1      12.330  14.449  19.370  0.00  0.00    +0.000 Cl
ATOM     18  C   UNL     1      10.779  12.708  18.007  0.00  0.00    +0.000 A 
ATOM     19  C   UNL     1       9.919  11.604  17.907  0.00  0.00    +0.000 A 
ENDBRANCH  12  13
ENDBRANCH  11  12
ENDBRANCH   8  11
ENDBRANCH   5   7
BRANCH   1  20
ATOM     20  S   UNL     1       3.985   3.647  18.952  0.00  0.00    +0.000 S 
ATOM     21  O   UNL     1       3.205   4.725  19.531  0.00  0.00    +0.000 OA
ATOM     22  O   UNL     1       4.889   2.849  19.768  0.00  0.00    +0.000 OA
BRANCH  20  24
ATOM     23  C   UNL     1       1.424   2.800  18.430  0.00  0.00    +0.000 C 
ATOM     24  C   UNL     1       2.878   2.540  18.088  0.00  0.00    +0.000 C 
ENDBRANCH  20  24
ENDBRANCH   1  20
BRANCH   4  25
ATOM     25  O   UNL     1       7.623   5.521  14.744  0.00  0.00    +0.000 OA
ATOM     26  H   UNL     1       8.177   4.724  14.684  0.00  0.00    +0.000 HD
ENDBRANCH   4  25
TORSDOF 7
ENDMDL
MODEL 2
REMARK VINA RESULT:      -8.1      1.136      1.355
REMARK  Name = 
REMARK  8 active torsions:
REMARK  status: ('A' for Active; 'I' for Inactive)
REMARK    1  A    between atoms: C_1  and  C_2
REMARK    2  A    between atoms: C_2  and  S_3
REMARK    3  A    between atoms: S_3  and  C_6
REMARK    4  A    between atoms: C_9  and  O_10
REMARK    5  A    between atoms: C_11  and  N_12
REMARK    6  A    between atoms: C_13  and  C_15
REMARK    7  A    between atoms: C_15  and  O_16
REMARK    8  A    between atoms: O_16  and  C_17
REMARK                            x       y       z     vdW  Elec       q    Type
REMARK                         _______ _______ _______ _____ _____    ______ ____
ROOT
ATOM      1  C   UNL     1       4.425   4.526  16.990  0.00  0.00    +0.000 A 
ATOM      2  C   UNL     1       4.805   3.733  15.905  0.00  0.00    +0.000 A 
ATOM      3  C   UNL     1       5.913   4.108  15.161  0.00  0.00    +0.000 A 
ATOM      4  C   UNL     1       6.620   5.271  15.490  0.00  0.00    +0.000 A 
ATOM      5  C   UNL     1       6.191   6.143  16.503  0.00  0.00    +0.000 A 
ATOM      6  C   UNL     1       5.079   5.740  17.267  0.00  0.00    +0.000 A 
ENDROOT
BRANCH   5   7
ATOM      7  N   UNL     1       6.783   7.395  16.841  0.00  0.00    +0.000 N 
ATOM      8  C   UNL     1       7.684   7.682  17.864  0.00  0.00    +0.000 C 
ATOM      9  O   UNL     1       8.197   6.888  18.648  0.00  0.00    +0.000 OA
ATOM     10  H   UNL     1       6.601   8.156  16.199  0.00  0.00    +0.000 HD
BRANCH   8  11
ATOM     11  C   UNL     1       8.133   9.153  17.898  0.00  0.00    +0.000 C 
BRANCH  11  12
ATOM     12  O   UNL     1       8.873   9.445  19.075  0.00  0.00    +0.000 OA
BRANCH  12  13
ATOM     13  C   UNL     1       9.629  10.590  19.066  0.00  0.00    +0.000 A 
ATOM     14  C   UNL     1       9.986  11.060  20.333  0.00  0.00    +0.000 A 
ATOM     15  C   UNL     1      10.748  12.222  20.478  0.00  0.00    +0.000 A 
ATOM     16  C   UNL     1      11.172  12.913  19.347  0.00  0.00    +0.000 A 
ATOM     17 CL   UNL     1      12.098  14.353  19.519  0.00  0.00    +0.000 Cl
ATOM     18  C   UNL     1      10.850  12.441  18.077  0.00  0.00    +0.000 A 
ATOM     19  C   UNL     1      10.080  11.277  17.935  0.00  0.00    +0.000 A 
ENDBRANCH  12  13
ENDBRANCH  11  12
ENDBRANCH   8  11
ENDBRANCH   5   7
BRANCH   1  20
ATOM     20  S   UNL     1       3.109   3.940  18.037  0.00  0.00    +0.000 S 
ATOM     21  O   UNL     1       2.764   2.604  17.588  0.00  0.00    +0.000 OA
ATOM     22  O   UNL     1       2.108   4.995  18.101  0.00  0.00    +0.000 OA
BRANCH  20  24
ATOM     23  C   UNL     1       4.300   2.395  19.971  0.00  0.00    +0.000 C 
ATOM     24  C   UNL     1       3.906   3.819  19.633  0.00  0.00    +0.000 C 
ENDBRANCH  20  24
ENDBRANCH   1  20
BRANCH   4  25
ATOM     25  O   UNL     1       7.821   5.415  14.862  0.00  0.00    +0.000 OA
ATOM     26  H   UNL     1       8.009   6.366  14.791  0.00  0.00    +0.000 HD
ENDBRANCH   4  25
TORSDOF 7
ENDMDL
MODEL 3
REMARK VINA RESULT:      -8.1      0.876      1.387
REMARK  Name = 
REMARK  8 active torsions:
REMARK  status: ('A' for Active; 'I' for Inactive)
REMARK    1  A    between atoms: C_1  and  C_2
REMARK    2  A    between atoms: C_2  and  S_3
REMARK    3  A    between atoms: S_3  and  C_6
REMARK    4  A    between atoms: C_9  and  O_10
REMARK    5  A    between atoms: C_11  and  N_12
REMARK    6  A    between atoms: C_13  and  C_15
REMARK    7  A    between atoms: C_15  and  O_16
REMARK    8  A    between atoms: O_16  and  C_17
REMARK                            x       y       z     vdW  Elec       q    Type
REMARK                         _______ _______ _______ _____ _____    ______ ____
ROOT
ATOM      1  C   UNL     1       5.015   4.155  17.227  0.00  0.00    +0.000 A 
ATOM      2  C   UNL     1       5.220   3.498  16.013  0.00  0.00    +0.000 A 
ATOM      3  C   UNL     1       6.110   4.042  15.100  0.00  0.00    +0.000 A 
ATOM      4  C   UNL     1       6.774   5.239  15.394  0.00  0.00    +0.000 A 
ATOM      5  C   UNL     1       6.500   5.977  16.557  0.00  0.00    +0.000 A 
ATOM      6  C   UNL     1       5.613   5.402  17.486  0.00  0.00    +0.000 A 
ENDROOT
BRANCH   5   7
ATOM      7  N   UNL     1       7.047   7.250  16.893  0.00  0.00    +0.000 N 
ATOM      8  C   UNL     1       7.851   7.592  17.977  0.00  0.00    +0.000 C 
ATOM      9  O   UNL     1       8.302   6.838  18.837  0.00  0.00    +0.000 OA
ATOM     10  H   UNL     1       6.914   7.981  16.205  0.00  0.00    +0.000 HD
BRANCH   8  11
ATOM     11  C   UNL     1       8.281   9.069  17.988  0.00  0.00    +0.000 C 
BRANCH  11  12
ATOM     12  O   UNL     1       8.949   9.409  19.195  0.00  0.00    +0.000 OA
BRANCH  12  13
ATOM     13  C   UNL     1       9.555  10.638  19.244  0.00  0.00    +0.000 A 
ATOM     14  C   UNL     1       9.810  11.210  17.994  0.00  0.00    +0.000 A 
ATOM     15  C   UNL     1      10.433  12.457  17.889  0.00  0.00    +0.000 A 
ATOM     16  C   UNL     1      10.789  13.148  19.043  0.00  0.00    +0.000 A 
ATOM     17 CL   UNL     1      11.567  14.677  18.921  0.00  0.00    +0.000 Cl
ATOM     18  C   UNL     1      10.513  12.605  20.296  0.00  0.00    +0.000 A 
ATOM     19  C   UNL     1       9.894  11.351  20.398  0.00  0.00    +0.000 A 
ENDBRANCH  12  13
ENDBRANCH  11  12
ENDBRANCH   8  11
ENDBRANCH   5   7
BRANCH   1  20
ATOM     20  S   UNL     1       4.004   3.356  18.455  0.00  0.00    +0.000 S 
ATOM     21  O   UNL     1       4.834   3.151  19.629  0.00  0.00    +0.000 OA
ATOM     22  O   UNL     1       3.334   2.241  17.802  0.00  0.00    +0.000 OA
BRANCH  20  24
ATOM     23  C   UNL     1       1.644   4.067  19.669  0.00  0.00    +0.000 C 
ATOM     24  C   UNL     1       2.784   4.609  18.830  0.00  0.00    +0.000 C 
ENDBRANCH  20  24
ENDBRANCH   1  20
BRANCH   4  25
ATOM     25  O   UNL     1       7.799   5.554  14.553  0.00  0.00    +0.000 OA
ATOM     26  H   UNL     1       8.322   4.749  14.405  0.00  0.00    +0.000 HD
ENDBRANCH   4  25
TORSDOF 7
ENDMDL
MODEL 4
REMARK VINA RESULT:      -8.1      1.143      1.207
REMARK  Name = 
REMARK  8 active torsions:
REMARK  status: ('A' for Active; 'I' for Inactive)
REMARK    1  A    between atoms: C_1  and  C_2
REMARK    2  A    between atoms: C_2  and  S_3
REMARK    3  A    between atoms: S_3  and  C_6
REMARK    4  A    between atoms: C_9  and  O_10
REMARK    5  A    between atoms: C_11  and  N_12
REMARK    6  A    between atoms: C_13  and  C_15
REMARK    7  A    between atoms: C_15  and  O_16
REMARK    8  A    between atoms: O_16  and  C_17
REMARK                            x       y       z     vdW  Elec       q    Type
REMARK                         _______ _______ _______ _____ _____    ______ ____
ROOT
ATOM      1  C   UNL     1       4.649   4.411  17.092  0.00  0.00    +0.000 A 
ATOM      2  C   UNL     1       4.969   3.669  15.953  0.00  0.00    +0.000 A 
ATOM      3  C   UNL     1       6.007   4.102  15.143  0.00  0.00    +0.000 A 
ATOM      4  C   UNL     1       6.705   5.274  15.461  0.00  0.00    +0.000 A 
ATOM      5  C   UNL     1       6.329   6.097  16.535  0.00  0.00    +0.000 A 
ATOM      6  C   UNL     1       5.289   5.634  17.364  0.00  0.00    +0.000 A 
ENDROOT
BRANCH   5   7
ATOM      7  N   UNL     1       6.911   7.353  16.875  0.00  0.00    +0.000 N 
ATOM      8  C   UNL     1       7.775   7.655  17.923  0.00  0.00    +0.000 C 
ATOM      9  O   UNL     1       8.260   6.873  18.738  0.00  0.00    +0.000 OA
ATOM     10  H   UNL     1       6.752   8.104  16.214  0.00  0.00    +0.000 HD
BRANCH   8  11
ATOM     11  C   UNL     1       8.226   9.126  17.950  0.00  0.00    +0.000 C 
BRANCH  11  12
ATOM     12  O   UNL     1       8.976   9.420  19.120  0.00  0.00    +0.000 OA
BRANCH  12  13
ATOM     13  C   UNL     1       9.606  10.638  19.164  0.00  0.00    +0.000 A 
ATOM     14  C   UNL     1       9.744  11.174  20.447  0.00  0.00    +0.000 A 
ATOM     15  C   UNL     1      10.358  12.415  20.644  0.00  0.00    +0.000 A 
ATOM     16  C   UNL     1      10.853  13.119  19.552  0.00  0.00    +0.000 A 
ATOM     17 CL   UNL     1      11.597  14.652  19.786  0.00  0.00    +0.000 Cl
ATOM     18  C   UNL     1      10.751  12.583  18.270  0.00  0.00    +0.000 A 
ATOM     19  C   UNL     1      10.129  11.341  18.075  0.00  0.00    +0.000 A 
ENDBRANCH  12  13
ENDBRANCH  11  12
ENDBRANCH   8  11
ENDBRANCH   5   7
BRANCH   1  20
ATOM     20  S   UNL     1       3.432   3.751  18.211  0.00  0.00    +0.000 S 
ATOM     21  O   UNL     1       4.105   3.483  19.469  0.00  0.00    +0.000 OA
ATOM     22  O   UNL     1       2.718   2.700  17.500  0.00  0.00    +0.000 OA
BRANCH  20  24
ATOM     23  C   UNL     1       2.371   5.683  19.851  0.00  0.00    +0.000 C 
ATOM     24  C   UNL     1       2.322   5.134  18.439  0.00  0.00    +0.000 C 
ENDBRANCH  20  24
ENDBRANCH   1  20
BRANCH   4  25
ATOM     25  O   UNL     1       7.851   5.474  14.753  0.00  0.00    +0.000 OA
ATOM     26  H   UNL     1       8.067   4.646  14.292  0.00  0.00    +0.000 HD
ENDBRANCH   4  25
TORSDOF 7
ENDMDL
MODEL 5
REMARK VINA RESULT:      -8.0      1.288      1.750
REMARK  Name = 
REMARK  8 active torsions:
REMARK  status: ('A' for Active; 'I' for Inactive)
REMARK    1  A    between atoms: C_1  and  C_2
REMARK    2  A    between atoms: C_2  and  S_3
REMARK    3  A    between atoms: S_3  and  C_6
REMARK    4  A    between atoms: C_9  and  O_10
REMARK    5  A    between atoms: C_11  and  N_12
REMARK    6  A    between atoms: C_13  and  C_15
REMARK    7  A    between atoms: C_15  and  O_16
REMARK    8  A    between atoms: O_16  and  C_17
REMARK                            x       y       z     vdW  Elec       q    Type
REMARK                         _______ _______ _______ _____ _____    ______ ____
ROOT
ATOM      1  C   UNL     1       3.942   4.756  17.308  0.00  0.00    +0.000 A 
ATOM      2  C   UNL     1       4.384   3.734  16.465  0.00  0.00    +0.000 A 
ATOM      3  C   UNL     1       5.638   3.841  15.885  0.00  0.00    +0.000 A 
ATOM      4  C   UNL     1       6.434   4.967  16.134  0.00  0.00    +0.000 A 
ATOM      5  C   UNL     1       5.967   6.058  16.885  0.00  0.00    +0.000 A 
ATOM      6  C   UNL     1       4.701   5.926  17.488  0.00  0.00    +0.000 A 
ENDROOT
BRANCH   5   7
ATOM      7  N   UNL     1       6.661   7.283  17.107  0.00  0.00    +0.000 N 
ATOM      8  C   UNL     1       7.691   7.548  18.005  0.00  0.00    +0.000 C 
ATOM      9  O   UNL     1       8.253   6.750  18.751  0.00  0.00    +0.000 OA
ATOM     10  H   UNL     1       6.442   8.034  16.464  0.00  0.00    +0.000 HD
BRANCH   8  11
ATOM     11  C   UNL     1       8.218   8.992  17.934  0.00  0.00    +0.000 C 
BRANCH  11  12
ATOM     12  O   UNL     1       9.137   9.264  18.982  0.00  0.00    +0.000 OA
BRANCH  12  13
ATOM     13  C   UNL     1       9.450  10.580  19.208  0.00  0.00    +0.000 A 
ATOM     14  C   UNL     1       9.621  11.343  18.049  0.00  0.00    +0.000 A 
ATOM     15  C   UNL     1       9.952  12.699  18.124  0.00  0.00    +0.000 A 
ATOM     16  C   UNL     1      10.097  13.303  19.369  0.00  0.00    +0.000 A 
ATOM     17 CL   UNL     1      10.518  14.968  19.469  0.00  0.00    +0.000 Cl
ATOM     18  C   UNL     1       9.901  12.564  20.532  0.00  0.00    +0.000 A 
ATOM     19  C   UNL     1       9.574  11.202  20.453  0.00  0.00    +0.000 A 
ENDBRANCH  12  13
ENDBRANCH  11  12
ENDBRANCH   8  11
ENDBRANCH   5   7
BRANCH   1  20
ATOM     20  S   UNL     1       2.406   4.523  18.178  0.00  0.00    +0.000 S 
ATOM     21  O   UNL     1       1.417   4.110  17.199  0.00  0.00    +0.000 OA
ATOM     22  O   UNL     1       2.199   5.699  19.009  0.00  0.00    +0.000 OA
BRANCH  20  24
ATOM     23  C   UNL     1       2.405   3.408  20.689  0.00  0.00    +0.000 C 
ATOM     24  C   UNL     1       2.770   3.133  19.244  0.00  0.00    +0.000 C 
ENDBRANCH  20  24
ENDBRANCH   1  20
BRANCH   4  25
ATOM     25  O   UNL     1       7.729   4.862  15.725  0.00  0.00    +0.000 OA
ATOM     26  H   UNL     1       8.120   5.751  15.741  0.00  0.00    +0.000 HD
ENDBRANCH   4  25
TORSDOF 7
ENDMDL
MODEL 6
REMARK VINA RESULT:      -7.6      5.992      8.081
REMARK  Name = 
REMARK  8 active torsions:
REMARK  status: ('A' for Active; 'I' for Inactive)
REMARK    1  A    between atoms: C_1  and  C_2
REMARK    2  A    between atoms: C_2  and  S_3
REMARK    3  A    between atoms: S_3  and  C_6
REMARK    4  A    between atoms: C_9  and  O_10
REMARK    5  A    between atoms: C_11  and  N_12
REMARK    6  A    between atoms: C_13  and  C_15
REMARK    7  A    between atoms: C_15  and  O_16
REMARK    8  A    between atoms: O_16  and  C_17
REMARK                            x       y       z     vdW  Elec       q    Type
REMARK                         _______ _______ _______ _____ _____    ______ ____
ROOT
ATOM      1  C   UNL     1       5.410   4.830  17.422  0.00  0.00    +0.000 A 
ATOM      2  C   UNL     1       4.786   3.634  17.061  0.00  0.00    +0.000 A 
ATOM      3  C   UNL     1       3.408   3.539  17.173  0.00  0.00    +0.000 A 
ATOM      4  C   UNL     1       2.666   4.623  17.657  0.00  0.00    +0.000 A 
ATOM      5  C   UNL     1       3.279   5.793  18.133  0.00  0.00    +0.000 A 
ATOM      6  C   UNL     1       4.677   5.887  17.992  0.00  0.00    +0.000 A 
ENDROOT
BRANCH   5   7
ATOM      7  N   UNL     1       2.618   6.904  18.735  0.00  0.00    +0.000 N 
ATOM      8  C   UNL     1       1.958   6.963  19.959  0.00  0.00    +0.000 C 
ATOM      9  O   UNL     1       1.867   6.071  20.800  0.00  0.00    +0.000 OA
ATOM     10  H   UNL     1       2.722   7.789  18.256  0.00  0.00    +0.000 HD
BRANCH   8  11
ATOM     11  C   UNL     1       1.393   8.355  20.292  0.00  0.00    +0.000 C 
BRANCH  11  12
ATOM     12  O   UNL     1       0.512   8.308  21.405  0.00  0.00    +0.000 OA
BRANCH  12  13
ATOM     13  C   UNL     1      -0.157   9.464  21.716  0.00  0.00    +0.000 A 
ATOM     14  C   UNL     1      -0.401  10.305  20.626  0.00  0.00    +0.000 A 
ATOM     15  C   UNL     1      -1.066  11.523  20.795  0.00  0.00    +0.000 A 
ATOM     16  C   UNL     1      -1.506  11.898  22.060  0.00  0.00    +0.000 A 
ATOM     17 CL   UNL     1      -2.312  13.402  22.276  0.00  0.00    +0.000 Cl
ATOM     18  C   UNL     1      -1.298  11.057  23.150  0.00  0.00    +0.000 A 
ATOM     19  C   UNL     1      -0.625   9.838  22.979  0.00  0.00    +0.000 A 
ENDBRANCH  12  13
ENDBRANCH  11  12
ENDBRANCH   8  11
ENDBRANCH   5   7
BRANCH   1  20
ATOM     20  S   UNL     1       7.155   4.995  17.111  0.00  0.00    +0.000 S 
ATOM     21  O   UNL     1       7.392   4.551  15.749  0.00  0.00    +0.000 OA
ATOM     22  O   UNL     1       7.853   4.385  18.234  0.00  0.00    +0.000 OA
BRANCH  20  24
ATOM     23  C   UNL     1       8.101   7.194  18.459  0.00  0.00    +0.000 C 
ATOM     24  C   UNL     1       7.398   6.765  17.187  0.00  0.00    +0.000 C 
ENDBRANCH  20  24
ENDBRANCH   1  20
BRANCH   4  25
ATOM     25  O   UNL     1       1.317   4.519  17.496  0.00  0.00    +0.000 OA
ATOM     26  H   UNL     1       0.913   5.343  17.817  0.00  0.00    +0.000 HD
ENDBRANCH   4  25
TORSDOF 7
ENDMDL
MODEL 7
REMARK VINA RESULT:      -7.5      0.892      1.325
REMARK  Name = 
REMARK  8 active torsions:
REMARK  status: ('A' for Active; 'I' for Inactive)
REMARK    1  A    between atoms: C_1  and  C_2
REMARK    2  A    between atoms: C_2  and  S_3
REMARK    3  A    between atoms: S_3  and  C_6
REMARK    4  A    between atoms: C_9  and  O_10
REMARK    5  A    between atoms: C_11  and  N_12
REMARK    6  A    between atoms: C_13  and  C_15
REMARK    7  A    between atoms: C_15  and  O_16
REMARK    8  A    between atoms: O_16  and  C_17
REMARK                            x       y       z     vdW  Elec       q    Type
REMARK                         _______ _______ _______ _____ _____    ______ ____
ROOT
ATOM      1  C   UNL     1       4.415   4.652  17.588  0.00  0.00    +0.000 A 
ATOM      2  C   UNL     1       4.633   3.848  16.467  0.00  0.00    +0.000 A 
ATOM      3  C   UNL     1       5.622   4.212  15.566  0.00  0.00    +0.000 A 
ATOM      4  C   UNL     1       6.373   5.375  15.779  0.00  0.00    +0.000 A 
ATOM      5  C   UNL     1       6.097   6.258  16.835  0.00  0.00    +0.000 A 
ATOM      6  C   UNL     1       5.106   5.866  17.755  0.00  0.00    +0.000 A 
ENDROOT
BRANCH   5   7
ATOM      7  N   UNL     1       6.735   7.511  17.072  0.00  0.00    +0.000 N 
ATOM      8  C   UNL     1       7.714   7.823  18.012  0.00  0.00    +0.000 C 
ATOM      9  O   UNL     1       8.271   7.053  18.791  0.00  0.00    +0.000 OA
ATOM     10  H   UNL     1       6.519   8.246  16.411  0.00  0.00    +0.000 HD
BRANCH   8  11
ATOM     11  C   UNL     1       8.191   9.284  17.946  0.00  0.00    +0.000 C 
BRANCH  11  12
ATOM     12  O   UNL     1       9.416   9.464  18.644  0.00  0.00    +0.000 OA
BRANCH  12  13
ATOM     13  C   UNL     1       9.582  10.653  19.309  0.00  0.00    +0.000 A 
ATOM     14  C   UNL     1      10.117  11.683  18.530  0.00  0.00    +0.000 A 
ATOM     15  C   UNL     1      10.351  12.948  19.076  0.00  0.00    +0.000 A 
ATOM     16  C   UNL     1      10.032  13.192  20.408  0.00  0.00    +0.000 A 
ATOM     17 CL   UNL     1      10.330  14.743  21.091  0.00  0.00    +0.000 Cl
ATOM     18  C   UNL     1       9.469  12.185  21.188  0.00  0.00    +0.000 A 
ATOM     19  C   UNL     1       9.241  10.915  20.638  0.00  0.00    +0.000 A 
ENDBRANCH  12  13
ENDBRANCH  11  12
ENDBRANCH   8  11
ENDBRANCH   5   7
BRANCH   1  20
ATOM     20  S   UNL     1       3.263   4.081  18.819  0.00  0.00    +0.000 S 
ATOM     21  O   UNL     1       2.364   5.183  19.110  0.00  0.00    +0.000 OA
ATOM     22  O   UNL     1       4.039   3.444  19.873  0.00  0.00    +0.000 OA
BRANCH  20  24
ATOM     23  C   UNL     1       1.021   2.509  18.599  0.00  0.00    +0.000 C 
ATOM     24  C   UNL     1       2.352   2.816  17.943  0.00  0.00    +0.000 C 
ENDBRANCH  20  24
ENDBRANCH   1  20
BRANCH   4  25
ATOM     25  O   UNL     1       7.471   5.508  14.983  0.00  0.00    +0.000 OA
ATOM     26  H   UNL     1       7.218   5.255  14.079  0.00  0.00    +0.000 HD
ENDBRANCH   4  25
TORSDOF 7
ENDMDL
MODEL 8
REMARK VINA RESULT:      -7.5      1.346      1.793
REMARK  Name = 
REMARK  8 active torsions:
REMARK  status: ('A' for Active; 'I' for Inactive)
REMARK    1  A    between atoms: C_1  and  C_2
REMARK    2  A    between atoms: C_2  and  S_3
REMARK    3  A    between atoms: S_3  and  C_6
REMARK    4  A    between atoms: C_9  and  O_10
REMARK    5  A    between atoms: C_11  and  N_12
REMARK    6  A    between atoms: C_13  and  C_15
REMARK    7  A    between atoms: C_15  and  O_16
REMARK    8  A    between atoms: O_16  and  C_17
REMARK                            x       y       z     vdW  Elec       q    Type
REMARK                         _______ _______ _______ _____ _____    ______ ____
ROOT
ATOM      1  C   UNL     1       4.277   3.995  18.214  0.00  0.00    +0.000 A 
ATOM      2  C   UNL     1       4.018   3.546  16.918  0.00  0.00    +0.000 A 
ATOM      3  C   UNL     1       4.525   4.267  15.848  0.00  0.00    +0.000 A 
ATOM      4  C   UNL     1       5.269   5.432  16.075  0.00  0.00    +0.000 A 
ATOM      5  C   UNL     1       5.446   5.965  17.362  0.00  0.00    +0.000 A 
ATOM      6  C   UNL     1       4.947   5.211  18.441  0.00  0.00    +0.000 A 
ENDROOT
BRANCH   5   7
ATOM      7  N   UNL     1       6.097   7.192  17.681  0.00  0.00    +0.000 N 
ATOM      8  C   UNL     1       7.351   7.641  17.277  0.00  0.00    +0.000 C 
ATOM      9  O   UNL     1       8.129   7.084  16.506  0.00  0.00    +0.000 OA
ATOM     10  H   UNL     1       5.538   7.866  18.189  0.00  0.00    +0.000 HD
BRANCH   8  11
ATOM     11  C   UNL     1       7.703   9.045  17.799  0.00  0.00    +0.000 C 
BRANCH  11  12
ATOM     12  O   UNL     1       8.693   8.991  18.816  0.00  0.00    +0.000 OA
BRANCH  12  13
ATOM     13  C   UNL     1       9.301  10.173  19.155  0.00  0.00    +0.000 A 
ATOM     14  C   UNL     1       9.698  10.954  18.065  0.00  0.00    +0.000 A 
ATOM     15  C   UNL     1      10.340  12.181  18.258  0.00  0.00    +0.000 A 
ATOM     16  C   UNL     1      10.572  12.640  19.550  0.00  0.00    +0.000 A 
ATOM     17 CL   UNL     1      11.373  14.143  19.795  0.00  0.00    +0.000 Cl
ATOM     18  C   UNL     1      10.155  11.888  20.646  0.00  0.00    +0.000 A 
ATOM     19  C   UNL     1       9.516  10.654  20.449  0.00  0.00    +0.000 A 
ENDBRANCH  12  13
ENDBRANCH  11  12
ENDBRANCH   8  11
ENDBRANCH   5   7
BRANCH   1  20
ATOM     20  S   UNL     1       3.767   2.967  19.576  0.00  0.00    +0.000 S 
ATOM     21  O   UNL     1       4.963   2.615  20.320  0.00  0.00    +0.000 OA
ATOM     22  O   UNL     1       2.887   1.942  19.036  0.00  0.00    +0.000 OA
BRANCH  20  24
ATOM     23  C   UNL     1       1.310   3.758  20.517  0.00  0.00    +0.000 C 
ATOM     24  C   UNL     1       2.788   4.090  20.566  0.00  0.00    +0.000 C 
ENDBRANCH  20  24
ENDBRANCH   1  20
BRANCH   4  25
ATOM     25  O   UNL     1       5.924   5.921  14.985  0.00  0.00    +0.000 OA
ATOM     26  H   UNL     1       5.743   5.328  14.236  0.00  0.00    +0.000 HD
ENDBRANCH   4  25
TORSDOF 7
ENDMDL
MODEL 9
REMARK VINA RESULT:      -7.5      6.142      8.006
REMARK  Name = 
REMARK  8 active torsions:
REMARK  status: ('A' for Active; 'I' for Inactive)
REMARK    1  A    between atoms: C_1  and  C_2
REMARK    2  A    between atoms: C_2  and  S_3
REMARK    3  A    between atoms: S_3  and  C_6
REMARK    4  A    between atoms: C_9  and  O_10
REMARK    5  A    between atoms: C_11  and  N_12
REMARK    6  A    between atoms: C_13  and  C_15
REMARK    7  A    between atoms: C_15  and  O_16
REMARK    8  A    between atoms: O_16  and  C_17
REMARK                            x       y       z     vdW  Elec       q    Type
REMARK                         _______ _______ _______ _____ _____    ______ ____
ROOT
ATOM      1  C   UNL     1       5.521   4.869  18.370  0.00  0.00    +0.000 A 
ATOM      2  C   UNL     1       5.078   3.770  17.632  0.00  0.00    +0.000 A 
ATOM      3  C   UNL     1       3.732   3.442  17.665  0.00  0.00    +0.000 A 
ATOM      4  C   UNL     1       2.843   4.197  18.442  0.00  0.00    +0.000 A 
ATOM      5  C   UNL     1       3.282   5.234  19.280  0.00  0.00    +0.000 A 
ATOM      6  C   UNL     1       4.648   5.572  19.220  0.00  0.00    +0.000 A 
ENDROOT
BRANCH   5   7
ATOM      7  N   UNL     1       2.472   5.987  20.179  0.00  0.00    +0.000 N 
ATOM      8  C   UNL     1       2.000   7.289  20.039  0.00  0.00    +0.000 C 
ATOM      9  O   UNL     1       2.141   8.033  19.072  0.00  0.00    +0.000 OA
ATOM     10  H   UNL     1       2.115   5.480  20.979  0.00  0.00    +0.000 HD
BRANCH   8  11
ATOM     11  C   UNL     1       1.118   7.757  21.210  0.00  0.00    +0.000 C 
BRANCH  11  12
ATOM     12  O   UNL     1       1.536   9.020  21.707  0.00  0.00    +0.000 OA
BRANCH  12  13
ATOM     13  C   UNL     1       0.567   9.977  21.866  0.00  0.00    +0.000 A 
ATOM     14  C   UNL     1      -0.219   9.822  23.011  0.00  0.00    +0.000 A 
ATOM     15  C   UNL     1      -1.253  10.718  23.298  0.00  0.00    +0.000 A 
ATOM     16  C   UNL     1      -1.494  11.788  22.443  0.00  0.00    +0.000 A 
ATOM     17 CL   UNL     1      -2.774  12.887  22.783  0.00  0.00    +0.000 Cl
ATOM     18  C   UNL     1      -0.700  11.974  21.314  0.00  0.00    +0.000 A 
ATOM     19  C   UNL     1       0.333  11.070  21.026  0.00  0.00    +0.000 A 
ENDBRANCH  12  13
ENDBRANCH  11  12
ENDBRANCH   8  11
ENDBRANCH   5   7
BRANCH   1  20
ATOM     20  S   UNL     1       7.217   5.379  18.182  0.00  0.00    +0.000 S 
ATOM     21  O   UNL     1       7.824   4.499  17.200  0.00  0.00    +0.000 OA
ATOM     22  O   UNL     1       7.776   5.517  19.518  0.00  0.00    +0.000 OA
BRANCH  20  24
ATOM     23  C   UNL     1       8.131   7.959  17.951  0.00  0.00    +0.000 C 
ATOM     24  C   UNL     1       7.055   7.010  17.465  0.00  0.00    +0.000 C 
ENDBRANCH  20  24
ENDBRANCH   1  20
BRANCH   4  25
ATOM     25  O   UNL     1       1.523   3.951  18.213  0.00  0.00    +0.000 OA
ATOM     26  H   UNL     1       1.021   4.279  18.978  0.00  0.00    +0.000 HD
ENDBRANCH   4  25
TORSDOF 7
ENDMDL
