MODEL 1
REMARK VINA RESULT:      -7.3      0.000      0.000
REMARK  Name = 
REMARK  3 active torsions:
REMARK  status: ('A' for Active; 'I' for Inactive)
REMARK    1  A    between atoms: C_1  and  C_2
REMARK    2  A    between atoms: C_6  and  C_7
REMARK    3  A    between atoms: N_9  and  C_10
REMARK                            x       y       z     vdW  Elec       q    Type
REMARK                         _______ _______ _______ _____ _____    ______ ____
ROOT
ATOM      1  C   UNL     1       5.390   4.347  17.951  0.00  0.00    +0.000 C 
ATOM      2  O   UNL     1       5.958   4.097  19.009  0.00  0.00    +0.000 OA
ATOM      3  N   UNL     1       4.006   4.313  17.802  0.00  0.00    +0.000 N 
ATOM      4  H   UNL     1       3.683   4.383  16.845  0.00  0.00    +0.000 HD
ENDROOT
BRANCH   3   5
ATOM      5  C   UNL     1       3.048   4.055  18.769  0.00  0.00    +0.000 A 
ATOM      6  C   UNL     1       2.580   2.819  19.050  0.00  0.00    +0.000 A 
ATOM      7  C   UNL     1       1.558   2.632  20.068  0.00  0.00    +0.000 A 
ATOM      8  C   UNL     1       1.044   3.670  20.747  0.00  0.00    +0.000 A 
ATOM      9  C   UNL     1       1.513   4.984  20.483  0.00  0.00    +0.000 A 
ATOM     10  N   UNL     1       1.151   6.143  20.995  0.00  0.00    +0.000 NA
ATOM     11  C   UNL     1       1.922   7.077  20.359  0.00  0.00    +0.000 A 
ATOM     12  C   UNL     1       2.775   6.484  19.458  0.00  0.00    +0.000 A 
ATOM     13  N   UNL     1       2.510   5.133  19.518  0.00  0.00    +0.000 N 
ENDBRANCH   3   5
BRANCH   1  19
ATOM     14  C   UNL     1       7.486   6.715  17.470  0.00  0.00    +0.000 C 
ATOM     15  C   UNL     1       7.035   5.675  16.504  0.00  0.00    +0.000 A 
ATOM     16  N   UNL     1       7.575   5.708  15.222  0.00  0.00    +0.000 NA
ATOM     17  C   UNL     1       7.080   4.728  14.505  0.00  0.00    +0.000 A 
ATOM     18  S   UNL     1       5.967   3.703  15.300  0.00  0.00    +0.000 S 
ATOM     19  C   UNL     1       6.130   4.645  16.731  0.00  0.00    +0.000 A 
ENDBRANCH   1  19
TORSDOF 2
ENDMDL
MODEL 2
REMARK VINA RESULT:      -7.2      1.065      2.229
REMARK  Name = 
REMARK  3 active torsions:
REMARK  status: ('A' for Active; 'I' for Inactive)
REMARK    1  A    between atoms: C_1  and  C_2
REMARK    2  A    between atoms: C_6  and  C_7
REMARK    3  A    between atoms: N_9  and  C_10
REMARK                            x       y       z     vdW  Elec       q    Type
REMARK                         _______ _______ _______ _____ _____    ______ ____
ROOT
ATOM      1  C   UNL     1       5.318   4.603  17.840  0.00  0.00    +0.000 C 
ATOM      2  O   UNL     1       5.760   4.016  18.823  0.00  0.00    +0.000 OA
ATOM      3  N   UNL     1       4.015   5.088  17.764  0.00  0.00    +0.000 N 
ATOM      4  H   UNL     1       3.737   5.406  16.844  0.00  0.00    +0.000 HD
ENDROOT
BRANCH   3   5
ATOM      5  C   UNL     1       3.032   5.055  18.739  0.00  0.00    +0.000 A 
ATOM      6  C   UNL     1       2.834   6.046  19.637  0.00  0.00    +0.000 A 
ATOM      7  C   UNL     1       1.791   5.929  20.645  0.00  0.00    +0.000 A 
ATOM      8  C   UNL     1       1.007   4.841  20.722  0.00  0.00    +0.000 A 
ATOM      9  C   UNL     1       1.182   3.781  19.793  0.00  0.00    +0.000 A 
ATOM     10  N   UNL     1       0.561   2.624  19.686  0.00  0.00    +0.000 NA
ATOM     11  C   UNL     1       1.151   1.993  18.625  0.00  0.00    +0.000 A 
ATOM     12  C   UNL     1       2.134   2.777  18.067  0.00  0.00    +0.000 A 
ATOM     13  N   UNL     1       2.174   3.929  18.823  0.00  0.00    +0.000 N 
ENDBRANCH   3   5
BRANCH   1  19
ATOM     14  C   UNL     1       7.515   6.857  17.274  0.00  0.00    +0.000 C 
ATOM     15  C   UNL     1       7.061   5.767  16.367  0.00  0.00    +0.000 A 
ATOM     16  N   UNL     1       7.648   5.690  15.108  0.00  0.00    +0.000 NA
ATOM     17  C   UNL     1       7.144   4.678  14.443  0.00  0.00    +0.000 A 
ATOM     18  S   UNL     1       5.966   3.751  15.265  0.00  0.00    +0.000 S 
ATOM     19  C   UNL     1       6.112   4.787  16.632  0.00  0.00    +0.000 A 
ENDBRANCH   1  19
TORSDOF 2
ENDMDL
MODEL 3
REMARK VINA RESULT:      -6.6      1.871      5.938
REMARK  Name = 
REMARK  3 active torsions:
REMARK  status: ('A' for Active; 'I' for Inactive)
REMARK    1  A    between atoms: C_1  and  C_2
REMARK    2  A    between atoms: C_6  and  C_7
REMARK    3  A    between atoms: N_9  and  C_10
REMARK                            x       y       z     vdW  Elec       q    Type
REMARK                         _______ _______ _______ _____ _____    ______ ____
ROOT
ATOM      1  C   UNL     1       4.001   3.684  18.635  0.00  0.00    +0.000 C 
ATOM      2  O   UNL     1       5.045   3.322  19.169  0.00  0.00    +0.000 OA
ATOM      3  N   UNL     1       3.950   4.236  17.358  0.00  0.00    +0.000 N 
ATOM      4  H   UNL     1       3.054   4.635  17.107  0.00  0.00    +0.000 HD
ENDROOT
BRANCH   3   5
ATOM      5  C   UNL     1       4.993   4.430  16.468  0.00  0.00    +0.000 A 
ATOM      6  C   UNL     1       5.170   3.691  15.349  0.00  0.00    +0.000 A 
ATOM      7  C   UNL     1       6.303   3.943  14.472  0.00  0.00    +0.000 A 
ATOM      8  C   UNL     1       7.206   4.899  14.746  0.00  0.00    +0.000 A 
ATOM      9  C   UNL     1       7.051   5.699  15.910  0.00  0.00    +0.000 A 
ATOM     10  N   UNL     1       7.805   6.665  16.392  0.00  0.00    +0.000 NA
ATOM     11  C   UNL     1       7.187   7.067  17.545  0.00  0.00    +0.000 A 
ATOM     12  C   UNL     1       6.034   6.350  17.764  0.00  0.00    +0.000 A 
ATOM     13  N   UNL     1       5.943   5.451  16.722  0.00  0.00    +0.000 N 
ENDBRANCH   3   5
BRANCH   1  19
ATOM     14  C   UNL     1       2.401   6.095  19.999  0.00  0.00    +0.000 C 
ATOM     15  C   UNL     1       2.019   4.658  19.935  0.00  0.00    +0.000 A 
ATOM     16  N   UNL     1       0.820   4.282  20.532  0.00  0.00    +0.000 NA
ATOM     17  C   UNL     1       0.632   2.992  20.381  0.00  0.00    +0.000 A 
ATOM     18  S   UNL     1       1.843   2.153  19.515  0.00  0.00    +0.000 S 
ATOM     19  C   UNL     1       2.720   3.622  19.328  0.00  0.00    +0.000 A 
ENDBRANCH   1  19
TORSDOF 2
ENDMDL
MODEL 4
REMARK VINA RESULT:      -6.6      2.051      6.065
REMARK  Name = 
REMARK  3 active torsions:
REMARK  status: ('A' for Active; 'I' for Inactive)
REMARK    1  A    between atoms: C_1  and  C_2
REMARK    2  A    between atoms: C_6  and  C_7
REMARK    3  A    between atoms: N_9  and  C_10
REMARK                            x       y       z     vdW  Elec       q    Type
REMARK                         _______ _______ _______ _____ _____    ______ ____
ROOT
ATOM      1  C   UNL     1       3.110   4.472  18.121  0.00  0.00    +0.000 C 
ATOM      2  O   UNL     1       2.632   5.415  17.499  0.00  0.00    +0.000 OA
ATOM      3  N   UNL     1       4.308   3.856  17.770  0.00  0.00    +0.000 N 
ATOM      4  H   UNL     1       4.502   2.997  18.269  0.00  0.00    +0.000 HD
ENDROOT
BRANCH   3   5
ATOM      5  C   UNL     1       5.174   4.192  16.742  0.00  0.00    +0.000 A 
ATOM      6  C   UNL     1       5.214   3.547  15.555  0.00  0.00    +0.000 A 
ATOM      7  C   UNL     1       6.167   3.949  14.531  0.00  0.00    +0.000 A 
ATOM      8  C   UNL     1       7.034   4.955  14.732  0.00  0.00    +0.000 A 
ATOM      9  C   UNL     1       7.018   5.659  15.966  0.00  0.00    +0.000 A 
ATOM     10  N   UNL     1       7.773   6.649  16.397  0.00  0.00    +0.000 NA
ATOM     11  C   UNL     1       7.328   6.921  17.661  0.00  0.00    +0.000 A 
ATOM     12  C   UNL     1       6.279   6.099  18.003  0.00  0.00    +0.000 A 
ATOM     13  N   UNL     1       6.080   5.269  16.921  0.00  0.00    +0.000 N 
ENDBRANCH   3   5
BRANCH   1  19
ATOM     14  C   UNL     1       1.837   5.972  20.643  0.00  0.00    +0.000 C 
ATOM     15  C   UNL     1       1.875   4.510  20.365  0.00  0.00    +0.000 A 
ATOM     16  N   UNL     1       1.291   3.661  21.300  0.00  0.00    +0.000 NA
ATOM     17  C   UNL     1       1.405   2.416  20.903  0.00  0.00    +0.000 A 
ATOM     18  S   UNL     1       2.189   2.174  19.404  0.00  0.00    +0.000 S 
ATOM     19  C   UNL     1       2.423   3.873  19.258  0.00  0.00    +0.000 A 
ENDBRANCH   1  19
TORSDOF 2
ENDMDL
MODEL 5
REMARK VINA RESULT:      -6.6      2.479      6.198
REMARK  Name = 
REMARK  3 active torsions:
REMARK  status: ('A' for Active; 'I' for Inactive)
REMARK    1  A    between atoms: C_1  and  C_2
REMARK    2  A    between atoms: C_6  and  C_7
REMARK    3  A    between atoms: N_9  and  C_10
REMARK                            x       y       z     vdW  Elec       q    Type
REMARK                         _______ _______ _______ _____ _____    ______ ____
ROOT
ATOM      1  C   UNL     1       3.193   4.497  18.326  0.00  0.00    +0.000 C 
ATOM      2  O   UNL     1       2.701   5.452  17.733  0.00  0.00    +0.000 OA
ATOM      3  N   UNL     1       4.370   3.873  17.922  0.00  0.00    +0.000 N 
ATOM      4  H   UNL     1       4.575   3.007  18.403  0.00  0.00    +0.000 HD
ENDROOT
BRANCH   3   5
ATOM      5  C   UNL     1       5.199   4.213  16.865  0.00  0.00    +0.000 A 
ATOM      6  C   UNL     1       5.204   3.566  15.679  0.00  0.00    +0.000 A 
ATOM      7  C   UNL     1       6.119   3.971  14.623  0.00  0.00    +0.000 A 
ATOM      8  C   UNL     1       6.986   4.983  14.793  0.00  0.00    +0.000 A 
ATOM      9  C   UNL     1       7.007   5.690  16.024  0.00  0.00    +0.000 A 
ATOM     10  N   UNL     1       7.769   6.686  16.428  0.00  0.00    +0.000 NA
ATOM     11  C   UNL     1       7.364   6.958  17.706  0.00  0.00    +0.000 A 
ATOM     12  C   UNL     1       6.333   6.130  18.085  0.00  0.00    +0.000 A 
ATOM     13  N   UNL     1       6.104   5.296  17.012  0.00  0.00    +0.000 N 
ENDBRANCH   3   5
BRANCH   1  19
ATOM     14  C   UNL     1       1.886   1.585  18.527  0.00  0.00    +0.000 C 
ATOM     15  C   UNL     1       1.963   2.634  19.581  0.00  0.00    +0.000 A 
ATOM     16  N   UNL     1       1.406   2.342  20.823  0.00  0.00    +0.000 NA
ATOM     17  C   UNL     1       1.564   3.362  21.633  0.00  0.00    +0.000 A 
ATOM     18  S   UNL     1       2.388   4.713  20.987  0.00  0.00    +0.000 S 
ATOM     19  C   UNL     1       2.545   3.892  19.482  0.00  0.00    +0.000 A 
ENDBRANCH   1  19
TORSDOF 2
ENDMDL
MODEL 6
REMARK VINA RESULT:      -6.5      1.574      2.385
REMARK  Name = 
REMARK  3 active torsions:
REMARK  status: ('A' for Active; 'I' for Inactive)
REMARK    1  A    between atoms: C_1  and  C_2
REMARK    2  A    between atoms: C_6  and  C_7
REMARK    3  A    between atoms: N_9  and  C_10
REMARK                            x       y       z     vdW  Elec       q    Type
REMARK                         _______ _______ _______ _____ _____    ______ ____
ROOT
ATOM      1  C   UNL     1       5.332   4.897  18.174  0.00  0.00    +0.000 C 
ATOM      2  O   UNL     1       5.780   5.300  19.243  0.00  0.00    +0.000 OA
ATOM      3  N   UNL     1       4.092   4.276  18.053  0.00  0.00    +0.000 N 
ATOM      4  H   UNL     1       3.918   3.854  17.149  0.00  0.00    +0.000 HD
ENDROOT
BRANCH   3   5
ATOM      5  C   UNL     1       3.150   4.047  19.043  0.00  0.00    +0.000 A 
ATOM      6  C   UNL     1       1.967   4.697  19.116  0.00  0.00    +0.000 A 
ATOM      7  C   UNL     1       1.037   4.413  20.199  0.00  0.00    +0.000 A 
ATOM      8  C   UNL     1       1.324   3.515  21.155  0.00  0.00    +0.000 A 
ATOM      9  C   UNL     1       2.556   2.809  21.109  0.00  0.00    +0.000 A 
ATOM     10  N   UNL     1       3.061   1.912  21.932  0.00  0.00    +0.000 NA
ATOM     11  C   UNL     1       4.281   1.585  21.407  0.00  0.00    +0.000 A 
ATOM     12  C   UNL     1       4.521   2.277  20.243  0.00  0.00    +0.000 A 
ATOM     13  N   UNL     1       3.419   3.083  20.048  0.00  0.00    +0.000 N 
ENDBRANCH   3   5
BRANCH   1  19
ATOM     14  C   UNL     1       7.539   7.076  17.391  0.00  0.00    +0.000 C 
ATOM     15  C   UNL     1       7.051   5.928  16.579  0.00  0.00    +0.000 A 
ATOM     16  N   UNL     1       7.606   5.751  15.315  0.00  0.00    +0.000 NA
ATOM     17  C   UNL     1       7.075   4.699  14.738  0.00  0.00    +0.000 A 
ATOM     18  S   UNL     1       5.907   3.850  15.655  0.00  0.00    +0.000 S 
ATOM     19  C   UNL     1       6.098   4.982  16.937  0.00  0.00    +0.000 A 
ENDBRANCH   1  19
TORSDOF 2
ENDMDL
MODEL 7
REMARK VINA RESULT:      -6.5      2.054      2.359
REMARK  Name = 
REMARK  3 active torsions:
REMARK  status: ('A' for Active; 'I' for Inactive)
REMARK    1  A    between atoms: C_1  and  C_2
REMARK    2  A    between atoms: C_6  and  C_7
REMARK    3  A    between atoms: N_9  and  C_10
REMARK                            x       y       z     vdW  Elec       q    Type
REMARK                         _______ _______ _______ _____ _____    ______ ____
ROOT
ATOM      1  C   UNL     1       4.531   5.092  16.968  0.00  0.00    +0.000 C 
ATOM      2  O   UNL     1       4.215   6.096  17.598  0.00  0.00    +0.000 OA
ATOM      3  N   UNL     1       3.932   3.850  17.162  0.00  0.00    +0.000 N 
ATOM      4  H   UNL     1       4.395   3.081  16.693  0.00  0.00    +0.000 HD
ENDROOT
BRANCH   3   5
ATOM      5  C   UNL     1       2.889   3.528  18.014  0.00  0.00    +0.000 A 
ATOM      6  C   UNL     1       1.586   3.721  17.710  0.00  0.00    +0.000 A 
ATOM      7  C   UNL     1       0.547   3.373  18.668  0.00  0.00    +0.000 A 
ATOM      8  C   UNL     1       0.845   2.865  19.875  0.00  0.00    +0.000 A 
ATOM      9  C   UNL     1       2.203   2.643  20.228  0.00  0.00    +0.000 A 
ATOM     10  N   UNL     1       2.734   2.184  21.343  0.00  0.00    +0.000 NA
ATOM     11  C   UNL     1       4.086   2.199  21.133  0.00  0.00    +0.000 A 
ATOM     12  C   UNL     1       4.386   2.659  19.872  0.00  0.00    +0.000 A 
ATOM     13  N   UNL     1       3.178   2.964  19.283  0.00  0.00    +0.000 N 
ENDBRANCH   3   5
BRANCH   1  19
ATOM     14  C   UNL     1       7.361   6.562  17.221  0.00  0.00    +0.000 C 
ATOM     15  C   UNL     1       6.846   5.747  16.087  0.00  0.00    +0.000 A 
ATOM     16  N   UNL     1       7.676   5.582  14.982  0.00  0.00    +0.000 NA
ATOM     17  C   UNL     1       7.078   4.838  14.082  0.00  0.00    +0.000 A 
ATOM     18  S   UNL     1       5.516   4.277  14.490  0.00  0.00    +0.000 S 
ATOM     19  C   UNL     1       5.617   5.104  15.996  0.00  0.00    +0.000 A 
ENDBRANCH   1  19
TORSDOF 2
ENDMDL
MODEL 8
REMARK VINA RESULT:      -6.4      1.259      1.259
REMARK  Name = 
REMARK  3 active torsions:
REMARK  status: ('A' for Active; 'I' for Inactive)
REMARK    1  A    between atoms: C_1  and  C_2
REMARK    2  A    between atoms: C_6  and  C_7
REMARK    3  A    between atoms: N_9  and  C_10
REMARK                            x       y       z     vdW  Elec       q    Type
REMARK                         _______ _______ _______ _____ _____    ______ ____
ROOT
ATOM      1  C   UNL     1       4.562   4.206  16.899  0.00  0.00    +0.000 C 
ATOM      2  O   UNL     1       3.449   3.933  16.460  0.00  0.00    +0.000 OA
ATOM      3  N   UNL     1       4.853   4.258  18.260  0.00  0.00    +0.000 N 
ATOM      4  H   UNL     1       5.760   4.649  18.482  0.00  0.00    +0.000 HD
ENDROOT
BRANCH   3   5
ATOM      5  C   UNL     1       4.012   3.981  19.325  0.00  0.00    +0.000 A 
ATOM      6  C   UNL     1       3.966   2.784  19.951  0.00  0.00    +0.000 A 
ATOM      7  C   UNL     1       3.041   2.564  21.052  0.00  0.00    +0.000 A 
ATOM      8  C   UNL     1       2.204   3.528  21.471  0.00  0.00    +0.000 A 
ATOM      9  C   UNL     1       2.227   4.800  20.841  0.00  0.00    +0.000 A 
ATOM     10  N   UNL     1       1.498   5.877  21.057  0.00  0.00    +0.000 NA
ATOM     11  C   UNL     1       1.936   6.799  20.147  0.00  0.00    +0.000 A 
ATOM     12  C   UNL     1       2.953   6.288  19.374  0.00  0.00    +0.000 A 
ATOM     13  N   UNL     1       3.139   4.991  19.803  0.00  0.00    +0.000 N 
ENDBRANCH   3   5
BRANCH   1  19
ATOM     14  C   UNL     1       6.951   6.247  17.502  0.00  0.00    +0.000 C 
ATOM     15  C   UNL     1       6.707   5.455  16.265  0.00  0.00    +0.000 A 
ATOM     16  N   UNL     1       7.616   5.596  15.220  0.00  0.00    +0.000 NA
ATOM     17  C   UNL     1       7.262   4.831  14.215  0.00  0.00    +0.000 A 
ATOM     18  S   UNL     1       5.852   3.892  14.447  0.00  0.00    +0.000 S 
ATOM     19  C   UNL     1       5.670   4.563  16.021  0.00  0.00    +0.000 A 
ENDBRANCH   1  19
TORSDOF 2
ENDMDL
MODEL 9
REMARK VINA RESULT:      -6.4      3.547      5.289
REMARK  Name = 
REMARK  3 active torsions:
REMARK  status: ('A' for Active; 'I' for Inactive)
REMARK    1  A    between atoms: C_1  and  C_2
REMARK    2  A    between atoms: C_6  and  C_7
REMARK    3  A    between atoms: N_9  and  C_10
REMARK                            x       y       z     vdW  Elec       q    Type
REMARK                         _______ _______ _______ _____ _____    ______ ____
ROOT
ATOM      1  C   UNL     1       2.418   5.304  18.841  0.00  0.00    +0.000 C 
ATOM      2  O   UNL     1       1.752   5.225  17.814  0.00  0.00    +0.000 OA
ATOM      3  N   UNL     1       2.656   6.505  19.504  0.00  0.00    +0.000 N 
ATOM      4  H   UNL     1       3.348   6.450  20.241  0.00  0.00    +0.000 HD
ENDROOT
BRANCH   3   5
ATOM      5  C   UNL     1       2.177   7.766  19.188  0.00  0.00    +0.000 A 
ATOM      6  C   UNL     1       2.400   8.377  18.003  0.00  0.00    +0.000 A 
ATOM      7  C   UNL     1       1.878   9.712  17.754  0.00  0.00    +0.000 A 
ATOM      8  C   UNL     1       1.176  10.378  18.685  0.00  0.00    +0.000 A 
ATOM      9  C   UNL     1       0.918   9.767  19.941  0.00  0.00    +0.000 A 
ATOM     10  N   UNL     1       0.284  10.223  21.001  0.00  0.00    +0.000 NA
ATOM     11  C   UNL     1       0.355   9.218  21.927  0.00  0.00    +0.000 A 
ATOM     12  C   UNL     1       1.028   8.129  21.423  0.00  0.00    +0.000 A 
ATOM     13  N   UNL     1       1.410   8.478  20.145  0.00  0.00    +0.000 N 
ENDBRANCH   3   5
BRANCH   1  19
ATOM     14  C   UNL     1       1.244   3.294  21.035  0.00  0.00    +0.000 C 
ATOM     15  C   UNL     1       2.583   3.267  20.385  0.00  0.00    +0.000 A 
ATOM     16  N   UNL     1       3.458   2.250  20.755  0.00  0.00    +0.000 NA
ATOM     17  C   UNL     1       4.582   2.366  20.090  0.00  0.00    +0.000 A 
ATOM     18  S   UNL     1       4.669   3.664  18.981  0.00  0.00    +0.000 S 
ATOM     19  C   UNL     1       3.076   4.141  19.424  0.00  0.00    +0.000 A 
ENDBRANCH   1  19
TORSDOF 2
ENDMDL
