MODEL 1
REMARK VINA RESULT:      -7.2      0.000      0.000
REMARK  Name = 
REMARK  12 active torsions:
REMARK  status: ('A' for Active; 'I' for Inactive)
REMARK    1  A    between atoms: C_1  and  C_2
REMARK    2  A    between atoms: C_2  and  O_3
REMARK    3  A    between atoms: O_3  and  C_4
REMARK    4  A    between atoms: C_8  and  C_9
REMARK    5  A    between atoms: C_11  and  C_12
REMARK    6  A    between atoms: C_16  and  C_17
REMARK    7  A    between atoms: C_18  and  C_19
REMARK    8  A    between atoms: C_19  and  O_20
REMARK    9  A    between atoms: C_19  and  C_21
REMARK   10  A    between atoms: C_19  and  C_29
REMARK   11  A    between atoms: C_24  and  C_25
REMARK   12  A    between atoms: N_33  and  C_34
REMARK                            x       y       z     vdW  Elec       q    Type
REMARK                         _______ _______ _______ _____ _____    ______ ____
ROOT
ATOM      1  C   UNL     1       4.216   4.888  17.025  0.00  0.00    +0.000 C 
ATOM      2  C   UNL     1       3.551   5.035  18.021  0.00  0.00    +0.000 C 
ENDROOT
BRANCH   1   8
ATOM      3  C   UNL     1       6.419   5.210  15.849  0.00  0.00    +0.000 A 
ATOM      4  C   UNL     1       7.148   4.999  14.659  0.00  0.00    +0.000 A 
ATOM      5  C   UNL     1       6.579   4.378  13.531  0.00  0.00    +0.000 A 
ATOM      6  C   UNL     1       5.257   3.960  13.573  0.00  0.00    +0.000 A 
ATOM      7  C   UNL     1       4.510   4.139  14.738  0.00  0.00    +0.000 A 
ATOM      8  C   UNL     1       5.072   4.749  15.872  0.00  0.00    +0.000 A 
BRANCH   3  13
ATOM      9  C   UNL     1       7.972   8.077  17.835  0.00  0.00    +0.000 A 
ATOM     10  C   UNL     1       8.429   7.419  18.971  0.00  0.00    +0.000 A 
ATOM     11  C   UNL     1       8.243   6.046  19.106  0.00  0.00    +0.000 A 
ATOM     12  C   UNL     1       7.565   5.327  18.115  0.00  0.00    +0.000 A 
ATOM     13  C   UNL     1       7.074   5.962  16.959  0.00  0.00    +0.000 A 
ATOM     14  C   UNL     1       7.306   7.344  16.854  0.00  0.00    +0.000 A 
BRANCH   9  15
ATOM     15  O   UNL     1       8.205   9.422  17.789  0.00  0.00    +0.000 OA
BRANCH  15  17
ATOM     16  C   UNL     1       9.773  11.166  18.249  0.00  0.00    +0.000 C 
ATOM     17  C   UNL     1       8.976  10.019  18.830  0.00  0.00    +0.000 C 
ENDBRANCH  15  17
ENDBRANCH   9  15
ENDBRANCH   3  13
BRANCH   5  18
ATOM     18  C   UNL     1       7.362   4.203  12.342  0.00  0.00    +0.000 C 
ATOM     19  N   UNL     1       7.988   4.053  11.375  0.00  0.00    +0.000 NA
ENDBRANCH   5  18
ENDBRANCH   1   8
BRANCH   2  20
ATOM     20  C   UNL     1       2.797   5.205  19.294  0.00  0.00    +0.000 C 
BRANCH  20  21
ATOM     21  C   UNL     1       2.168   6.606  19.365  0.00  0.00    +0.000 A 
ATOM     22  C   UNL     1       2.186   7.458  18.244  0.00  0.00    +0.000 A 
ATOM     23  C   UNL     1       1.759   8.789  18.337  0.00  0.00    +0.000 A 
ATOM     24  C   UNL     1       1.301   9.301  19.553  0.00  0.00    +0.000 A 
ATOM     25  C   UNL     1       1.223   8.460  20.663  0.00  0.00    +0.000 A 
ATOM     26  C   UNL     1       1.642   7.126  20.567  0.00  0.00    +0.000 A 
BRANCH  24  27
ATOM     27  C   UNL     1       0.949  10.688  19.674  0.00  0.00    +0.000 C 
ATOM     28  N   UNL     1       0.641  11.801  19.772  0.00  0.00    +0.000 NA
ENDBRANCH  24  27
ENDBRANCH  20  21
BRANCH  20  29
ATOM     29  C   UNL     1       1.824   4.074  19.454  0.00  0.00    +0.000 A 
ATOM     30  C   UNL     1       0.987   3.484  18.519  0.00  0.00    +0.000 A 
ATOM     31  N   UNL     1       0.292   2.433  19.046  0.00  0.00    +0.000 NA
ATOM     32  C   UNL     1       0.700   2.348  20.288  0.00  0.00    +0.000 A 
ATOM     33  N   UNL     1       1.612   3.322  20.593  0.00  0.00    +0.000 N 
ATOM     34  C   UNL     1       2.234   3.456  21.888  0.00  0.00    +0.000 C 
ENDBRANCH  20  29
BRANCH  20  35
ATOM     35  O   UNL     1       3.731   5.063  20.361  0.00  0.00    +0.000 OA
ATOM     36  H   UNL     1       4.604   5.055  19.939  0.00  0.00    +0.000 HD
ENDBRANCH  20  35
ENDBRANCH   2  20
TORSDOF 10
ENDMDL
MODEL 2
REMARK VINA RESULT:      -7.2      7.595     11.490
REMARK  Name = 
REMARK  12 active torsions:
REMARK  status: ('A' for Active; 'I' for Inactive)
REMARK    1  A    between atoms: C_1  and  C_2
REMARK    2  A    between atoms: C_2  and  O_3
REMARK    3  A    between atoms: O_3  and  C_4
REMARK    4  A    between atoms: C_8  and  C_9
REMARK    5  A    between atoms: C_11  and  C_12
REMARK    6  A    between atoms: C_16  and  C_17
REMARK    7  A    between atoms: C_18  and  C_19
REMARK    8  A    between atoms: C_19  and  O_20
REMARK    9  A    between atoms: C_19  and  C_21
REMARK   10  A    between atoms: C_19  and  C_29
REMARK   11  A    between atoms: C_24  and  C_25
REMARK   12  A    between atoms: N_33  and  C_34
REMARK                            x       y       z     vdW  Elec       q    Type
REMARK                         _______ _______ _______ _____ _____    ______ ____
ROOT
ATOM      1  C   UNL     1      -4.240  12.456  20.397  0.00  0.00    +0.000 C 
ATOM      2  C   UNL     1      -4.446  12.887  21.505  0.00  0.00    +0.000 C 
ENDROOT
BRANCH   1   8
ATOM      3  C   UNL     1      -2.610  11.753  18.611  0.00  0.00    +0.000 A 
ATOM      4  C   UNL     1      -2.459  11.296  17.284  0.00  0.00    +0.000 A 
ATOM      5  C   UNL     1      -3.559  11.108  16.426  0.00  0.00    +0.000 A 
ATOM      6  C   UNL     1      -4.840  11.380  16.884  0.00  0.00    +0.000 A 
ATOM      7  C   UNL     1      -5.029  11.818  18.195  0.00  0.00    +0.000 A 
ATOM      8  C   UNL     1      -3.938  12.000  19.062  0.00  0.00    +0.000 A 
BRANCH   3  13
ATOM      9  C   UNL     1       0.041  11.454  21.342  0.00  0.00    +0.000 A 
ATOM     10  C   UNL     1       0.859  12.543  21.062  0.00  0.00    +0.000 A 
ATOM     11  C   UNL     1       0.562  13.384  19.992  0.00  0.00    +0.000 A 
ATOM     12  C   UNL     1      -0.541  13.118  19.174  0.00  0.00    +0.000 A 
ATOM     13  C   UNL     1      -1.382  12.016  19.416  0.00  0.00    +0.000 A 
ATOM     14  C   UNL     1      -1.059  11.209  20.521  0.00  0.00    +0.000 A 
BRANCH   9  15
ATOM     15  O   UNL     1       0.408  10.690  22.413  0.00  0.00    +0.000 OA
BRANCH  15  17
ATOM     16  C   UNL     1       1.255   8.629  21.550  0.00  0.00    +0.000 C 
ATOM     17  C   UNL     1       0.165   9.285  22.368  0.00  0.00    +0.000 C 
ENDBRANCH  15  17
ENDBRANCH   9  15
ENDBRANCH   3  13
BRANCH   5  18
ATOM     18  C   UNL     1      -3.346  10.657  15.081  0.00  0.00    +0.000 C 
ATOM     19  N   UNL     1      -3.179  10.302  13.987  0.00  0.00    +0.000 NA
ENDBRANCH   5  18
ENDBRANCH   1   8
BRANCH   2  20
ATOM     20  C   UNL     1      -4.622  13.435  22.879  0.00  0.00    +0.000 C 
BRANCH  20  21
ATOM     21  C   UNL     1      -3.321  14.091  23.368  0.00  0.00    +0.000 A 
ATOM     22  C   UNL     1      -3.232  14.621  24.670  0.00  0.00    +0.000 A 
ATOM     23  C   UNL     1      -2.111  15.358  25.078  0.00  0.00    +0.000 A 
ATOM     24  C   UNL     1      -1.052  15.580  24.195  0.00  0.00    +0.000 A 
ATOM     25  C   UNL     1      -1.095  15.017  22.919  0.00  0.00    +0.000 A 
ATOM     26  C   UNL     1      -2.212  14.273  22.516  0.00  0.00    +0.000 A 
BRANCH  24  27
ATOM     27  C   UNL     1       0.055  16.409  24.579  0.00  0.00    +0.000 C 
ATOM     28  N   UNL     1       0.961  17.060  24.896  0.00  0.00    +0.000 NA
ENDBRANCH  24  27
ENDBRANCH  20  21
BRANCH  20  29
ATOM     29  C   UNL     1      -5.824  14.332  22.909  0.00  0.00    +0.000 A 
ATOM     30  C   UNL     1      -6.969  14.258  23.689  0.00  0.00    +0.000 A 
ATOM     31  N   UNL     1      -7.813  15.307  23.460  0.00  0.00    +0.000 NA
ATOM     32  C   UNL     1      -7.202  16.042  22.564  0.00  0.00    +0.000 A 
ATOM     33  N   UNL     1      -6.007  15.494  22.184  0.00  0.00    +0.000 N 
ATOM     34  C   UNL     1      -5.121  16.100  21.219  0.00  0.00    +0.000 C 
ENDBRANCH  20  29
BRANCH  20  35
ATOM     35  O   UNL     1      -4.939  12.339  23.734  0.00  0.00    +0.000 OA
ATOM     36  H   UNL     1      -4.471  11.578  23.360  0.00  0.00    +0.000 HD
ENDBRANCH  20  35
ENDBRANCH   2  20
TORSDOF 10
ENDMDL
MODEL 3
REMARK VINA RESULT:      -7.1      0.526      1.056
REMARK  Name = 
REMARK  12 active torsions:
REMARK  status: ('A' for Active; 'I' for Inactive)
REMARK    1  A    between atoms: C_1  and  C_2
REMARK    2  A    between atoms: C_2  and  O_3
REMARK    3  A    between atoms: O_3  and  C_4
REMARK    4  A    between atoms: C_8  and  C_9
REMARK    5  A    between atoms: C_11  and  C_12
REMARK    6  A    between atoms: C_16  and  C_17
REMARK    7  A    between atoms: C_18  and  C_19
REMARK    8  A    between atoms: C_19  and  O_20
REMARK    9  A    between atoms: C_19  and  C_21
REMARK   10  A    between atoms: C_19  and  C_29
REMARK   11  A    between atoms: C_24  and  C_25
REMARK   12  A    between atoms: N_33  and  C_34
REMARK                            x       y       z     vdW  Elec       q    Type
REMARK                         _______ _______ _______ _____ _____    ______ ____
ROOT
ATOM      1  C   UNL     1       4.315   5.049  17.316  0.00  0.00    +0.000 C 
ATOM      2  C   UNL     1       3.672   5.259  18.315  0.00  0.00    +0.000 C 
ENDROOT
BRANCH   1   8
ATOM      3  C   UNL     1       6.450   5.359  16.017  0.00  0.00    +0.000 A 
ATOM      4  C   UNL     1       7.123   5.106  14.802  0.00  0.00    +0.000 A 
ATOM      5  C   UNL     1       6.512   4.423  13.734  0.00  0.00    +0.000 A 
ATOM      6  C   UNL     1       5.203   3.982  13.862  0.00  0.00    +0.000 A 
ATOM      7  C   UNL     1       4.511   4.201  15.054  0.00  0.00    +0.000 A 
ATOM      8  C   UNL     1       5.116   4.874  16.129  0.00  0.00    +0.000 A 
BRANCH   3  13
ATOM      9  C   UNL     1       8.067   8.336  17.775  0.00  0.00    +0.000 A 
ATOM     10  C   UNL     1       8.567   7.745  18.931  0.00  0.00    +0.000 A 
ATOM     11  C   UNL     1       8.389   6.382  19.151  0.00  0.00    +0.000 A 
ATOM     12  C   UNL     1       7.678   5.606  18.229  0.00  0.00    +0.000 A 
ATOM     13  C   UNL     1       7.142   6.174  17.057  0.00  0.00    +0.000 A 
ATOM     14  C   UNL     1       7.368   7.548  16.863  0.00  0.00    +0.000 A 
BRANCH   9  15
ATOM     15  O   UNL     1       8.295   9.676  17.643  0.00  0.00    +0.000 OA
BRANCH  15  17
ATOM     16  C   UNL     1       9.984  11.326  18.013  0.00  0.00    +0.000 C 
ATOM     17  C   UNL     1       9.030  10.350  18.664  0.00  0.00    +0.000 C 
ENDBRANCH  15  17
ENDBRANCH   9  15
ENDBRANCH   3  13
BRANCH   5  18
ATOM     18  C   UNL     1       7.238   4.207  12.516  0.00  0.00    +0.000 C 
ATOM     19  N   UNL     1       7.831   4.024  11.534  0.00  0.00    +0.000 NA
ENDBRANCH   5  18
ENDBRANCH   1   8
BRANCH   2  20
ATOM     20  C   UNL     1       2.939   5.559  19.576  0.00  0.00    +0.000 C 
BRANCH  20  21
ATOM     21  C   UNL     1       2.198   6.901  19.463  0.00  0.00    +0.000 A 
ATOM     22  C   UNL     1       2.197   7.620  18.252  0.00  0.00    +0.000 A 
ATOM     23  C   UNL     1       1.661   8.912  18.175  0.00  0.00    +0.000 A 
ATOM     24  C   UNL     1       1.110   9.517  19.306  0.00  0.00    +0.000 A 
ATOM     25  C   UNL     1       1.050   8.803  20.503  0.00  0.00    +0.000 A 
ATOM     26  C   UNL     1       1.579   7.507  20.577  0.00  0.00    +0.000 A 
BRANCH  24  27
ATOM     27  C   UNL     1       0.643  10.874  19.253  0.00  0.00    +0.000 C 
ATOM     28  N   UNL     1       0.288  11.977  19.211  0.00  0.00    +0.000 NA
ENDBRANCH  24  27
ENDBRANCH  20  21
BRANCH  20  29
ATOM     29  C   UNL     1       2.069   4.393  19.940  0.00  0.00    +0.000 A 
ATOM     30  C   UNL     1       1.832   3.813  21.177  0.00  0.00    +0.000 A 
ATOM     31  N   UNL     1       0.921   2.798  21.101  0.00  0.00    +0.000 NA
ATOM     32  C   UNL     1       0.574   2.751  19.838  0.00  0.00    +0.000 A 
ATOM     33  N   UNL     1       1.246   3.679  19.090  0.00  0.00    +0.000 N 
ATOM     34  C   UNL     1       1.050   3.855  17.671  0.00  0.00    +0.000 C 
ENDBRANCH  20  29
BRANCH  20  35
ATOM     35  O   UNL     1       3.910   5.654  20.616  0.00  0.00    +0.000 OA
ATOM     36  H   UNL     1       3.585   5.078  21.325  0.00  0.00    +0.000 HD
ENDBRANCH  20  35
ENDBRANCH   2  20
TORSDOF 10
ENDMDL
MODEL 4
REMARK VINA RESULT:      -7.1      8.433     11.261
REMARK  Name = 
REMARK  12 active torsions:
REMARK  status: ('A' for Active; 'I' for Inactive)
REMARK    1  A    between atoms: C_1  and  C_2
REMARK    2  A    between atoms: C_2  and  O_3
REMARK    3  A    between atoms: O_3  and  C_4
REMARK    4  A    between atoms: C_8  and  C_9
REMARK    5  A    between atoms: C_11  and  C_12
REMARK    6  A    between atoms: C_16  and  C_17
REMARK    7  A    between atoms: C_18  and  C_19
REMARK    8  A    between atoms: C_19  and  O_20
REMARK    9  A    between atoms: C_19  and  C_21
REMARK   10  A    between atoms: C_19  and  C_29
REMARK   11  A    between atoms: C_24  and  C_25
REMARK   12  A    between atoms: N_33  and  C_34
REMARK                            x       y       z     vdW  Elec       q    Type
REMARK                         _______ _______ _______ _____ _____    ______ ____
ROOT
ATOM      1  C   UNL     1      -4.067  12.462  20.019  0.00  0.00    +0.000 C 
ATOM      2  C   UNL     1      -4.268  12.885  21.130  0.00  0.00    +0.000 C 
ENDROOT
BRANCH   1   8
ATOM      3  C   UNL     1      -2.425  11.616  18.307  0.00  0.00    +0.000 A 
ATOM      4  C   UNL     1      -2.260  11.094  17.006  0.00  0.00    +0.000 A 
ATOM      5  C   UNL     1      -3.347  10.906  16.131  0.00  0.00    +0.000 A 
ATOM      6  C   UNL     1      -4.627  11.247  16.544  0.00  0.00    +0.000 A 
ATOM      7  C   UNL     1      -4.829  11.752  17.829  0.00  0.00    +0.000 A 
ATOM      8  C   UNL     1      -3.752  11.934  18.714  0.00  0.00    +0.000 A 
BRANCH   3  13
ATOM      9  C   UNL     1       0.329  11.146  20.910  0.00  0.00    +0.000 A 
ATOM     10  C   UNL     1       1.019  12.350  20.812  0.00  0.00    +0.000 A 
ATOM     11  C   UNL     1       0.601  13.324  19.909  0.00  0.00    +0.000 A 
ATOM     12  C   UNL     1      -0.495  13.083  19.071  0.00  0.00    +0.000 A 
ATOM     13  C   UNL     1      -1.206  11.870  19.130  0.00  0.00    +0.000 A 
ATOM     14  C   UNL     1      -0.764  10.926  20.073  0.00  0.00    +0.000 A 
BRANCH   9  15
ATOM     15  O   UNL     1       0.809  10.255  21.826  0.00  0.00    +0.000 OA
BRANCH  15  17
ATOM     16  C   UNL     1      -1.129  10.916  23.059  0.00  0.00    +0.000 C 
ATOM     17  C   UNL     1      -0.020   9.896  22.931  0.00  0.00    +0.000 C 
ENDBRANCH  15  17
ENDBRANCH   9  15
ENDBRANCH   3  13
BRANCH   5  18
ATOM     18  C   UNL     1      -3.121  10.387  14.813  0.00  0.00    +0.000 C 
ATOM     19  N   UNL     1      -2.937   9.977  13.742  0.00  0.00    +0.000 NA
ENDBRANCH   5  18
ENDBRANCH   1   8
BRANCH   2  20
ATOM     20  C   UNL     1      -4.473  13.347  22.531  0.00  0.00    +0.000 C 
BRANCH  20  21
ATOM     21  C   UNL     1      -3.323  14.268  22.969  0.00  0.00    +0.000 A 
ATOM     22  C   UNL     1      -2.359  14.702  22.039  0.00  0.00    +0.000 A 
ATOM     23  C   UNL     1      -1.222  15.412  22.450  0.00  0.00    +0.000 A 
ATOM     24  C   UNL     1      -1.023  15.706  23.801  0.00  0.00    +0.000 A 
ATOM     25  C   UNL     1      -1.992  15.334  24.732  0.00  0.00    +0.000 A 
ATOM     26  C   UNL     1      -3.133  14.633  24.319  0.00  0.00    +0.000 A 
BRANCH  24  27
ATOM     27  C   UNL     1       0.183  16.352  24.236  0.00  0.00    +0.000 C 
ATOM     28  N   UNL     1       1.170  16.855  24.580  0.00  0.00    +0.000 NA
ENDBRANCH  24  27
ENDBRANCH  20  21
BRANCH  20  29
ATOM     29  C   UNL     1      -5.841  13.947  22.665  0.00  0.00    +0.000 A 
ATOM     30  C   UNL     1      -6.813  13.736  23.632  0.00  0.00    +0.000 A 
ATOM     31  N   UNL     1      -7.910  14.524  23.435  0.00  0.00    +0.000 NA
ATOM     32  C   UNL     1      -7.627  15.237  22.372  0.00  0.00    +0.000 A 
ATOM     33  N   UNL     1      -6.399  14.919  21.858  0.00  0.00    +0.000 N 
ATOM     34  C   UNL     1      -5.831  15.559  20.695  0.00  0.00    +0.000 C 
ENDBRANCH  20  29
BRANCH  20  35
ATOM     35  O   UNL     1      -4.478  12.188  23.362  0.00  0.00    +0.000 OA
ATOM     36  H   UNL     1      -4.131  12.482  24.217  0.00  0.00    +0.000 HD
ENDBRANCH  20  35
ENDBRANCH   2  20
TORSDOF 10
ENDMDL
MODEL 5
REMARK VINA RESULT:      -7.1      8.091     11.151
REMARK  Name = 
REMARK  12 active torsions:
REMARK  status: ('A' for Active; 'I' for Inactive)
REMARK    1  A    between atoms: C_1  and  C_2
REMARK    2  A    between atoms: C_2  and  O_3
REMARK    3  A    between atoms: O_3  and  C_4
REMARK    4  A    between atoms: C_8  and  C_9
REMARK    5  A    between atoms: C_11  and  C_12
REMARK    6  A    between atoms: C_16  and  C_17
REMARK    7  A    between atoms: C_18  and  C_19
REMARK    8  A    between atoms: C_19  and  O_20
REMARK    9  A    between atoms: C_19  and  C_21
REMARK   10  A    between atoms: C_19  and  C_29
REMARK   11  A    between atoms: C_24  and  C_25
REMARK   12  A    between atoms: N_33  and  C_34
REMARK                            x       y       z     vdW  Elec       q    Type
REMARK                         _______ _______ _______ _____ _____    ______ ____
ROOT
ATOM      1  C   UNL     1      -4.014  12.488  20.098  0.00  0.00    +0.000 C 
ATOM      2  C   UNL     1      -4.216  12.929  21.203  0.00  0.00    +0.000 C 
ENDROOT
BRANCH   1   8
ATOM      3  C   UNL     1      -2.358  11.714  18.366  0.00  0.00    +0.000 A 
ATOM      4  C   UNL     1      -2.188  11.191  17.066  0.00  0.00    +0.000 A 
ATOM      5  C   UNL     1      -3.277  10.941  16.210  0.00  0.00    +0.000 A 
ATOM      6  C   UNL     1      -4.566  11.219  16.641  0.00  0.00    +0.000 A 
ATOM      7  C   UNL     1      -4.773  11.723  17.926  0.00  0.00    +0.000 A 
ATOM      8  C   UNL     1      -3.693  11.966  18.791  0.00  0.00    +0.000 A 
BRANCH   3  13
ATOM      9  C   UNL     1       0.561  11.335  20.797  0.00  0.00    +0.000 A 
ATOM     10  C   UNL     1       1.088  12.622  20.809  0.00  0.00    +0.000 A 
ATOM     11  C   UNL     1       0.505  13.623  20.037  0.00  0.00    +0.000 A 
ATOM     12  C   UNL     1      -0.592  13.332  19.218  0.00  0.00    +0.000 A 
ATOM     13  C   UNL     1      -1.141  12.037  19.166  0.00  0.00    +0.000 A 
ATOM     14  C   UNL     1      -0.536  11.064  19.981  0.00  0.00    +0.000 A 
BRANCH   9  15
ATOM     15  O   UNL     1       1.195  10.422  21.590  0.00  0.00    +0.000 OA
BRANCH  15  17
ATOM     16  C   UNL     1      -0.108   9.574  23.405  0.00  0.00    +0.000 C 
ATOM     17  C   UNL     1       0.467   9.280  22.037  0.00  0.00    +0.000 C 
ENDBRANCH  15  17
ENDBRANCH   9  15
ENDBRANCH   3  13
BRANCH   5  18
ATOM     18  C   UNL     1      -3.045  10.424  14.892  0.00  0.00    +0.000 C 
ATOM     19  N   UNL     1      -2.869  10.002  13.824  0.00  0.00    +0.000 NA
ENDBRANCH   5  18
ENDBRANCH   1   8
BRANCH   2  20
ATOM     20  C   UNL     1      -4.400  13.432  22.592  0.00  0.00    +0.000 C 
BRANCH  20  21
ATOM     21  C   UNL     1      -3.223  14.333  23.000  0.00  0.00    +0.000 A 
ATOM     22  C   UNL     1      -2.485  15.032  22.026  0.00  0.00    +0.000 A 
ATOM     23  C   UNL     1      -1.318  15.731  22.364  0.00  0.00    +0.000 A 
ATOM     24  C   UNL     1      -0.862  15.749  23.684  0.00  0.00    +0.000 A 
ATOM     25  C   UNL     1      -1.608  15.109  24.674  0.00  0.00    +0.000 A 
ATOM     26  C   UNL     1      -2.779  14.419  24.337  0.00  0.00    +0.000 A 
BRANCH  24  27
ATOM     27  C   UNL     1       0.380  16.387  24.017  0.00  0.00    +0.000 C 
ATOM     28  N   UNL     1       1.374  16.924  24.279  0.00  0.00    +0.000 NA
ENDBRANCH  24  27
ENDBRANCH  20  21
BRANCH  20  29
ATOM     29  C   UNL     1      -5.751  14.072  22.717  0.00  0.00    +0.000 A 
ATOM     30  C   UNL     1      -6.186  15.317  22.287  0.00  0.00    +0.000 A 
ATOM     31  N   UNL     1      -7.515  15.508  22.537  0.00  0.00    +0.000 NA
ATOM     32  C   UNL     1      -7.917  14.394  23.097  0.00  0.00    +0.000 A 
ATOM     33  N   UNL     1      -6.892  13.500  23.244  0.00  0.00    +0.000 N 
ATOM     34  C   UNL     1      -7.054  12.187  23.822  0.00  0.00    +0.000 C 
ENDBRANCH  20  29
BRANCH  20  35
ATOM     35  O   UNL     1      -4.432  12.295  23.452  0.00  0.00    +0.000 OA
ATOM     36  H   UNL     1      -3.655  12.383  24.024  0.00  0.00    +0.000 HD
ENDBRANCH  20  35
ENDBRANCH   2  20
TORSDOF 10
ENDMDL
MODEL 6
REMARK VINA RESULT:      -7.0      7.937     11.063
REMARK  Name = 
REMARK  12 active torsions:
REMARK  status: ('A' for Active; 'I' for Inactive)
REMARK    1  A    between atoms: C_1  and  C_2
REMARK    2  A    between atoms: C_2  and  O_3
REMARK    3  A    between atoms: O_3  and  C_4
REMARK    4  A    between atoms: C_8  and  C_9
REMARK    5  A    between atoms: C_11  and  C_12
REMARK    6  A    between atoms: C_16  and  C_17
REMARK    7  A    between atoms: C_18  and  C_19
REMARK    8  A    between atoms: C_19  and  O_20
REMARK    9  A    between atoms: C_19  and  C_21
REMARK   10  A    between atoms: C_19  and  C_29
REMARK   11  A    between atoms: C_24  and  C_25
REMARK   12  A    between atoms: N_33  and  C_34
REMARK                            x       y       z     vdW  Elec       q    Type
REMARK                         _______ _______ _______ _____ _____    ______ ____
ROOT
ATOM      1  C   UNL     1      -4.144  12.156  19.407  0.00  0.00    +0.000 C 
ATOM      2  C   UNL     1      -4.486  12.660  20.448  0.00  0.00    +0.000 C 
ENDROOT
BRANCH   1   8
ATOM      3  C   UNL     1      -2.404  11.332  17.783  0.00  0.00    +0.000 A 
ATOM      4  C   UNL     1      -2.168  10.801  16.497  0.00  0.00    +0.000 A 
ATOM      5  C   UNL     1      -3.207  10.578  15.575  0.00  0.00    +0.000 A 
ATOM      6  C   UNL     1      -4.513  10.892  15.924  0.00  0.00    +0.000 A 
ATOM      7  C   UNL     1      -4.786  11.405  17.193  0.00  0.00    +0.000 A 
ATOM      8  C   UNL     1      -3.756  11.622  18.124  0.00  0.00    +0.000 A 
BRANCH   3  13
ATOM      9  C   UNL     1       0.380  10.863  20.352  0.00  0.00    +0.000 A 
ATOM     10  C   UNL     1       0.907  12.147  20.436  0.00  0.00    +0.000 A 
ATOM     11  C   UNL     1       0.368  13.176  19.667  0.00  0.00    +0.000 A 
ATOM     12  C   UNL     1      -0.684  12.915  18.782  0.00  0.00    +0.000 A 
ATOM     13  C   UNL     1      -1.231  11.624  18.658  0.00  0.00    +0.000 A 
ATOM     14  C   UNL     1      -0.673  10.623  19.471  0.00  0.00    +0.000 A 
BRANCH   9  15
ATOM     15  O   UNL     1       0.969   9.922  21.147  0.00  0.00    +0.000 OA
BRANCH  15  17
ATOM     16  C   UNL     1      -0.323   9.736  23.149  0.00  0.00    +0.000 C 
ATOM     17  C   UNL     1       0.136   9.034  21.891  0.00  0.00    +0.000 C 
ENDBRANCH  15  17
ENDBRANCH   9  15
ENDBRANCH   3  13
BRANCH   5  18
ATOM     18  C   UNL     1      -2.908  10.051  14.274  0.00  0.00    +0.000 C 
ATOM     19  N   UNL     1      -2.674   9.630  13.217  0.00  0.00    +0.000 NA
ENDBRANCH   5  18
ENDBRANCH   1   8
BRANCH   2  20
ATOM     20  C   UNL     1      -4.881  13.352  21.706  0.00  0.00    +0.000 C 
BRANCH  20  21
ATOM     21  C   UNL     1      -3.687  14.118  22.298  0.00  0.00    +0.000 A 
ATOM     22  C   UNL     1      -3.269  15.340  21.735  0.00  0.00    +0.000 A 
ATOM     23  C   UNL     1      -2.092  15.970  22.162  0.00  0.00    +0.000 A 
ATOM     24  C   UNL     1      -1.306  15.396  23.163  0.00  0.00    +0.000 A 
ATOM     25  C   UNL     1      -1.730  14.215  23.773  0.00  0.00    +0.000 A 
ATOM     26  C   UNL     1      -2.912  13.590  23.352  0.00  0.00    +0.000 A 
BRANCH  24  27
ATOM     27  C   UNL     1      -0.055  15.991  23.539  0.00  0.00    +0.000 C 
ATOM     28  N   UNL     1       0.965  16.450  23.845  0.00  0.00    +0.000 NA
ENDBRANCH  24  27
ENDBRANCH  20  21
BRANCH  20  29
ATOM     29  C   UNL     1      -6.099  14.191  21.453  0.00  0.00    +0.000 A 
ATOM     30  C   UNL     1      -6.804  14.402  20.277  0.00  0.00    +0.000 A 
ATOM     31  N   UNL     1      -7.901  15.191  20.473  0.00  0.00    +0.000 NA
ATOM     32  C   UNL     1      -7.900  15.458  21.756  0.00  0.00    +0.000 A 
ATOM     33  N   UNL     1      -6.829  14.893  22.393  0.00  0.00    +0.000 N 
ATOM     34  C   UNL     1      -6.586  15.017  23.810  0.00  0.00    +0.000 C 
ENDBRANCH  20  29
BRANCH  20  35
ATOM     35  O   UNL     1      -5.291  12.348  22.631  0.00  0.00    +0.000 OA
ATOM     36  H   UNL     1      -5.005  11.508  22.242  0.00  0.00    +0.000 HD
ENDBRANCH  20  35
ENDBRANCH   2  20
TORSDOF 10
ENDMDL
MODEL 7
REMARK VINA RESULT:      -7.0      8.647     11.429
REMARK  Name = 
REMARK  12 active torsions:
REMARK  status: ('A' for Active; 'I' for Inactive)
REMARK    1  A    between atoms: C_1  and  C_2
REMARK    2  A    between atoms: C_2  and  O_3
REMARK    3  A    between atoms: O_3  and  C_4
REMARK    4  A    between atoms: C_8  and  C_9
REMARK    5  A    between atoms: C_11  and  C_12
REMARK    6  A    between atoms: C_16  and  C_17
REMARK    7  A    between atoms: C_18  and  C_19
REMARK    8  A    between atoms: C_19  and  O_20
REMARK    9  A    between atoms: C_19  and  C_21
REMARK   10  A    between atoms: C_19  and  C_29
REMARK   11  A    between atoms: C_24  and  C_25
REMARK   12  A    between atoms: N_33  and  C_34
REMARK                            x       y       z     vdW  Elec       q    Type
REMARK                         _______ _______ _______ _____ _____    ______ ____
ROOT
ATOM      1  C   UNL     1      -3.856  12.491  20.712  0.00  0.00    +0.000 C 
ATOM      2  C   UNL     1      -4.031  12.789  21.868  0.00  0.00    +0.000 C 
ENDROOT
BRANCH   1   8
ATOM      3  C   UNL     1      -2.357  11.908  18.774  0.00  0.00    +0.000 A 
ATOM      4  C   UNL     1      -2.301  11.462  17.436  0.00  0.00    +0.000 A 
ATOM      5  C   UNL     1      -3.460  11.190  16.687  0.00  0.00    +0.000 A 
ATOM      6  C   UNL     1      -4.709  11.366  17.266  0.00  0.00    +0.000 A 
ATOM      7  C   UNL     1      -4.803  11.791  18.592  0.00  0.00    +0.000 A 
ATOM      8  C   UNL     1      -3.650  12.056  19.351  0.00  0.00    +0.000 A 
BRANCH   3  13
ATOM      9  C   UNL     1       0.548  13.980  20.131  0.00  0.00    +0.000 A 
ATOM     10  C   UNL     1       1.392  12.992  20.627  0.00  0.00    +0.000 A 
ATOM     11  C   UNL     1       1.034  11.650  20.526  0.00  0.00    +0.000 A 
ATOM     12  C   UNL     1      -0.193  11.291  19.955  0.00  0.00    +0.000 A 
ATOM     13  C   UNL     1      -1.080  12.264  19.459  0.00  0.00    +0.000 A 
ATOM     14  C   UNL     1      -0.666  13.603  19.559  0.00  0.00    +0.000 A 
BRANCH   9  15
ATOM     15  O   UNL     1       0.986  15.265  20.270  0.00  0.00    +0.000 OA
BRANCH  15  17
ATOM     16  C   UNL     1      -0.375  17.221  20.454  0.00  0.00    +0.000 C 
ATOM     17  C   UNL     1       0.351  16.292  19.508  0.00  0.00    +0.000 C 
ENDBRANCH  15  17
ENDBRANCH   9  15
ENDBRANCH   3  13
BRANCH   5  18
ATOM     18  C   UNL     1      -3.345  10.754  15.325  0.00  0.00    +0.000 C 
ATOM     19  N   UNL     1      -3.249  10.413  14.218  0.00  0.00    +0.000 NA
ENDBRANCH   5  18
ENDBRANCH   1   8
BRANCH   2  20
ATOM     20  C   UNL     1      -4.294  13.092  23.302  0.00  0.00    +0.000 C 
BRANCH  20  21
ATOM     21  C   UNL     1      -3.252  14.083  23.844  0.00  0.00    +0.000 A 
ATOM     22  C   UNL     1      -2.057  14.324  23.138  0.00  0.00    +0.000 A 
ATOM     23  C   UNL     1      -1.031  15.102  23.692  0.00  0.00    +0.000 A 
ATOM     24  C   UNL     1      -1.176  15.659  24.965  0.00  0.00    +0.000 A 
ATOM     25  C   UNL     1      -2.373  15.479  25.659  0.00  0.00    +0.000 A 
ATOM     26  C   UNL     1      -3.401  14.709  25.100  0.00  0.00    +0.000 A 
BRANCH  24  27
ATOM     27  C   UNL     1      -0.092  16.380  25.572  0.00  0.00    +0.000 C 
ATOM     28  N   UNL     1       0.798  16.944  26.055  0.00  0.00    +0.000 NA
ENDBRANCH  24  27
ENDBRANCH  20  21
BRANCH  20  29
ATOM     29  C   UNL     1      -5.719  13.531  23.466  0.00  0.00    +0.000 A 
ATOM     30  C   UNL     1      -6.762  12.925  24.149  0.00  0.00    +0.000 A 
ATOM     31  N   UNL     1      -7.903  13.675  24.115  0.00  0.00    +0.000 NA
ATOM     32  C   UNL     1      -7.578  14.749  23.437  0.00  0.00    +0.000 A 
ATOM     33  N   UNL     1      -6.279  14.709  23.009  0.00  0.00    +0.000 N 
ATOM     34  C   UNL     1      -5.655  15.766  22.250  0.00  0.00    +0.000 C 
ENDBRANCH  20  29
BRANCH  20  35
ATOM     35  O   UNL     1      -4.184  11.866  24.020  0.00  0.00    +0.000 OA
ATOM     36  H   UNL     1      -4.449  11.176  23.393  0.00  0.00    +0.000 HD
ENDBRANCH  20  35
ENDBRANCH   2  20
TORSDOF 10
ENDMDL
MODEL 8
REMARK VINA RESULT:      -7.0      7.854     11.767
REMARK  Name = 
REMARK  12 active torsions:
REMARK  status: ('A' for Active; 'I' for Inactive)
REMARK    1  A    between atoms: C_1  and  C_2
REMARK    2  A    between atoms: C_2  and  O_3
REMARK    3  A    between atoms: O_3  and  C_4
REMARK    4  A    between atoms: C_8  and  C_9
REMARK    5  A    between atoms: C_11  and  C_12
REMARK    6  A    between atoms: C_16  and  C_17
REMARK    7  A    between atoms: C_18  and  C_19
REMARK    8  A    between atoms: C_19  and  O_20
REMARK    9  A    between atoms: C_19  and  C_21
REMARK   10  A    between atoms: C_19  and  C_29
REMARK   11  A    between atoms: C_24  and  C_25
REMARK   12  A    between atoms: N_33  and  C_34
REMARK                            x       y       z     vdW  Elec       q    Type
REMARK                         _______ _______ _______ _____ _____    ______ ____
ROOT
ATOM      1  C   UNL     1      -2.353  11.982  19.069  0.00  0.00    +0.000 C 
ATOM      2  C   UNL     1      -1.858  12.328  20.114  0.00  0.00    +0.000 C 
ENDROOT
BRANCH   1   8
ATOM      3  C   UNL     1      -4.261  11.647  17.461  0.00  0.00    +0.000 A 
ATOM      4  C   UNL     1      -4.649  11.151  16.197  0.00  0.00    +0.000 A 
ATOM      5  C   UNL     1      -3.736  10.529  15.324  0.00  0.00    +0.000 A 
ATOM      6  C   UNL     1      -2.410  10.387  15.705  0.00  0.00    +0.000 A 
ATOM      7  C   UNL     1      -1.988  10.879  16.941  0.00  0.00    +0.000 A 
ATOM      8  C   UNL     1      -2.890  11.509  17.816  0.00  0.00    +0.000 A 
BRANCH   3  13
ATOM      9  C   UNL     1      -6.560  12.089  20.476  0.00  0.00    +0.000 A 
ATOM     10  C   UNL     1      -7.385  13.126  20.054  0.00  0.00    +0.000 A 
ATOM     11  C   UNL     1      -7.209  13.689  18.792  0.00  0.00    +0.000 A 
ATOM     12  C   UNL     1      -6.180  13.238  17.957  0.00  0.00    +0.000 A 
ATOM     13  C   UNL     1      -5.315  12.203  18.358  0.00  0.00    +0.000 A 
ATOM     14  C   UNL     1      -5.546  11.647  19.629  0.00  0.00    +0.000 A 
BRANCH   9  15
ATOM     15  O   UNL     1      -6.812  11.596  21.724  0.00  0.00    +0.000 OA
BRANCH  15  17
ATOM     16  C   UNL     1      -6.993  12.408  23.965  0.00  0.00    +0.000 C 
ATOM     17  C   UNL     1      -7.647  12.350  22.603  0.00  0.00    +0.000 C 
ENDBRANCH  15  17
ENDBRANCH   9  15
ENDBRANCH   3  13
BRANCH   5  18
ATOM     18  C   UNL     1      -4.187  10.028  14.057  0.00  0.00    +0.000 C 
ATOM     19  N   UNL     1      -4.543   9.627  13.027  0.00  0.00    +0.000 NA
ENDBRANCH   5  18
ENDBRANCH   1   8
BRANCH   2  20
ATOM     20  C   UNL     1      -1.233  12.678  21.419  0.00  0.00    +0.000 C 
BRANCH  20  21
ATOM     21  C   UNL     1      -2.203  13.504  22.278  0.00  0.00    +0.000 A 
ATOM     22  C   UNL     1      -3.566  13.592  21.936  0.00  0.00    +0.000 A 
ATOM     23  C   UNL     1      -4.430  14.463  22.615  0.00  0.00    +0.000 A 
ATOM     24  C   UNL     1      -3.952  15.265  23.654  0.00  0.00    +0.000 A 
ATOM     25  C   UNL     1      -2.617  15.153  24.045  0.00  0.00    +0.000 A 
ATOM     26  C   UNL     1      -1.757  14.276  23.372  0.00  0.00    +0.000 A 
BRANCH  24  27
ATOM     27  C   UNL     1      -4.812  16.222  24.290  0.00  0.00    +0.000 C 
ATOM     28  N   UNL     1      -5.525  16.986  24.792  0.00  0.00    +0.000 NA
ENDBRANCH  24  27
ENDBRANCH  20  21
BRANCH  20  29
ATOM     29  C   UNL     1      -0.721  11.431  22.077  0.00  0.00    +0.000 A 
ATOM     30  C   UNL     1      -1.093  10.843  23.277  0.00  0.00    +0.000 A 
ATOM     31  N   UNL     1      -0.429   9.671  23.501  0.00  0.00    +0.000 NA
ATOM     32  C   UNL     1       0.336   9.511  22.449  0.00  0.00    +0.000 A 
ATOM     33  N   UNL     1       0.212  10.549  21.566  0.00  0.00    +0.000 N 
ATOM     34  C   UNL     1       0.931  10.625  20.317  0.00  0.00    +0.000 C 
ENDBRANCH  20  29
BRANCH  20  35
ATOM     35  O   UNL     1      -0.078  13.465  21.137  0.00  0.00    +0.000 OA
ATOM     36  H   UNL     1       0.647  13.039  21.616  0.00  0.00    +0.000 HD
ENDBRANCH  20  35
ENDBRANCH   2  20
TORSDOF 10
ENDMDL
MODEL 9
REMARK VINA RESULT:      -6.8      7.819     11.657
REMARK  Name = 
REMARK  12 active torsions:
REMARK  status: ('A' for Active; 'I' for Inactive)
REMARK    1  A    between atoms: C_1  and  C_2
REMARK    2  A    between atoms: C_2  and  O_3
REMARK    3  A    between atoms: O_3  and  C_4
REMARK    4  A    between atoms: C_8  and  C_9
REMARK    5  A    between atoms: C_11  and  C_12
REMARK    6  A    between atoms: C_16  and  C_17
REMARK    7  A    between atoms: C_18  and  C_19
REMARK    8  A    between atoms: C_19  and  O_20
REMARK    9  A    between atoms: C_19  and  C_21
REMARK   10  A    between atoms: C_19  and  C_29
REMARK   11  A    between atoms: C_24  and  C_25
REMARK   12  A    between atoms: N_33  and  C_34
REMARK                            x       y       z     vdW  Elec       q    Type
REMARK                         _______ _______ _______ _____ _____    ______ ____
ROOT
ATOM      1  C   UNL     1      -2.508  11.577  18.826  0.00  0.00    +0.000 C 
ATOM      2  C   UNL     1      -2.082  11.959  19.889  0.00  0.00    +0.000 C 
ENDROOT
BRANCH   1   8
ATOM      3  C   UNL     1      -4.356  11.314  17.136  0.00  0.00    +0.000 A 
ATOM      4  C   UNL     1      -4.689  10.909  15.825  0.00  0.00    +0.000 A 
ATOM      5  C   UNL     1      -3.732  10.387  14.936  0.00  0.00    +0.000 A 
ATOM      6  C   UNL     1      -2.413  10.254  15.347  0.00  0.00    +0.000 A 
ATOM      7  C   UNL     1      -2.045  10.658  16.631  0.00  0.00    +0.000 A 
ATOM      8  C   UNL     1      -2.992  11.190  17.523  0.00  0.00    +0.000 A 
BRANCH   3  13
ATOM      9  C   UNL     1      -6.820  13.596  18.952  0.00  0.00    +0.000 A 
ATOM     10  C   UNL     1      -7.434  12.708  19.829  0.00  0.00    +0.000 A 
ATOM     11  C   UNL     1      -7.058  11.367  19.844  0.00  0.00    +0.000 A 
ATOM     12  C   UNL     1      -6.084  10.899  18.954  0.00  0.00    +0.000 A 
ATOM     13  C   UNL     1      -5.453  11.765  18.041  0.00  0.00    +0.000 A 
ATOM     14  C   UNL     1      -5.846  13.114  18.078  0.00  0.00    +0.000 A 
BRANCH   9  15
ATOM     15  O   UNL     1      -7.250  14.890  19.014  0.00  0.00    +0.000 OA
BRANCH  15  17
ATOM     16  C   UNL     1      -7.042  16.648  20.619  0.00  0.00    +0.000 C 
ATOM     17  C   UNL     1      -6.356  15.886  19.507  0.00  0.00    +0.000 C 
ENDBRANCH  15  17
ENDBRANCH   9  15
ENDBRANCH   3  13
BRANCH   5  18
ATOM     18  C   UNL     1      -4.129   9.976  13.620  0.00  0.00    +0.000 C 
ATOM     19  N   UNL     1      -4.458   9.635  12.559  0.00  0.00    +0.000 NA
ENDBRANCH   5  18
ENDBRANCH   1   8
BRANCH   2  20
ATOM     20  C   UNL     1      -1.497  12.467  21.160  0.00  0.00    +0.000 C 
BRANCH  20  21
ATOM     21  C   UNL     1      -2.559  13.215  21.982  0.00  0.00    +0.000 A 
ATOM     22  C   UNL     1      -3.926  12.917  21.828  0.00  0.00    +0.000 A 
ATOM     23  C   UNL     1      -4.913  13.693  22.451  0.00  0.00    +0.000 A 
ATOM     24  C   UNL     1      -4.557  14.786  23.244  0.00  0.00    +0.000 A 
ATOM     25  C   UNL     1      -3.206  15.066  23.455  0.00  0.00    +0.000 A 
ATOM     26  C   UNL     1      -2.220  14.284  22.839  0.00  0.00    +0.000 A 
BRANCH  24  27
ATOM     27  C   UNL     1      -5.566  15.636  23.809  0.00  0.00    +0.000 C 
ATOM     28  N   UNL     1      -6.396  16.317  24.247  0.00  0.00    +0.000 NA
ENDBRANCH  24  27
ENDBRANCH  20  21
BRANCH  20  29
ATOM     29  C   UNL     1      -0.825  11.339  21.886  0.00  0.00    +0.000 A 
ATOM     30  C   UNL     1      -1.083  10.813  23.143  0.00  0.00    +0.000 A 
ATOM     31  N   UNL     1      -0.285   9.741  23.423  0.00  0.00    +0.000 NA
ATOM     32  C   UNL     1       0.452   9.580  22.352  0.00  0.00    +0.000 A 
ATOM     33  N   UNL     1       0.180  10.525  21.400  0.00  0.00    +0.000 N 
ATOM     34  C   UNL     1       0.837  10.577  20.116  0.00  0.00    +0.000 C 
ENDBRANCH  20  29
BRANCH  20  35
ATOM     35  O   UNL     1      -0.455  13.376  20.813  0.00  0.00    +0.000 OA
ATOM     36  H   UNL     1      -0.219  13.824  21.638  0.00  0.00    +0.000 HD
ENDBRANCH  20  35
ENDBRANCH   2  20
TORSDOF 10
ENDMDL
