MODEL 1
REMARK VINA RESULT:      -8.5      0.000      0.000
REMARK  Name = 
REMARK  4 active torsions:
REMARK  status: ('A' for Active; 'I' for Inactive)
REMARK    1  A    between atoms: C_1  and  C_2
REMARK    2  A    between atoms: C_8  and  S_9
REMARK    3  A    between atoms: S_9  and  C_12
REMARK    4  A    between atoms: C_20  and  N_21
REMARK                            x       y       z     vdW  Elec       q    Type
REMARK                         _______ _______ _______ _____ _____    ______ ____
ROOT
ATOM      1  C   UNL     1      -0.134   9.184  20.871  0.00  0.00    +0.000 C 
ATOM      2  C   UNL     1       0.949   8.897  19.871  0.00  0.00    +0.000 A 
ATOM      3  C   UNL     1       1.217   9.728  18.804  0.00  0.00    +0.000 A 
ATOM      4  C   UNL     1       2.202   9.353  17.898  0.00  0.00    +0.000 A 
ATOM      5  C   UNL     1       2.848   8.123  17.971  0.00  0.00    +0.000 A 
ATOM      6  N   UNL     1       3.770   7.909  17.039  0.00  0.00    +0.000 NA
ATOM      7  C   UNL     1       4.407   6.726  17.039  0.00  0.00    +0.000 A 
ATOM      8  C   UNL     1       4.125   5.653  17.884  0.00  0.00    +0.000 A 
ATOM      9  C   UNL     1       3.127   5.805  18.893  0.00  0.00    +0.000 A 
ATOM     10  C   UNL     1       2.543   7.173  18.980  0.00  0.00    +0.000 A 
ATOM     11  C   UNL     1       1.670   7.698  19.980  0.00  0.00    +0.000 A 
ENDROOT
BRANCH   9  12
ATOM     12  N   UNL     1       2.588   4.704  19.640  0.00  0.00    +0.000 N 
ATOM     13  C   UNL     1       2.523   4.766  21.125  0.00  0.00    +0.000 C 
ATOM     14  C   UNL     1       2.271   3.354  21.704  0.00  0.00    +0.000 C 
ATOM     15  O   UNL     1       1.023   2.819  21.256  0.00  0.00    +0.000 OA
ATOM     16  C   UNL     1       1.061   2.674  19.834  0.00  0.00    +0.000 C 
ATOM     17  C   UNL     1       1.354   4.012  19.154  0.00  0.00    +0.000 C 
ENDBRANCH   9  12
BRANCH   8  18
ATOM     18  S   UNL     1       5.082   4.224  17.430  0.00  0.00    +0.000 S 
ATOM     19  O   UNL     1       6.304   4.216  18.220  0.00  0.00    +0.000 OA
ATOM     20  O   UNL     1       4.197   3.073  17.533  0.00  0.00    +0.000 OA
BRANCH  18  21
ATOM     21  C   UNL     1       5.681   4.330  15.769  0.00  0.00    +0.000 A 
ATOM     22  C   UNL     1       6.921   4.922  15.527  0.00  0.00    +0.000 A 
ATOM     23  C   UNL     1       7.369   5.022  14.215  0.00  0.00    +0.000 A 
ATOM     24  F   UNL     1       8.548   5.607  13.970  0.00  0.00    +0.000 F 
ATOM     25  C   UNL     1       6.616   4.535  13.153  0.00  0.00    +0.000 A 
ATOM     26  C   UNL     1       5.404   3.906  13.420  0.00  0.00    +0.000 A 
ATOM     27  F   UNL     1       4.677   3.427  12.404  0.00  0.00    +0.000 F 
ATOM     28  C   UNL     1       4.927   3.791  14.720  0.00  0.00    +0.000 A 
ENDBRANCH  18  21
ENDBRANCH   8  18
TORSDOF 3
ENDMDL
MODEL 2
REMARK VINA RESULT:      -8.5      0.062      1.556
REMARK  Name = 
REMARK  4 active torsions:
REMARK  status: ('A' for Active; 'I' for Inactive)
REMARK    1  A    between atoms: C_1  and  C_2
REMARK    2  A    between atoms: C_8  and  S_9
REMARK    3  A    between atoms: S_9  and  C_12
REMARK    4  A    between atoms: C_20  and  N_21
REMARK                            x       y       z     vdW  Elec       q    Type
REMARK                         _______ _______ _______ _____ _____    ______ ____
ROOT
ATOM      1  C   UNL     1      -0.188   9.187  20.821  0.00  0.00    +0.000 C 
ATOM      2  C   UNL     1       0.908   8.911  19.833  0.00  0.00    +0.000 A 
ATOM      3  C   UNL     1       1.181   9.746  18.770  0.00  0.00    +0.000 A 
ATOM      4  C   UNL     1       2.179   9.382  17.875  0.00  0.00    +0.000 A 
ATOM      5  C   UNL     1       2.835   8.157  17.953  0.00  0.00    +0.000 A 
ATOM      6  N   UNL     1       3.769   7.953  17.031  0.00  0.00    +0.000 NA
ATOM      7  C   UNL     1       4.416   6.775  17.036  0.00  0.00    +0.000 A 
ATOM      8  C   UNL     1       4.135   5.699  17.876  0.00  0.00    +0.000 A 
ATOM      9  C   UNL     1       3.124   5.840  18.874  0.00  0.00    +0.000 A 
ATOM     10  C   UNL     1       2.527   7.203  18.957  0.00  0.00    +0.000 A 
ATOM     11  C   UNL     1       1.638   7.718  19.948  0.00  0.00    +0.000 A 
ENDROOT
BRANCH   9  12
ATOM     12  N   UNL     1       2.586   4.733  19.613  0.00  0.00    +0.000 N 
ATOM     13  C   UNL     1       2.512   4.788  21.098  0.00  0.00    +0.000 C 
ATOM     14  C   UNL     1       2.264   3.373  21.670  0.00  0.00    +0.000 C 
ATOM     15  O   UNL     1       1.022   2.833  21.212  0.00  0.00    +0.000 OA
ATOM     16  C   UNL     1       1.069   2.694  19.790  0.00  0.00    +0.000 C 
ATOM     17  C   UNL     1       1.359   4.037  19.117  0.00  0.00    +0.000 C 
ENDBRANCH   9  12
BRANCH   8  18
ATOM     18  S   UNL     1       5.108   4.278  17.430  0.00  0.00    +0.000 S 
ATOM     19  O   UNL     1       6.325   4.283  18.231  0.00  0.00    +0.000 OA
ATOM     20  O   UNL     1       4.234   3.119  17.526  0.00  0.00    +0.000 OA
BRANCH  18  21
ATOM     21  C   UNL     1       5.721   4.390  15.774  0.00  0.00    +0.000 A 
ATOM     22  C   UNL     1       4.963   3.861  14.729  0.00  0.00    +0.000 A 
ATOM     23  C   UNL     1       5.467   3.933  13.436  0.00  0.00    +0.000 A 
ATOM     24  F   UNL     1       4.757   3.411  12.428  0.00  0.00    +0.000 F 
ATOM     25  C   UNL     1       6.694   4.529  13.168  0.00  0.00    +0.000 A 
ATOM     26  C   UNL     1       7.413   5.092  14.219  0.00  0.00    +0.000 A 
ATOM     27  F   UNL     1       8.591   5.674  13.969  0.00  0.00    +0.000 F 
ATOM     28  C   UNL     1       6.937   5.036  15.523  0.00  0.00    +0.000 A 
ENDBRANCH  18  21
ENDBRANCH   8  18
TORSDOF 3
ENDMDL
MODEL 3
REMARK VINA RESULT:      -7.3      3.176      6.500
REMARK  Name = 
REMARK  4 active torsions:
REMARK  status: ('A' for Active; 'I' for Inactive)
REMARK    1  A    between atoms: C_1  and  C_2
REMARK    2  A    between atoms: C_8  and  S_9
REMARK    3  A    between atoms: S_9  and  C_12
REMARK    4  A    between atoms: C_20  and  N_21
REMARK                            x       y       z     vdW  Elec       q    Type
REMARK                         _______ _______ _______ _____ _____    ______ ____
ROOT
ATOM      1  C   UNL     1       4.308   3.156  11.517  0.00  0.00    +0.000 C 
ATOM      2  C   UNL     1       5.204   3.679  12.602  0.00  0.00    +0.000 A 
ATOM      3  C   UNL     1       6.562   3.851  12.430  0.00  0.00    +0.000 A 
ATOM      4  C   UNL     1       7.321   4.289  13.509  0.00  0.00    +0.000 A 
ATOM      5  C   UNL     1       6.779   4.454  14.779  0.00  0.00    +0.000 A 
ATOM      6  N   UNL     1       7.626   4.883  15.707  0.00  0.00    +0.000 NA
ATOM      7  C   UNL     1       7.168   5.033  16.962  0.00  0.00    +0.000 A 
ATOM      8  C   UNL     1       5.891   4.693  17.404  0.00  0.00    +0.000 A 
ATOM      9  C   UNL     1       4.936   4.201  16.465  0.00  0.00    +0.000 A 
ATOM     10  C   UNL     1       5.411   4.190  15.053  0.00  0.00    +0.000 A 
ATOM     11  C   UNL     1       4.656   3.934  13.869  0.00  0.00    +0.000 A 
ENDROOT
BRANCH   9  12
ATOM     12  N   UNL     1       3.694   3.592  16.849  0.00  0.00    +0.000 N 
ATOM     13  C   UNL     1       3.685   2.415  17.759  0.00  0.00    +0.000 C 
ATOM     14  C   UNL     1       2.303   1.723  17.717  0.00  0.00    +0.000 C 
ATOM     15  O   UNL     1       1.264   2.599  18.161  0.00  0.00    +0.000 OA
ATOM     16  C   UNL     1       1.185   3.717  17.273  0.00  0.00    +0.000 C 
ATOM     17  C   UNL     1       2.523   4.454  17.199  0.00  0.00    +0.000 C 
ENDBRANCH   9  12
BRANCH   8  18
ATOM     18  S   UNL     1       5.761   4.889  19.168  0.00  0.00    +0.000 S 
ATOM     19  O   UNL     1       5.881   3.577  19.788  0.00  0.00    +0.000 OA
ATOM     20  O   UNL     1       6.720   5.914  19.551  0.00  0.00    +0.000 OA
BRANCH  18  21
ATOM     21  C   UNL     1       4.144   5.415  19.656  0.00  0.00    +0.000 A 
ATOM     22  C   UNL     1       3.343   4.553  20.406  0.00  0.00    +0.000 A 
ATOM     23  C   UNL     1       2.066   4.969  20.762  0.00  0.00    +0.000 A 
ATOM     24  F   UNL     1       1.281   4.142  21.463  0.00  0.00    +0.000 F 
ATOM     25  C   UNL     1       1.583   6.221  20.399  0.00  0.00    +0.000 A 
ATOM     26  C   UNL     1       2.416   7.085  19.692  0.00  0.00    +0.000 A 
ATOM     27  F   UNL     1       1.962   8.294  19.345  0.00  0.00    +0.000 F 
ATOM     28  C   UNL     1       3.697   6.699  19.320  0.00  0.00    +0.000 A 
ENDBRANCH  18  21
ENDBRANCH   8  18
TORSDOF 3
ENDMDL
MODEL 4
REMARK VINA RESULT:      -7.3      3.095      6.493
REMARK  Name = 
REMARK  4 active torsions:
REMARK  status: ('A' for Active; 'I' for Inactive)
REMARK    1  A    between atoms: C_1  and  C_2
REMARK    2  A    between atoms: C_8  and  S_9
REMARK    3  A    between atoms: S_9  and  C_12
REMARK    4  A    between atoms: C_20  and  N_21
REMARK                            x       y       z     vdW  Elec       q    Type
REMARK                         _______ _______ _______ _____ _____    ______ ____
ROOT
ATOM      1  C   UNL     1       4.677   2.503  11.377  0.00  0.00    +0.000 C 
ATOM      2  C   UNL     1       5.466   3.377  12.308  0.00  0.00    +0.000 A 
ATOM      3  C   UNL     1       6.721   3.856  11.997  0.00  0.00    +0.000 A 
ATOM      4  C   UNL     1       7.400   4.613  12.944  0.00  0.00    +0.000 A 
ATOM      5  C   UNL     1       6.905   4.810  14.229  0.00  0.00    +0.000 A 
ATOM      6  N   UNL     1       7.663   5.560  15.021  0.00  0.00    +0.000 NA
ATOM      7  C   UNL     1       7.252   5.762  16.285  0.00  0.00    +0.000 A 
ATOM      8  C   UNL     1       6.133   5.179  16.876  0.00  0.00    +0.000 A 
ATOM      9  C   UNL     1       5.287   4.340  16.090  0.00  0.00    +0.000 A 
ATOM     10  C   UNL     1       5.670   4.254  14.653  0.00  0.00    +0.000 A 
ATOM     11  C   UNL     1       4.942   3.658  13.579  0.00  0.00    +0.000 A 
ENDROOT
BRANCH   9  12
ATOM     12  N   UNL     1       4.268   3.499  16.652  0.00  0.00    +0.000 N 
ATOM     13  C   UNL     1       4.607   2.522  17.722  0.00  0.00    +0.000 C 
ATOM     14  C   UNL     1       3.460   1.497  17.887  0.00  0.00    +0.000 C 
ATOM     15  O   UNL     1       2.241   2.133  18.276  0.00  0.00    +0.000 OA
ATOM     16  C   UNL     1       1.834   3.035  17.244  0.00  0.00    +0.000 C 
ATOM     17  C   UNL     1       2.922   4.073  16.962  0.00  0.00    +0.000 C 
ENDBRANCH   9  12
BRANCH   8  18
ATOM     18  S   UNL     1       6.054   5.576  18.609  0.00  0.00    +0.000 S 
ATOM     19  O   UNL     1       6.416   4.389  19.371  0.00  0.00    +0.000 OA
ATOM     20  O   UNL     1       6.849   6.779  18.803  0.00  0.00    +0.000 OA
BRANCH  18  21
ATOM     21  C   UNL     1       4.398   5.901  19.138  0.00  0.00    +0.000 A 
ATOM     22  C   UNL     1       3.714   6.995  18.608  0.00  0.00    +0.000 A 
ATOM     23  C   UNL     1       2.422   7.254  19.051  0.00  0.00    +0.000 A 
ATOM     24  F   UNL     1       1.764   8.313  18.564  0.00  0.00    +0.000 F 
ATOM     25  C   UNL     1       1.803   6.441  19.993  0.00  0.00    +0.000 A 
ATOM     26  C   UNL     1       2.484   5.327  20.474  0.00  0.00    +0.000 A 
ATOM     27  F   UNL     1       1.892   4.535  21.375  0.00  0.00    +0.000 F 
ATOM     28  C   UNL     1       3.777   5.041  20.052  0.00  0.00    +0.000 A 
ENDBRANCH  18  21
ENDBRANCH   8  18
TORSDOF 3
ENDMDL
MODEL 5
REMARK VINA RESULT:      -7.2      1.291      1.767
REMARK  Name = 
REMARK  4 active torsions:
REMARK  status: ('A' for Active; 'I' for Inactive)
REMARK    1  A    between atoms: C_1  and  C_2
REMARK    2  A    between atoms: C_8  and  S_9
REMARK    3  A    between atoms: S_9  and  C_12
REMARK    4  A    between atoms: C_20  and  N_21
REMARK                            x       y       z     vdW  Elec       q    Type
REMARK                         _______ _______ _______ _____ _____    ______ ____
ROOT
ATOM      1  C   UNL     1      -0.256   9.225  22.403  0.00  0.00    +0.000 C 
ATOM      2  C   UNL     1       0.586   8.993  21.182  0.00  0.00    +0.000 A 
ATOM      3  C   UNL     1       0.686   9.913  20.160  0.00  0.00    +0.000 A 
ATOM      4  C   UNL     1       1.446   9.588  19.043  0.00  0.00    +0.000 A 
ATOM      5  C   UNL     1       2.017   8.332  18.873  0.00  0.00    +0.000 A 
ATOM      6  N   UNL     1       2.720   8.172  17.758  0.00  0.00    +0.000 NA
ATOM      7  C   UNL     1       3.271   6.969  17.524  0.00  0.00    +0.000 A 
ATOM      8  C   UNL     1       3.099   5.831  18.311  0.00  0.00    +0.000 A 
ATOM      9  C   UNL     1       2.333   5.924  19.511  0.00  0.00    +0.000 A 
ATOM     10  C   UNL     1       1.863   7.300  19.836  0.00  0.00    +0.000 A 
ATOM     11  C   UNL     1       1.240   7.760  21.036  0.00  0.00    +0.000 A 
ENDROOT
BRANCH   9  12
ATOM     12  N   UNL     1       1.887   4.778  20.253  0.00  0.00    +0.000 N 
ATOM     13  C   UNL     1       1.136   3.690  19.572  0.00  0.00    +0.000 C 
ATOM     14  C   UNL     1       0.451   2.782  20.620  0.00  0.00    +0.000 C 
ATOM     15  O   UNL     1       1.409   2.154  21.476  0.00  0.00    +0.000 OA
ATOM     16  C   UNL     1       2.112   3.160  22.208  0.00  0.00    +0.000 C 
ATOM     17  C   UNL     1       2.795   4.150  21.262  0.00  0.00    +0.000 C 
ENDBRANCH   9  12
BRANCH   8  18
ATOM     18  S   UNL     1       3.857   4.414  17.547  0.00  0.00    +0.000 S 
ATOM     19  O   UNL     1       4.438   3.583  18.592  0.00  0.00    +0.000 OA
ATOM     20  O   UNL     1       2.855   3.816  16.678  0.00  0.00    +0.000 OA
BRANCH  18  21
ATOM     21  C   UNL     1       5.260   4.863  16.568  0.00  0.00    +0.000 A 
ATOM     22  C   UNL     1       6.156   5.817  17.054  0.00  0.00    +0.000 A 
ATOM     23  C   UNL     1       7.240   6.179  16.264  0.00  0.00    +0.000 A 
ATOM     24  F   UNL     1       8.093   7.107  16.713  0.00  0.00    +0.000 F 
ATOM     25  C   UNL     1       7.452   5.603  15.017  0.00  0.00    +0.000 A 
ATOM     26  C   UNL     1       6.574   4.620  14.570  0.00  0.00    +0.000 A 
ATOM     27  F   UNL     1       6.776   4.055  13.374  0.00  0.00    +0.000 F 
ATOM     28  C   UNL     1       5.479   4.236  15.335  0.00  0.00    +0.000 A 
ENDBRANCH  18  21
ENDBRANCH   8  18
TORSDOF 3
ENDMDL
MODEL 6
REMARK VINA RESULT:      -7.1      5.031      7.690
REMARK  Name = 
REMARK  4 active torsions:
REMARK  status: ('A' for Active; 'I' for Inactive)
REMARK    1  A    between atoms: C_1  and  C_2
REMARK    2  A    between atoms: C_8  and  S_9
REMARK    3  A    between atoms: S_9  and  C_12
REMARK    4  A    between atoms: C_20  and  N_21
REMARK                            x       y       z     vdW  Elec       q    Type
REMARK                         _______ _______ _______ _____ _____    ______ ____
ROOT
ATOM      1  C   UNL     1       2.241   3.195  21.799  0.00  0.00    +0.000 C 
ATOM      2  C   UNL     1       2.433   4.178  20.681  0.00  0.00    +0.000 A 
ATOM      3  C   UNL     1       3.314   3.961  19.642  0.00  0.00    +0.000 A 
ATOM      4  C   UNL     1       3.466   4.952  18.680  0.00  0.00    +0.000 A 
ATOM      5  C   UNL     1       2.847   6.193  18.787  0.00  0.00    +0.000 A 
ATOM      6  N   UNL     1       3.083   7.035  17.788  0.00  0.00    +0.000 NA
ATOM      7  C   UNL     1       2.535   8.261  17.851  0.00  0.00    +0.000 A 
ATOM      8  C   UNL     1       1.805   8.769  18.923  0.00  0.00    +0.000 A 
ATOM      9  C   UNL     1       1.535   7.926  20.044  0.00  0.00    +0.000 A 
ATOM     10  C   UNL     1       2.014   6.524  19.888  0.00  0.00    +0.000 A 
ATOM     11  C   UNL     1       1.749   5.402  20.730  0.00  0.00    +0.000 A 
ENDROOT
BRANCH   9  12
ATOM     12  N   UNL     1       1.019   8.414  21.291  0.00  0.00    +0.000 N 
ATOM     13  C   UNL     1       1.887   9.207  22.203  0.00  0.00    +0.000 C 
ATOM     14  C   UNL     1       1.247   9.286  23.609  0.00  0.00    +0.000 C 
ATOM     15  O   UNL     1      -0.024   9.941  23.570  0.00  0.00    +0.000 OA
ATOM     16  C   UNL     1      -0.919   9.176  22.759  0.00  0.00    +0.000 C 
ATOM     17  C   UNL     1      -0.359   8.993  21.347  0.00  0.00    +0.000 C 
ENDBRANCH   9  12
BRANCH   8  18
ATOM     18  S   UNL     1       1.418  10.486  18.668  0.00  0.00    +0.000 S 
ATOM     19  O   UNL     1       1.728  11.216  19.889  0.00  0.00    +0.000 OA
ATOM     20  O   UNL     1       2.089  10.893  17.443  0.00  0.00    +0.000 OA
BRANCH  18  21
ATOM     21  C   UNL     1      -0.321  10.750  18.476  0.00  0.00    +0.000 A 
ATOM     22  C   UNL     1      -0.937  11.782  19.184  0.00  0.00    +0.000 A 
ATOM     23  C   UNL     1      -2.308  11.963  19.043  0.00  0.00    +0.000 A 
ATOM     24  F   UNL     1      -2.912  12.937  19.734  0.00  0.00    +0.000 F 
ATOM     25  C   UNL     1      -3.064  11.150  18.207  0.00  0.00    +0.000 A 
ATOM     26  C   UNL     1      -2.423  10.156  17.473  0.00  0.00    +0.000 A 
ATOM     27  F   UNL     1      -3.142   9.374  16.661  0.00  0.00    +0.000 F 
ATOM     28  C   UNL     1      -1.054   9.949  17.592  0.00  0.00    +0.000 A 
ENDBRANCH  18  21
ENDBRANCH   8  18
TORSDOF 3
ENDMDL
MODEL 7
REMARK VINA RESULT:      -7.1      5.005      7.787
REMARK  Name = 
REMARK  4 active torsions:
REMARK  status: ('A' for Active; 'I' for Inactive)
REMARK    1  A    between atoms: C_1  and  C_2
REMARK    2  A    between atoms: C_8  and  S_9
REMARK    3  A    between atoms: S_9  and  C_12
REMARK    4  A    between atoms: C_20  and  N_21
REMARK                            x       y       z     vdW  Elec       q    Type
REMARK                         _______ _______ _______ _____ _____    ______ ____
ROOT
ATOM      1  C   UNL     1       2.371   3.199  21.645  0.00  0.00    +0.000 C 
ATOM      2  C   UNL     1       2.521   4.211  20.546  0.00  0.00    +0.000 A 
ATOM      3  C   UNL     1       3.380   4.033  19.482  0.00  0.00    +0.000 A 
ATOM      4  C   UNL     1       3.493   5.049  18.540  0.00  0.00    +0.000 A 
ATOM      5  C   UNL     1       2.855   6.276  18.691  0.00  0.00    +0.000 A 
ATOM      6  N   UNL     1       3.053   7.145  17.706  0.00  0.00    +0.000 NA
ATOM      7  C   UNL     1       2.486   8.359  17.810  0.00  0.00    +0.000 A 
ATOM      8  C   UNL     1       1.772   8.829  18.911  0.00  0.00    +0.000 A 
ATOM      9  C   UNL     1       1.544   7.956  20.017  0.00  0.00    +0.000 A 
ATOM     10  C   UNL     1       2.042   6.566  19.818  0.00  0.00    +0.000 A 
ATOM     11  C   UNL     1       1.816   5.421  20.640  0.00  0.00    +0.000 A 
ENDROOT
BRANCH   9  12
ATOM     12  N   UNL     1       1.048   8.406  21.288  0.00  0.00    +0.000 N 
ATOM     13  C   UNL     1       1.921   9.200  22.194  0.00  0.00    +0.000 C 
ATOM     14  C   UNL     1       1.315   9.235  23.617  0.00  0.00    +0.000 C 
ATOM     15  O   UNL     1       0.030   9.861  23.624  0.00  0.00    +0.000 OA
ATOM     16  C   UNL     1      -0.868   9.093  22.819  0.00  0.00    +0.000 C 
ATOM     17  C   UNL     1      -0.340   8.952  21.390  0.00  0.00    +0.000 C 
ENDBRANCH   9  12
BRANCH   8  18
ATOM     18  S   UNL     1       1.350  10.545  18.705  0.00  0.00    +0.000 S 
ATOM     19  O   UNL     1       1.606  11.237  19.960  0.00  0.00    +0.000 OA
ATOM     20  O   UNL     1       2.047  11.012  17.516  0.00  0.00    +0.000 OA
BRANCH  18  21
ATOM     21  C   UNL     1      -0.388  10.774  18.469  0.00  0.00    +0.000 A 
ATOM     22  C   UNL     1      -1.070   9.949  17.573  0.00  0.00    +0.000 A 
ATOM     23  C   UNL     1      -2.430  10.157  17.379  0.00  0.00    +0.000 A 
ATOM     24  F   UNL     1      -3.090   9.385  16.507  0.00  0.00    +0.000 F 
ATOM     25  C   UNL     1      -3.118  11.151  18.064  0.00  0.00    +0.000 A 
ATOM     26  C   UNL     1      -2.429  11.932  18.988  0.00  0.00    +0.000 A 
ATOM     27  F   UNL     1      -3.085  12.886  19.658  0.00  0.00    +0.000 F 
ATOM     28  C   UNL     1      -1.068  11.751  19.205  0.00  0.00    +0.000 A 
ENDBRANCH  18  21
ENDBRANCH   8  18
TORSDOF 3
ENDMDL
MODEL 8
REMARK VINA RESULT:      -7.1      1.149      2.112
REMARK  Name = 
REMARK  4 active torsions:
REMARK  status: ('A' for Active; 'I' for Inactive)
REMARK    1  A    between atoms: C_1  and  C_2
REMARK    2  A    between atoms: C_8  and  S_9
REMARK    3  A    between atoms: S_9  and  C_12
REMARK    4  A    between atoms: C_20  and  N_21
REMARK                            x       y       z     vdW  Elec       q    Type
REMARK                         _______ _______ _______ _____ _____    ______ ____
ROOT
ATOM      1  C   UNL     1      -0.157   9.335  22.171  0.00  0.00    +0.000 C 
ATOM      2  C   UNL     1       0.699   9.054  20.970  0.00  0.00    +0.000 A 
ATOM      3  C   UNL     1       0.831   9.944  19.924  0.00  0.00    +0.000 A 
ATOM      4  C   UNL     1       1.601   9.574  18.828  0.00  0.00    +0.000 A 
ATOM      5  C   UNL     1       2.151   8.303  18.701  0.00  0.00    +0.000 A 
ATOM      6  N   UNL     1       2.867   8.100  17.601  0.00  0.00    +0.000 NA
ATOM      7  C   UNL     1       3.399   6.881  17.409  0.00  0.00    +0.000 A 
ATOM      8  C   UNL     1       3.194   5.769  18.223  0.00  0.00    +0.000 A 
ATOM      9  C   UNL     1       2.413   5.909  19.410  0.00  0.00    +0.000 A 
ATOM     10  C   UNL     1       1.964   7.301  19.689  0.00  0.00    +0.000 A 
ATOM     11  C   UNL     1       1.332   7.805  20.866  0.00  0.00    +0.000 A 
ENDROOT
BRANCH   9  12
ATOM     12  N   UNL     1       1.935   4.792  20.176  0.00  0.00    +0.000 N 
ATOM     13  C   UNL     1       1.178   3.696  19.512  0.00  0.00    +0.000 C 
ATOM     14  C   UNL     1       0.460   2.831  20.573  0.00  0.00    +0.000 C 
ATOM     15  O   UNL     1       1.392   2.212  21.464  0.00  0.00    +0.000 OA
ATOM     16  C   UNL     1       2.099   3.228  22.179  0.00  0.00    +0.000 C 
ATOM     17  C   UNL     1       2.814   4.179  21.219  0.00  0.00    +0.000 C 
ENDBRANCH   9  12
BRANCH   8  18
ATOM     18  S   UNL     1       3.937   4.318  17.510  0.00  0.00    +0.000 S 
ATOM     19  O   UNL     1       4.594   3.567  18.571  0.00  0.00    +0.000 OA
ATOM     20  O   UNL     1       2.900   3.646  16.743  0.00  0.00    +0.000 OA
BRANCH  18  21
ATOM     21  C   UNL     1       5.272   4.725  16.423  0.00  0.00    +0.000 A 
ATOM     22  C   UNL     1       5.388   4.057  15.204  0.00  0.00    +0.000 A 
ATOM     23  C   UNL     1       6.456   4.368  14.371  0.00  0.00    +0.000 A 
ATOM     24  F   UNL     1       6.588   3.718  13.208  0.00  0.00    +0.000 F 
ATOM     25  C   UNL     1       7.391   5.334  14.722  0.00  0.00    +0.000 A 
ATOM     26  C   UNL     1       7.231   6.023  15.921  0.00  0.00    +0.000 A 
ATOM     27  F   UNL     1       8.123   6.960  16.262  0.00  0.00    +0.000 F 
ATOM     28  C   UNL     1       6.175   5.735  16.777  0.00  0.00    +0.000 A 
ENDBRANCH  18  21
ENDBRANCH   8  18
TORSDOF 3
ENDMDL
MODEL 9
REMARK VINA RESULT:      -6.9      7.948     11.620
REMARK  Name = 
REMARK  4 active torsions:
REMARK  status: ('A' for Active; 'I' for Inactive)
REMARK    1  A    between atoms: C_1  and  C_2
REMARK    2  A    between atoms: C_8  and  S_9
REMARK    3  A    between atoms: S_9  and  C_12
REMARK    4  A    between atoms: C_20  and  N_21
REMARK                            x       y       z     vdW  Elec       q    Type
REMARK                         _______ _______ _______ _____ _____    ______ ____
ROOT
ATOM      1  C   UNL     1      -3.091  10.038  14.739  0.00  0.00    +0.000 C 
ATOM      2  C   UNL     1      -3.417  10.629  16.080  0.00  0.00    +0.000 A 
ATOM      3  C   UNL     1      -4.610  11.270  16.342  0.00  0.00    +0.000 A 
ATOM      4  C   UNL     1      -4.801  11.834  17.597  0.00  0.00    +0.000 A 
ATOM      5  C   UNL     1      -3.795  11.871  18.556  0.00  0.00    +0.000 A 
ATOM      6  N   UNL     1      -4.128  12.439  19.709  0.00  0.00    +0.000 NA
ATOM      7  C   UNL     1      -3.188  12.531  20.665  0.00  0.00    +0.000 A 
ATOM      8  C   UNL     1      -1.851  12.160  20.526  0.00  0.00    +0.000 A 
ATOM      9  C   UNL     1      -1.417  11.567  19.302  0.00  0.00    +0.000 A 
ATOM     10  C   UNL     1      -2.506  11.328  18.314  0.00  0.00    +0.000 A 
ATOM     11  C   UNL     1      -2.441  10.599  17.088  0.00  0.00    +0.000 A 
ENDROOT
BRANCH   9  12
ATOM     12  N   UNL     1      -0.034  11.382  18.963  0.00  0.00    +0.000 N 
ATOM     13  C   UNL     1       0.408  10.142  18.269  0.00  0.00    +0.000 C 
ATOM     14  C   UNL     1       1.946  10.007  18.354  0.00  0.00    +0.000 C 
ATOM     15  O   UNL     1       2.606  11.101  17.712  0.00  0.00    +0.000 OA
ATOM     16  C   UNL     1       2.266  12.313  18.389  0.00  0.00    +0.000 C 
ATOM     17  C   UNL     1       0.752  12.526  18.407  0.00  0.00    +0.000 C 
ENDBRANCH   9  12
BRANCH   8  18
ATOM     18  S   UNL     1      -0.916  12.613  21.970  0.00  0.00    +0.000 S 
ATOM     19  O   UNL     1      -0.324  11.408  22.532  0.00  0.00    +0.000 OA
ATOM     20  O   UNL     1      -0.022  13.690  21.574  0.00  0.00    +0.000 OA
BRANCH  18  21
ATOM     21  C   UNL     1      -1.959  13.193  23.276  0.00  0.00    +0.000 A 
ATOM     22  C   UNL     1      -3.031  12.405  23.696  0.00  0.00    +0.000 A 
ATOM     23  C   UNL     1      -3.856  12.883  24.706  0.00  0.00    +0.000 A 
ATOM     24  F   UNL     1      -4.899  12.144  25.102  0.00  0.00    +0.000 F 
ATOM     25  C   UNL     1      -3.626  14.115  25.308  0.00  0.00    +0.000 A 
ATOM     26  C   UNL     1      -2.524  14.865  24.908  0.00  0.00    +0.000 A 
ATOM     27  F   UNL     1      -2.291  16.048  25.487  0.00  0.00    +0.000 F 
ATOM     28  C   UNL     1      -1.680  14.415  23.900  0.00  0.00    +0.000 A 
ENDBRANCH  18  21
ENDBRANCH   8  18
TORSDOF 3
ENDMDL
