MODEL 1
REMARK VINA RESULT:      -8.7      0.000      0.000
REMARK  Name = 
REMARK  6 active torsions:
REMARK  status: ('A' for Active; 'I' for Inactive)
REMARK    1  A    between atoms: C_1  and  S_2
REMARK    2  A    between atoms: S_2  and  C_5
REMARK    3  A    between atoms: C_10  and  C_11
REMARK    4  A    between atoms: N_13  and  C_14
REMARK    5  A    between atoms: N_13  and  C_21
REMARK    6  A    between atoms: C_14  and  C_15
REMARK                            x       y       z     vdW  Elec       q    Type
REMARK                         _______ _______ _______ _____ _____    ______ ____
ROOT
ATOM      1  C   UNL     1       3.818   4.475  17.314  0.00  0.00    +0.000 C 
ATOM      2  O   UNL     1       3.097   3.640  16.770  0.00  0.00    +0.000 OA
ATOM      3  N   UNL     1       5.204   4.602  16.988  0.00  0.00    +0.000 N 
ENDROOT
BRANCH   1   9
ATOM      4  C   UNL     1       2.617   4.769  19.587  0.00  0.00    +0.000 A 
ATOM      5  C   UNL     1       1.766   5.574  20.375  0.00  0.00    +0.000 A 
ATOM      6  C   UNL     1       1.556   6.911  20.058  0.00  0.00    +0.000 A 
ATOM      7  C   UNL     1       2.295   7.484  19.037  0.00  0.00    +0.000 A 
ATOM      8  C   UNL     1       3.159   6.692  18.279  0.00  0.00    +0.000 A 
ATOM      9  C   UNL     1       3.196   5.295  18.422  0.00  0.00    +0.000 A 
BRANCH   4  11
ATOM     10  C   UNL     1       2.278   3.028  21.830  0.00  0.00    +0.000 C 
ATOM     11  S   UNL     1       2.882   3.107  20.156  0.00  0.00    +0.000 S 
ATOM     12  O   UNL     1       4.306   2.870  20.118  0.00  0.00    +0.000 OA
ATOM     13  O   UNL     1       1.994   2.247  19.386  0.00  0.00    +0.000 OA
ENDBRANCH   4  11
ENDBRANCH   1   9
BRANCH   3  14
ATOM     14  C   UNL     1       6.091   5.516  17.637  0.00  0.00    +0.000 A 
ATOM     15  C   UNL     1       6.333   6.777  17.059  0.00  0.00    +0.000 A 
ATOM     16  C   UNL     1       7.417   7.554  17.480  0.00  0.00    +0.000 A 
ATOM     17  C   UNL     1       8.242   7.100  18.506  0.00  0.00    +0.000 A 
ATOM     18  C   UNL     1       7.965   5.885  19.133  0.00  0.00    +0.000 A 
ATOM     19  C   UNL     1       6.890   5.097  18.706  0.00  0.00    +0.000 A 
ENDBRANCH   3  14
BRANCH   3  20
ATOM     20  C   UNL     1       5.815   3.589  16.108  0.00  0.00    +0.000 C 
BRANCH  20  21
ATOM     21  C   UNL     1       6.207   4.057  14.716  0.00  0.00    +0.000 A 
ATOM     22  C   UNL     1       7.313   4.906  14.524  0.00  0.00    +0.000 A 
ATOM     23  C   UNL     1       7.782   5.199  13.238  0.00  0.00    +0.000 A 
ATOM     24  C   UNL     1       7.147   4.656  12.124  0.00  0.00    +0.000 A 
ATOM     25  C   UNL     1       6.031   3.842  12.297  0.00  0.00    +0.000 A 
ATOM     26  C   UNL     1       5.562   3.546  13.582  0.00  0.00    +0.000 A 
ENDBRANCH  20  21
ENDBRANCH   3  20
TORSDOF 5
ENDMDL
MODEL 2
REMARK VINA RESULT:      -8.5      0.589      1.114
REMARK  Name = 
REMARK  6 active torsions:
REMARK  status: ('A' for Active; 'I' for Inactive)
REMARK    1  A    between atoms: C_1  and  S_2
REMARK    2  A    between atoms: S_2  and  C_5
REMARK    3  A    between atoms: C_10  and  C_11
REMARK    4  A    between atoms: N_13  and  C_14
REMARK    5  A    between atoms: N_13  and  C_21
REMARK    6  A    between atoms: C_14  and  C_15
REMARK                            x       y       z     vdW  Elec       q    Type
REMARK                         _______ _______ _______ _____ _____    ______ ____
ROOT
ATOM      1  C   UNL     1       4.182   4.415  16.905  0.00  0.00    +0.000 C 
ATOM      2  O   UNL     1       3.382   3.655  16.361  0.00  0.00    +0.000 OA
ATOM      3  N   UNL     1       5.559   4.459  16.524  0.00  0.00    +0.000 N 
ENDROOT
BRANCH   1   9
ATOM      4  C   UNL     1       3.191   4.697  19.278  0.00  0.00    +0.000 A 
ATOM      5  C   UNL     1       2.417   5.499  20.144  0.00  0.00    +0.000 A 
ATOM      6  C   UNL     1       2.184   6.839  19.856  0.00  0.00    +0.000 A 
ATOM      7  C   UNL     1       2.831   7.416  18.777  0.00  0.00    +0.000 A 
ATOM      8  C   UNL     1       3.621   6.628  17.939  0.00  0.00    +0.000 A 
ATOM      9  C   UNL     1       3.665   5.229  18.069  0.00  0.00    +0.000 A 
BRANCH   4  11
ATOM     10  C   UNL     1       2.770   2.857  21.427  0.00  0.00    +0.000 C 
ATOM     11  S   UNL     1       3.500   3.030  19.810  0.00  0.00    +0.000 S 
ATOM     12  O   UNL     1       4.933   2.868  19.880  0.00  0.00    +0.000 OA
ATOM     13  O   UNL     1       2.723   2.156  18.942  0.00  0.00    +0.000 OA
ENDBRANCH   4  11
ENDBRANCH   1   9
BRANCH   3  14
ATOM     14  C   UNL     1       6.534   5.282  17.169  0.00  0.00    +0.000 A 
ATOM     15  C   UNL     1       7.129   4.845  18.368  0.00  0.00    +0.000 A 
ATOM     16  C   UNL     1       7.829   5.742  19.181  0.00  0.00    +0.000 A 
ATOM     17  C   UNL     1       7.977   7.069  18.785  0.00  0.00    +0.000 A 
ATOM     18  C   UNL     1       7.454   7.493  17.564  0.00  0.00    +0.000 A 
ATOM     19  C   UNL     1       6.740   6.603  16.753  0.00  0.00    +0.000 A 
ENDBRANCH   3  14
BRANCH   3  20
ATOM     20  C   UNL     1       6.062   3.444  15.580  0.00  0.00    +0.000 C 
BRANCH  20  21
ATOM     21  C   UNL     1       6.374   3.930  14.174  0.00  0.00    +0.000 A 
ATOM     22  C   UNL     1       7.397   4.869  13.946  0.00  0.00    +0.000 A 
ATOM     23  C   UNL     1       7.805   5.189  12.646  0.00  0.00    +0.000 A 
ATOM     24  C   UNL     1       7.190   4.582  11.554  0.00  0.00    +0.000 A 
ATOM     25  C   UNL     1       6.153   3.677  11.763  0.00  0.00    +0.000 A 
ATOM     26  C   UNL     1       5.745   3.354  13.062  0.00  0.00    +0.000 A 
ENDBRANCH  20  21
ENDBRANCH   3  20
TORSDOF 5
ENDMDL
MODEL 3
REMARK VINA RESULT:      -7.9      2.487      6.569
REMARK  Name = 
REMARK  6 active torsions:
REMARK  status: ('A' for Active; 'I' for Inactive)
REMARK    1  A    between atoms: C_1  and  S_2
REMARK    2  A    between atoms: S_2  and  C_5
REMARK    3  A    between atoms: C_10  and  C_11
REMARK    4  A    between atoms: N_13  and  C_14
REMARK    5  A    between atoms: N_13  and  C_21
REMARK    6  A    between atoms: C_14  and  C_15
REMARK                            x       y       z     vdW  Elec       q    Type
REMARK                         _______ _______ _______ _____ _____    ______ ____
ROOT
ATOM      1  C   UNL     1       4.560   6.250  17.640  0.00  0.00    +0.000 C 
ATOM      2  O   UNL     1       5.015   7.388  17.727  0.00  0.00    +0.000 OA
ATOM      3  N   UNL     1       3.518   5.785  18.502  0.00  0.00    +0.000 N 
ENDROOT
BRANCH   1   9
ATOM      4  C   UNL     1       6.543   4.853  16.740  0.00  0.00    +0.000 A 
ATOM      5  C   UNL     1       7.173   4.294  15.607  0.00  0.00    +0.000 A 
ATOM      6  C   UNL     1       6.475   4.125  14.416  0.00  0.00    +0.000 A 
ATOM      7  C   UNL     1       5.117   4.388  14.389  0.00  0.00    +0.000 A 
ATOM      8  C   UNL     1       4.490   4.913  15.521  0.00  0.00    +0.000 A 
ATOM      9  C   UNL     1       5.224   5.323  16.647  0.00  0.00    +0.000 A 
BRANCH   4  11
ATOM     10  C   UNL     1       7.999   6.618  18.456  0.00  0.00    +0.000 C 
ATOM     11  S   UNL     1       7.511   4.920  18.228  0.00  0.00    +0.000 S 
ATOM     12  O   UNL     1       8.669   4.083  18.017  0.00  0.00    +0.000 OA
ATOM     13  O   UNL     1       6.610   4.627  19.334  0.00  0.00    +0.000 OA
ENDBRANCH   4  11
ENDBRANCH   1   9
BRANCH   3  14
ATOM     14  C   UNL     1       3.001   4.453  18.476  0.00  0.00    +0.000 A 
ATOM     15  C   UNL     1       1.678   4.229  18.050  0.00  0.00    +0.000 A 
ATOM     16  C   UNL     1       1.044   3.011  18.313  0.00  0.00    +0.000 A 
ATOM     17  C   UNL     1       1.737   1.992  18.962  0.00  0.00    +0.000 A 
ATOM     18  C   UNL     1       3.072   2.179  19.322  0.00  0.00    +0.000 A 
ATOM     19  C   UNL     1       3.706   3.403  19.075  0.00  0.00    +0.000 A 
ENDBRANCH   3  14
BRANCH   3  20
ATOM     20  C   UNL     1       3.108   6.638  19.633  0.00  0.00    +0.000 C 
BRANCH  20  21
ATOM     21  C   UNL     1       2.095   7.727  19.320  0.00  0.00    +0.000 A 
ATOM     22  C   UNL     1       1.406   8.390  20.354  0.00  0.00    +0.000 A 
ATOM     23  C   UNL     1       0.605   9.507  20.085  0.00  0.00    +0.000 A 
ATOM     24  C   UNL     1       0.473   9.971  18.779  0.00  0.00    +0.000 A 
ATOM     25  C   UNL     1       1.121   9.306  17.742  0.00  0.00    +0.000 A 
ATOM     26  C   UNL     1       1.924   8.190  18.009  0.00  0.00    +0.000 A 
ENDBRANCH  20  21
ENDBRANCH   3  20
TORSDOF 5
ENDMDL
MODEL 4
REMARK VINA RESULT:      -7.8      0.804      1.317
REMARK  Name = 
REMARK  6 active torsions:
REMARK  status: ('A' for Active; 'I' for Inactive)
REMARK    1  A    between atoms: C_1  and  S_2
REMARK    2  A    between atoms: S_2  and  C_5
REMARK    3  A    between atoms: C_10  and  C_11
REMARK    4  A    between atoms: N_13  and  C_14
REMARK    5  A    between atoms: N_13  and  C_21
REMARK    6  A    between atoms: C_14  and  C_15
REMARK                            x       y       z     vdW  Elec       q    Type
REMARK                         _______ _______ _______ _____ _____    ______ ____
ROOT
ATOM      1  C   UNL     1       3.580   4.685  17.485  0.00  0.00    +0.000 C 
ATOM      2  O   UNL     1       2.795   3.875  16.995  0.00  0.00    +0.000 OA
ATOM      3  N   UNL     1       4.976   4.664  17.179  0.00  0.00    +0.000 N 
ENDROOT
BRANCH   1   9
ATOM      4  C   UNL     1       2.458   5.268  19.743  0.00  0.00    +0.000 A 
ATOM      5  C   UNL     1       1.657   6.184  20.459  0.00  0.00    +0.000 A 
ATOM      6  C   UNL     1       1.481   7.485  20.002  0.00  0.00    +0.000 A 
ATOM      7  C   UNL     1       2.208   7.916  18.905  0.00  0.00    +0.000 A 
ATOM      8  C   UNL     1       3.022   7.017  18.216  0.00  0.00    +0.000 A 
ATOM      9  C   UNL     1       3.018   5.643  18.512  0.00  0.00    +0.000 A 
BRANCH   4  11
ATOM     10  C   UNL     1       1.514   2.569  19.719  0.00  0.00    +0.000 C 
ATOM     11  S   UNL     1       2.687   3.671  20.485  0.00  0.00    +0.000 S 
ATOM     12  O   UNL     1       2.403   3.815  21.893  0.00  0.00    +0.000 OA
ATOM     13  O   UNL     1       3.996   3.191  20.065  0.00  0.00    +0.000 OA
ENDBRANCH   4  11
ENDBRANCH   1   9
BRANCH   3  14
ATOM     14  C   UNL     1       5.932   5.546  17.771  0.00  0.00    +0.000 A 
ATOM     15  C   UNL     1       6.209   6.783  17.159  0.00  0.00    +0.000 A 
ATOM     16  C   UNL     1       7.345   7.514  17.518  0.00  0.00    +0.000 A 
ATOM     17  C   UNL     1       8.190   7.040  18.518  0.00  0.00    +0.000 A 
ATOM     18  C   UNL     1       7.883   5.852  19.181  0.00  0.00    +0.000 A 
ATOM     19  C   UNL     1       6.755   5.109  18.815  0.00  0.00    +0.000 A 
ENDBRANCH   3  14
BRANCH   3  20
ATOM     20  C   UNL     1       5.507   3.534  16.394  0.00  0.00    +0.000 C 
BRANCH  20  21
ATOM     21  C   UNL     1       6.102   3.878  15.039  0.00  0.00    +0.000 A 
ATOM     22  C   UNL     1       5.474   3.466  13.849  0.00  0.00    +0.000 A 
ATOM     23  C   UNL     1       5.918   3.924  12.603  0.00  0.00    +0.000 A 
ATOM     24  C   UNL     1       7.003   4.794  12.527  0.00  0.00    +0.000 A 
ATOM     25  C   UNL     1       7.656   5.184  13.694  0.00  0.00    +0.000 A 
ATOM     26  C   UNL     1       7.212   4.728  14.940  0.00  0.00    +0.000 A 
ENDBRANCH  20  21
ENDBRANCH   3  20
TORSDOF 5
ENDMDL
MODEL 5
REMARK VINA RESULT:      -7.4      2.529      6.571
REMARK  Name = 
REMARK  6 active torsions:
REMARK  status: ('A' for Active; 'I' for Inactive)
REMARK    1  A    between atoms: C_1  and  S_2
REMARK    2  A    between atoms: S_2  and  C_5
REMARK    3  A    between atoms: C_10  and  C_11
REMARK    4  A    between atoms: N_13  and  C_14
REMARK    5  A    between atoms: N_13  and  C_21
REMARK    6  A    between atoms: C_14  and  C_15
REMARK                            x       y       z     vdW  Elec       q    Type
REMARK                         _______ _______ _______ _____ _____    ______ ____
ROOT
ATOM      1  C   UNL     1       4.490   6.398  17.848  0.00  0.00    +0.000 C 
ATOM      2  O   UNL     1       4.863   7.570  17.846  0.00  0.00    +0.000 OA
ATOM      3  N   UNL     1       3.471   5.932  18.736  0.00  0.00    +0.000 N 
ENDROOT
BRANCH   1   9
ATOM      4  C   UNL     1       6.576   5.070  17.088  0.00  0.00    +0.000 A 
ATOM      5  C   UNL     1       7.262   4.468  16.011  0.00  0.00    +0.000 A 
ATOM      6  C   UNL     1       6.600   4.163  14.826  0.00  0.00    +0.000 A 
ATOM      7  C   UNL     1       5.228   4.334  14.760  0.00  0.00    +0.000 A 
ATOM      8  C   UNL     1       4.547   4.902  15.838  0.00  0.00    +0.000 A 
ATOM      9  C   UNL     1       5.232   5.444  16.939  0.00  0.00    +0.000 A 
BRANCH   4  11
ATOM     10  C   UNL     1       8.113   6.989  18.548  0.00  0.00    +0.000 C 
ATOM     11  S   UNL     1       7.508   5.313  18.580  0.00  0.00    +0.000 S 
ATOM     12  O   UNL     1       8.607   4.376  18.550  0.00  0.00    +0.000 OA
ATOM     13  O   UNL     1       6.560   5.268  19.685  0.00  0.00    +0.000 OA
ENDBRANCH   4  11
ENDBRANCH   1   9
BRANCH   3  14
ATOM     14  C   UNL     1       3.050   4.569  18.815  0.00  0.00    +0.000 A 
ATOM     15  C   UNL     1       3.887   3.617  19.430  0.00  0.00    +0.000 A 
ATOM     16  C   UNL     1       3.663   2.250  19.244  0.00  0.00    +0.000 A 
ATOM     17  C   UNL     1       2.581   1.820  18.479  0.00  0.00    +0.000 A 
ATOM     18  C   UNL     1       1.705   2.754  17.927  0.00  0.00    +0.000 A 
ATOM     19  C   UNL     1       1.933   4.125  18.099  0.00  0.00    +0.000 A 
ENDBRANCH   3  14
BRANCH   3  20
ATOM     20  C   UNL     1       2.987   6.843  19.790  0.00  0.00    +0.000 C 
BRANCH  20  21
ATOM     21  C   UNL     1       1.967   7.885  19.361  0.00  0.00    +0.000 A 
ATOM     22  C   UNL     1       1.235   8.615  20.317  0.00  0.00    +0.000 A 
ATOM     23  C   UNL     1       0.426   9.692  19.936  0.00  0.00    +0.000 A 
ATOM     24  C   UNL     1       0.329  10.050  18.594  0.00  0.00    +0.000 A 
ATOM     25  C   UNL     1       1.021   9.317  17.633  0.00  0.00    +0.000 A 
ATOM     26  C   UNL     1       1.832   8.241  18.013  0.00  0.00    +0.000 A 
ENDBRANCH  20  21
ENDBRANCH   3  20
TORSDOF 5
ENDMDL
MODEL 6
REMARK VINA RESULT:      -7.3      0.841      1.664
REMARK  Name = 
REMARK  6 active torsions:
REMARK  status: ('A' for Active; 'I' for Inactive)
REMARK    1  A    between atoms: C_1  and  S_2
REMARK    2  A    between atoms: S_2  and  C_5
REMARK    3  A    between atoms: C_10  and  C_11
REMARK    4  A    between atoms: N_13  and  C_14
REMARK    5  A    between atoms: N_13  and  C_21
REMARK    6  A    between atoms: C_14  and  C_15
REMARK                            x       y       z     vdW  Elec       q    Type
REMARK                         _______ _______ _______ _____ _____    ______ ____
ROOT
ATOM      1  C   UNL     1       3.790   4.420  17.014  0.00  0.00    +0.000 C 
ATOM      2  O   UNL     1       2.949   3.639  16.570  0.00  0.00    +0.000 OA
ATOM      3  N   UNL     1       5.142   4.417  16.551  0.00  0.00    +0.000 N 
ENDROOT
BRANCH   1   9
ATOM      4  C   UNL     1       2.828   4.872  19.373  0.00  0.00    +0.000 A 
ATOM      5  C   UNL     1       2.135   5.773  20.211  0.00  0.00    +0.000 A 
ATOM      6  C   UNL     1       2.037   7.120  19.881  0.00  0.00    +0.000 A 
ATOM      7  C   UNL     1       2.739   7.597  18.788  0.00  0.00    +0.000 A 
ATOM      8  C   UNL     1       3.448   6.708  17.977  0.00  0.00    +0.000 A 
ATOM      9  C   UNL     1       3.354   5.317  18.151  0.00  0.00    +0.000 A 
BRANCH   4  11
ATOM     10  C   UNL     1       4.677   2.726  19.768  0.00  0.00    +0.000 C 
ATOM     11  S   UNL     1       2.970   3.200  19.957  0.00  0.00    +0.000 S 
ATOM     12  O   UNL     1       2.121   2.386  19.119  0.00  0.00    +0.000 OA
ATOM     13  O   UNL     1       2.737   3.231  21.395  0.00  0.00    +0.000 OA
ENDBRANCH   4  11
ENDBRANCH   1   9
BRANCH   3  14
ATOM     14  C   UNL     1       6.164   5.264  17.080  0.00  0.00    +0.000 A 
ATOM     15  C   UNL     1       6.959   4.809  18.150  0.00  0.00    +0.000 A 
ATOM     16  C   UNL     1       7.732   5.706  18.892  0.00  0.00    +0.000 A 
ATOM     17  C   UNL     1       7.753   7.056  18.548  0.00  0.00    +0.000 A 
ATOM     18  C   UNL     1       7.027   7.503  17.444  0.00  0.00    +0.000 A 
ATOM     19  C   UNL     1       6.239   6.611  16.707  0.00  0.00    +0.000 A 
ENDBRANCH   3  14
BRANCH   3  20
ATOM     20  C   UNL     1       5.574   3.334  15.648  0.00  0.00    +0.000 C 
BRANCH  20  21
ATOM     21  C   UNL     1       6.257   3.766  14.360  0.00  0.00    +0.000 A 
ATOM     22  C   UNL     1       5.792   3.315  13.110  0.00  0.00    +0.000 A 
ATOM     23  C   UNL     1       6.302   3.843  11.918  0.00  0.00    +0.000 A 
ATOM     24  C   UNL     1       7.292   4.821  11.957  0.00  0.00    +0.000 A 
ATOM     25  C   UNL     1       7.787   5.252  13.185  0.00  0.00    +0.000 A 
ATOM     26  C   UNL     1       7.276   4.727  14.378  0.00  0.00    +0.000 A 
ENDBRANCH  20  21
ENDBRANCH   3  20
TORSDOF 5
ENDMDL
MODEL 7
REMARK VINA RESULT:      -7.2      2.581      5.446
REMARK  Name = 
REMARK  6 active torsions:
REMARK  status: ('A' for Active; 'I' for Inactive)
REMARK    1  A    between atoms: C_1  and  S_2
REMARK    2  A    between atoms: S_2  and  C_5
REMARK    3  A    between atoms: C_10  and  C_11
REMARK    4  A    between atoms: N_13  and  C_14
REMARK    5  A    between atoms: N_13  and  C_21
REMARK    6  A    between atoms: C_14  and  C_15
REMARK                            x       y       z     vdW  Elec       q    Type
REMARK                         _______ _______ _______ _____ _____    ______ ____
ROOT
ATOM      1  C   UNL     1       2.333   5.399  17.931  0.00  0.00    +0.000 C 
ATOM      2  O   UNL     1       1.143   5.628  17.717  0.00  0.00    +0.000 OA
ATOM      3  N   UNL     1       3.315   6.438  17.919  0.00  0.00    +0.000 N 
ENDROOT
BRANCH   1   9
ATOM      4  C   UNL     1       2.635   3.226  19.301  0.00  0.00    +0.000 A 
ATOM      5  C   UNL     1       3.345   2.014  19.448  0.00  0.00    +0.000 A 
ATOM      6  C   UNL     1       4.073   1.482  18.389  0.00  0.00    +0.000 A 
ATOM      7  C   UNL     1       3.988   2.085  17.146  0.00  0.00    +0.000 A 
ATOM      8  C   UNL     1       3.261   3.267  16.996  0.00  0.00    +0.000 A 
ATOM      9  C   UNL     1       2.729   3.950  18.103  0.00  0.00    +0.000 A 
BRANCH   4  11
ATOM     10  C   UNL     1       1.804   2.470  21.931  0.00  0.00    +0.000 C 
ATOM     11  S   UNL     1       1.662   3.744  20.694  0.00  0.00    +0.000 S 
ATOM     12  O   UNL     1       0.297   3.858  20.236  0.00  0.00    +0.000 OA
ATOM     13  O   UNL     1       2.324   4.909  21.265  0.00  0.00    +0.000 OA
ENDBRANCH   4  11
ENDBRANCH   1   9
BRANCH   3  14
ATOM     14  C   UNL     1       4.714   6.209  18.102  0.00  0.00    +0.000 A 
ATOM     15  C   UNL     1       5.593   6.378  17.015  0.00  0.00    +0.000 A 
ATOM     16  C   UNL     1       6.892   5.863  17.066  0.00  0.00    +0.000 A 
ATOM     17  C   UNL     1       7.338   5.213  18.214  0.00  0.00    +0.000 A 
ATOM     18  C   UNL     1       6.498   5.106  19.322  0.00  0.00    +0.000 A 
ATOM     19  C   UNL     1       5.192   5.607  19.271  0.00  0.00    +0.000 A 
ENDBRANCH   3  14
BRANCH   3  20
ATOM     20  C   UNL     1       2.912   7.782  17.467  0.00  0.00    +0.000 C 
BRANCH  20  21
ATOM     21  C   UNL     1       2.036   8.578  18.421  0.00  0.00    +0.000 A 
ATOM     22  C   UNL     1       1.191   9.597  17.945  0.00  0.00    +0.000 A 
ATOM     23  C   UNL     1       0.258  10.213  18.789  0.00  0.00    +0.000 A 
ATOM     24  C   UNL     1       0.163   9.825  20.123  0.00  0.00    +0.000 A 
ATOM     25  C   UNL     1       1.016   8.841  20.617  0.00  0.00    +0.000 A 
ATOM     26  C   UNL     1       1.948   8.224  19.774  0.00  0.00    +0.000 A 
ENDBRANCH  20  21
ENDBRANCH   3  20
TORSDOF 5
ENDMDL
MODEL 8
REMARK VINA RESULT:      -7.2      2.643      5.423
REMARK  Name = 
REMARK  6 active torsions:
REMARK  status: ('A' for Active; 'I' for Inactive)
REMARK    1  A    between atoms: C_1  and  S_2
REMARK    2  A    between atoms: S_2  and  C_5
REMARK    3  A    between atoms: C_10  and  C_11
REMARK    4  A    between atoms: N_13  and  C_14
REMARK    5  A    between atoms: N_13  and  C_21
REMARK    6  A    between atoms: C_14  and  C_15
REMARK                            x       y       z     vdW  Elec       q    Type
REMARK                         _______ _______ _______ _____ _____    ______ ____
ROOT
ATOM      1  C   UNL     1       2.425   5.384  17.974  0.00  0.00    +0.000 C 
ATOM      2  O   UNL     1       1.242   5.681  17.822  0.00  0.00    +0.000 OA
ATOM      3  N   UNL     1       3.464   6.364  17.920  0.00  0.00    +0.000 N 
ENDROOT
BRANCH   1   9
ATOM      4  C   UNL     1       2.618   3.172  19.304  0.00  0.00    +0.000 A 
ATOM      5  C   UNL     1       3.264   1.923  19.427  0.00  0.00    +0.000 A 
ATOM      6  C   UNL     1       3.961   1.374  18.356  0.00  0.00    +0.000 A 
ATOM      7  C   UNL     1       3.904   2.002  17.124  0.00  0.00    +0.000 A 
ATOM      8  C   UNL     1       3.239   3.223  16.998  0.00  0.00    +0.000 A 
ATOM      9  C   UNL     1       2.746   3.913  18.119  0.00  0.00    +0.000 A 
BRANCH   4  11
ATOM     10  C   UNL     1       1.789   2.431  21.939  0.00  0.00    +0.000 C 
ATOM     11  S   UNL     1       1.677   3.715  20.710  0.00  0.00    +0.000 S 
ATOM     12  O   UNL     1       0.311   3.876  20.267  0.00  0.00    +0.000 OA
ATOM     13  O   UNL     1       2.382   4.855  21.279  0.00  0.00    +0.000 OA
ENDBRANCH   4  11
ENDBRANCH   1   9
BRANCH   3  14
ATOM     14  C   UNL     1       4.855   6.055  18.031  0.00  0.00    +0.000 A 
ATOM     15  C   UNL     1       5.344   5.472  19.216  0.00  0.00    +0.000 A 
ATOM     16  C   UNL     1       6.716   5.454  19.484  0.00  0.00    +0.000 A 
ATOM     17  C   UNL     1       7.613   5.978  18.556  0.00  0.00    +0.000 A 
ATOM     18  C   UNL     1       7.142   6.491  17.347  0.00  0.00    +0.000 A 
ATOM     19  C   UNL     1       5.768   6.525  17.081  0.00  0.00    +0.000 A 
ENDBRANCH   3  14
BRANCH   3  20
ATOM     20  C   UNL     1       3.116   7.733  17.495  0.00  0.00    +0.000 C 
BRANCH  20  21
ATOM     21  C   UNL     1       2.114   8.473  18.366  0.00  0.00    +0.000 A 
ATOM     22  C   UNL     1       1.964   8.148  19.728  0.00  0.00    +0.000 A 
ATOM     23  C   UNL     1       1.174   8.936  20.574  0.00  0.00    +0.000 A 
ATOM     24  C   UNL     1       0.514  10.054  20.069  0.00  0.00    +0.000 A 
ATOM     25  C   UNL     1       0.626  10.368  18.717  0.00  0.00    +0.000 A 
ATOM     26  C   UNL     1       1.417   9.583  17.871  0.00  0.00    +0.000 A 
ENDBRANCH  20  21
ENDBRANCH   3  20
TORSDOF 5
ENDMDL
MODEL 9
REMARK VINA RESULT:      -7.0      5.220      7.777
REMARK  Name = 
REMARK  6 active torsions:
REMARK  status: ('A' for Active; 'I' for Inactive)
REMARK    1  A    between atoms: C_1  and  S_2
REMARK    2  A    between atoms: S_2  and  C_5
REMARK    3  A    between atoms: C_10  and  C_11
REMARK    4  A    between atoms: N_13  and  C_14
REMARK    5  A    between atoms: N_13  and  C_21
REMARK    6  A    between atoms: C_14  and  C_15
REMARK                            x       y       z     vdW  Elec       q    Type
REMARK                         _______ _______ _______ _____ _____    ______ ____
ROOT
ATOM      1  C   UNL     1       1.430   9.238  18.334  0.00  0.00    +0.000 C 
ATOM      2  O   UNL     1       2.015   9.096  17.262  0.00  0.00    +0.000 OA
ATOM      3  N   UNL     1       1.818   8.520  19.507  0.00  0.00    +0.000 N 
ENDROOT
BRANCH   1   9
ATOM      4  C   UNL     1       0.158  11.427  18.872  0.00  0.00    +0.000 A 
ATOM      5  C   UNL     1      -1.091  12.030  19.135  0.00  0.00    +0.000 A 
ATOM      6  C   UNL     1      -2.277  11.391  18.790  0.00  0.00    +0.000 A 
ATOM      7  C   UNL     1      -2.219  10.214  18.064  0.00  0.00    +0.000 A 
ATOM      8  C   UNL     1      -0.982   9.634  17.779  0.00  0.00    +0.000 A 
ATOM      9  C   UNL     1       0.210  10.132  18.332  0.00  0.00    +0.000 A 
BRANCH   4  11
ATOM     10  C   UNL     1       1.124  14.103  19.154  0.00  0.00    +0.000 C 
ATOM     11  S   UNL     1       1.598  12.389  19.266  0.00  0.00    +0.000 S 
ATOM     12  O   UNL     1       2.601  12.074  18.275  0.00  0.00    +0.000 OA
ATOM     13  O   UNL     1       1.889  12.162  20.675  0.00  0.00    +0.000 OA
ENDBRANCH   4  11
ENDBRANCH   1   9
BRANCH   3  14
ATOM     14  C   UNL     1       1.130   8.609  20.757  0.00  0.00    +0.000 A 
ATOM     15  C   UNL     1      -0.250   8.334  20.811  0.00  0.00    +0.000 A 
ATOM     16  C   UNL     1      -1.006   8.716  21.923  0.00  0.00    +0.000 A 
ATOM     17  C   UNL     1      -0.387   9.336  23.006  0.00  0.00    +0.000 A 
ATOM     18  C   UNL     1       0.992   9.546  22.991  0.00  0.00    +0.000 A 
ATOM     19  C   UNL     1       1.751   9.179  21.874  0.00  0.00    +0.000 A 
ENDBRANCH   3  14
BRANCH   3  20
ATOM     20  C   UNL     1       2.831   7.456  19.377  0.00  0.00    +0.000 C 
BRANCH  20  21
ATOM     21  C   UNL     1       2.306   6.030  19.339  0.00  0.00    +0.000 A 
ATOM     22  C   UNL     1       1.867   5.391  20.515  0.00  0.00    +0.000 A 
ATOM     23  C   UNL     1       1.223   4.149  20.463  0.00  0.00    +0.000 A 
ATOM     24  C   UNL     1       1.017   3.522  19.237  0.00  0.00    +0.000 A 
ATOM     25  C   UNL     1       1.475   4.126  18.068  0.00  0.00    +0.000 A 
ATOM     26  C   UNL     1       2.117   5.369  18.119  0.00  0.00    +0.000 A 
ENDBRANCH  20  21
ENDBRANCH   3  20
TORSDOF 5
ENDMDL
