MODEL 1
REMARK VINA RESULT:      -7.2      0.000      0.000
REMARK  Name = 
REMARK  5 active torsions:
REMARK  status: ('A' for Active; 'I' for Inactive)
REMARK    1  A    between atoms: O_1  and  C_2
REMARK    2  A    between atoms: C_2  and  C_3
REMARK    3  A    between atoms: C_6  and  C_7
REMARK    4  A    between atoms: C_13  and  O_14
REMARK    5  A    between atoms: C_15  and  O_16
REMARK                            x       y       z     vdW  Elec       q    Type
REMARK                         _______ _______ _______ _____ _____    ______ ____
ROOT
ATOM      1  C   UNL     1       3.653   5.546  18.983  0.00  0.00    +0.000 C 
ATOM      2  N   UNL     1       2.754   4.378  19.105  0.00  0.00    +0.000 NA
ATOM      3  C   UNL     1       2.247   3.935  17.808  0.00  0.00    +0.000 C 
ATOM      4  C   UNL     1       3.383   3.458  16.900  0.00  0.00    +0.000 C 
ATOM      5  C   UNL     1       4.523   4.443  16.838  0.00  0.00    +0.000 A 
ATOM      6  C   UNL     1       5.471   4.347  15.805  0.00  0.00    +0.000 A 
ATOM      7  C   UNL     1       6.544   5.229  15.776  0.00  0.00    +0.000 A 
ATOM      8  C   UNL     1       6.687   6.194  16.767  0.00  0.00    +0.000 A 
ATOM      9  C   UNL     1       5.768   6.295  17.802  0.00  0.00    +0.000 A 
ATOM     10  C   UNL     1       4.672   5.415  17.854  0.00  0.00    +0.000 A 
ATOM     11  H   UNL     1       1.979   4.648  19.709  0.00  0.00    +0.000 HD
ENDROOT
BRANCH   1  15
ATOM     12  C   UNL     1       1.639   8.439  19.778  0.00  0.00    +0.000 A 
ATOM     13  C   UNL     1       1.792   8.741  18.440  0.00  0.00    +0.000 A 
ATOM     14  C   UNL     1       2.575   7.707  17.880  0.00  0.00    +0.000 A 
ATOM     15  C   UNL     1       2.865   6.828  18.906  0.00  0.00    +0.000 A 
ATOM     16  O   UNL     1       2.288   7.270  20.066  0.00  0.00    +0.000 OA
BRANCH  12  17
ATOM     17  C   UNL     1       0.960   9.127  20.899  0.00  0.00    +0.000 C 
BRANCH  17  18
ATOM     18  O   UNL     1       1.614   8.741  22.103  0.00  0.00    +0.000 OA
ATOM     19  H   UNL     1       2.332   9.379  22.246  0.00  0.00    +0.000 HD
ENDBRANCH  17  18
ENDBRANCH  12  17
ENDBRANCH   1  15
BRANCH   7  20
ATOM     20  O   UNL     1       7.492   5.184  14.790  0.00  0.00    +0.000 OA
ATOM     21  H   UNL     1       7.034   5.213  13.933  0.00  0.00    +0.000 HD
ENDBRANCH   7  20
BRANCH   8  22
ATOM     22  O   UNL     1       7.744   7.058  16.729  0.00  0.00    +0.000 OA
ATOM     23  H   UNL     1       7.512   7.695  16.025  0.00  0.00    +0.000 HD
ENDBRANCH   8  22
TORSDOF 5
ENDMDL
MODEL 2
REMARK VINA RESULT:      -7.2      1.687      5.952
REMARK  Name = 
REMARK  5 active torsions:
REMARK  status: ('A' for Active; 'I' for Inactive)
REMARK    1  A    between atoms: O_1  and  C_2
REMARK    2  A    between atoms: C_2  and  C_3
REMARK    3  A    between atoms: C_6  and  C_7
REMARK    4  A    between atoms: C_13  and  O_14
REMARK    5  A    between atoms: C_15  and  O_16
REMARK                            x       y       z     vdW  Elec       q    Type
REMARK                         _______ _______ _______ _____ _____    ______ ____
ROOT
ATOM      1  C   UNL     1       3.229   3.967  17.328  0.00  0.00    +0.000 C 
ATOM      2  N   UNL     1       2.965   2.548  17.654  0.00  0.00    +0.000 NA
ATOM      3  C   UNL     1       3.321   2.225  19.034  0.00  0.00    +0.000 C 
ATOM      4  C   UNL     1       2.471   3.018  20.029  0.00  0.00    +0.000 C 
ATOM      5  C   UNL     1       2.432   4.490  19.708  0.00  0.00    +0.000 A 
ATOM      6  C   UNL     1       2.006   5.405  20.686  0.00  0.00    +0.000 A 
ATOM      7  C   UNL     1       1.930   6.756  20.374  0.00  0.00    +0.000 A 
ATOM      8  C   UNL     1       2.261   7.201  19.098  0.00  0.00    +0.000 A 
ATOM      9  C   UNL     1       2.670   6.311  18.116  0.00  0.00    +0.000 A 
ATOM     10  C   UNL     1       2.757   4.938  18.407  0.00  0.00    +0.000 A 
ATOM     11  H   UNL     1       3.510   1.978  17.010  0.00  0.00    +0.000 HD
ENDROOT
BRANCH   1  15
ATOM     12  C   UNL     1       6.315   4.411  15.502  0.00  0.00    +0.000 A 
ATOM     13  C   UNL     1       6.883   4.507  16.757  0.00  0.00    +0.000 A 
ATOM     14  C   UNL     1       5.831   4.351  17.688  0.00  0.00    +0.000 A 
ATOM     15  C   UNL     1       4.674   4.174  16.954  0.00  0.00    +0.000 A 
ATOM     16  O   UNL     1       4.968   4.204  15.617  0.00  0.00    +0.000 OA
BRANCH  12  17
ATOM     17  C   UNL     1       6.867   4.514  14.132  0.00  0.00    +0.000 C 
BRANCH  17  18
ATOM     18  O   UNL     1       7.850   5.544  14.137  0.00  0.00    +0.000 OA
ATOM     19  H   UNL     1       8.651   5.161  14.531  0.00  0.00    +0.000 HD
ENDBRANCH  17  18
ENDBRANCH  12  17
ENDBRANCH   1  15
BRANCH   7  20
ATOM     20  O   UNL     1       1.529   7.690  21.289  0.00  0.00    +0.000 OA
ATOM     21  H   UNL     1       1.130   7.220  22.042  0.00  0.00    +0.000 HD
ENDBRANCH   7  20
BRANCH   8  22
ATOM     22  O   UNL     1       2.185   8.532  18.801  0.00  0.00    +0.000 OA
ATOM     23  H   UNL     1       3.089   8.770  18.514  0.00  0.00    +0.000 HD
ENDBRANCH   8  22
TORSDOF 5
ENDMDL
MODEL 3
REMARK VINA RESULT:      -7.1      1.961      5.421
REMARK  Name = 
REMARK  5 active torsions:
REMARK  status: ('A' for Active; 'I' for Inactive)
REMARK    1  A    between atoms: O_1  and  C_2
REMARK    2  A    between atoms: C_2  and  C_3
REMARK    3  A    between atoms: C_6  and  C_7
REMARK    4  A    between atoms: C_13  and  O_14
REMARK    5  A    between atoms: C_15  and  O_16
REMARK                            x       y       z     vdW  Elec       q    Type
REMARK                         _______ _______ _______ _____ _____    ______ ____
ROOT
ATOM      1  C   UNL     1       3.262   3.988  17.363  0.00  0.00    +0.000 C 
ATOM      2  N   UNL     1       2.970   2.567  17.653  0.00  0.00    +0.000 NA
ATOM      3  C   UNL     1       3.254   2.219  19.043  0.00  0.00    +0.000 C 
ATOM      4  C   UNL     1       2.364   3.004  20.008  0.00  0.00    +0.000 C 
ATOM      5  C   UNL     1       2.353   4.482  19.709  0.00  0.00    +0.000 A 
ATOM      6  C   UNL     1       1.888   5.385  20.680  0.00  0.00    +0.000 A 
ATOM      7  C   UNL     1       1.839   6.742  20.386  0.00  0.00    +0.000 A 
ATOM      8  C   UNL     1       2.237   7.204  19.136  0.00  0.00    +0.000 A 
ATOM      9  C   UNL     1       2.686   6.325  18.160  0.00  0.00    +0.000 A 
ATOM     10  C   UNL     1       2.747   4.947  18.434  0.00  0.00    +0.000 A 
ATOM     11  H   UNL     1       3.541   2.002  17.027  0.00  0.00    +0.000 HD
ENDROOT
BRANCH   1  15
ATOM     12  C   UNL     1       6.789   4.732  17.615  0.00  0.00    +0.000 A 
ATOM     13  C   UNL     1       6.822   4.362  16.286  0.00  0.00    +0.000 A 
ATOM     14  C   UNL     1       5.498   4.016  15.932  0.00  0.00    +0.000 A 
ATOM     15  C   UNL     1       4.726   4.188  17.064  0.00  0.00    +0.000 A 
ATOM     16  O   UNL     1       5.512   4.631  18.094  0.00  0.00    +0.000 OA
BRANCH  12  17
ATOM     17  C   UNL     1       7.834   5.167  18.570  0.00  0.00    +0.000 C 
BRANCH  17  18
ATOM     18  O   UNL     1       7.214   5.346  19.839  0.00  0.00    +0.000 OA
ATOM     19  H   UNL     1       6.939   6.276  19.884  0.00  0.00    +0.000 HD
ENDBRANCH  17  18
ENDBRANCH  12  17
ENDBRANCH   1  15
BRANCH   7  20
ATOM     20  O   UNL     1       1.402   7.665  21.296  0.00  0.00    +0.000 OA
ATOM     21  H   UNL     1       0.624   8.112  20.919  0.00  0.00    +0.000 HD
ENDBRANCH   7  20
BRANCH   8  22
ATOM     22  O   UNL     1       2.187   8.540  18.857  0.00  0.00    +0.000 OA
ATOM     23  H   UNL     1       3.021   8.720  18.378  0.00  0.00    +0.000 HD
ENDBRANCH   8  22
TORSDOF 5
ENDMDL
MODEL 4
REMARK VINA RESULT:      -7.1      1.224      1.279
REMARK  Name = 
REMARK  5 active torsions:
REMARK  status: ('A' for Active; 'I' for Inactive)
REMARK    1  A    between atoms: O_1  and  C_2
REMARK    2  A    between atoms: C_2  and  C_3
REMARK    3  A    between atoms: C_6  and  C_7
REMARK    4  A    between atoms: C_13  and  O_14
REMARK    5  A    between atoms: C_15  and  O_16
REMARK                            x       y       z     vdW  Elec       q    Type
REMARK                         _______ _______ _______ _____ _____    ______ ____
ROOT
ATOM      1  C   UNL     1       2.951   4.984  19.562  0.00  0.00    +0.000 C 
ATOM      2  N   UNL     1       1.879   4.059  19.131  0.00  0.00    +0.000 NA
ATOM      3  C   UNL     1       1.759   3.995  17.676  0.00  0.00    +0.000 C 
ATOM      4  C   UNL     1       3.032   3.440  17.036  0.00  0.00    +0.000 C 
ATOM      5  C   UNL     1       4.277   4.121  17.544  0.00  0.00    +0.000 A 
ATOM      6  C   UNL     1       5.481   3.995  16.830  0.00  0.00    +0.000 A 
ATOM      7  C   UNL     1       6.636   4.589  17.324  0.00  0.00    +0.000 A 
ATOM      8  C   UNL     1       6.605   5.293  18.523  0.00  0.00    +0.000 A 
ATOM      9  C   UNL     1       5.429   5.416  19.249  0.00  0.00    +0.000 A 
ATOM     10  C   UNL     1       4.246   4.826  18.769  0.00  0.00    +0.000 A 
ATOM     11  H   UNL     1       1.006   4.389  19.540  0.00  0.00    +0.000 HD
ENDROOT
BRANCH   1  15
ATOM     12  C   UNL     1       1.508   8.143  20.558  0.00  0.00    +0.000 A 
ATOM     13  C   UNL     1       1.857   8.547  19.286  0.00  0.00    +0.000 A 
ATOM     14  C   UNL     1       2.463   7.434  18.662  0.00  0.00    +0.000 A 
ATOM     15  C   UNL     1       2.457   6.408  19.587  0.00  0.00    +0.000 A 
ATOM     16  O   UNL     1       1.868   6.838  20.746  0.00  0.00    +0.000 OA
BRANCH  12  17
ATOM     17  C   UNL     1       0.874   8.838  21.701  0.00  0.00    +0.000 C 
BRANCH  17  18
ATOM     18  O   UNL     1       1.911   9.259  22.582  0.00  0.00    +0.000 OA
ATOM     19  H   UNL     1       2.308  10.051  22.185  0.00  0.00    +0.000 HD
ENDBRANCH  17  18
ENDBRANCH  12  17
ENDBRANCH   1  15
BRANCH   7  20
ATOM     20  O   UNL     1       7.832   4.503  16.667  0.00  0.00    +0.000 OA
ATOM     21  H   UNL     1       7.704   4.849  15.766  0.00  0.00    +0.000 HD
ENDBRANCH   7  20
BRANCH   8  22
ATOM     22  O   UNL     1       7.746   5.875  19.000  0.00  0.00    +0.000 OA
ATOM     23  H   UNL     1       8.433   5.631  18.349  0.00  0.00    +0.000 HD
ENDBRANCH   8  22
TORSDOF 5
ENDMDL
MODEL 5
REMARK VINA RESULT:      -7.1      2.596      5.251
REMARK  Name = 
REMARK  5 active torsions:
REMARK  status: ('A' for Active; 'I' for Inactive)
REMARK    1  A    between atoms: O_1  and  C_2
REMARK    2  A    between atoms: C_2  and  C_3
REMARK    3  A    between atoms: C_6  and  C_7
REMARK    4  A    between atoms: C_13  and  O_14
REMARK    5  A    between atoms: C_15  and  O_16
REMARK                            x       y       z     vdW  Elec       q    Type
REMARK                         _______ _______ _______ _____ _____    ______ ____
ROOT
ATOM      1  C   UNL     1       5.677   6.416  16.286  0.00  0.00    +0.000 C 
ATOM      2  N   UNL     1       6.265   5.835  15.059  0.00  0.00    +0.000 NA
ATOM      3  C   UNL     1       6.631   4.431  15.236  0.00  0.00    +0.000 C 
ATOM      4  C   UNL     1       5.401   3.567  15.525  0.00  0.00    +0.000 C 
ATOM      5  C   UNL     1       4.536   4.144  16.617  0.00  0.00    +0.000 A 
ATOM      6  C   UNL     1       3.580   3.331  17.249  0.00  0.00    +0.000 A 
ATOM      7  C   UNL     1       2.755   3.877  18.225  0.00  0.00    +0.000 A 
ATOM      8  C   UNL     1       2.865   5.221  18.566  0.00  0.00    +0.000 A 
ATOM      9  C   UNL     1       3.794   6.041  17.942  0.00  0.00    +0.000 A 
ATOM     10  C   UNL     1       4.642   5.513  16.953  0.00  0.00    +0.000 A 
ATOM     11  H   UNL     1       7.090   6.384  14.824  0.00  0.00    +0.000 HD
ENDROOT
BRANCH   1  15
ATOM     12  C   UNL     1       8.110   8.370  18.107  0.00  0.00    +0.000 A 
ATOM     13  C   UNL     1       8.342   7.193  18.789  0.00  0.00    +0.000 A 
ATOM     14  C   UNL     1       7.474   6.227  18.231  0.00  0.00    +0.000 A 
ATOM     15  C   UNL     1       6.754   6.865  17.240  0.00  0.00    +0.000 A 
ATOM     16  O   UNL     1       7.145   8.175  17.158  0.00  0.00    +0.000 OA
BRANCH  12  17
ATOM     17  C   UNL     1       8.668   9.736  18.229  0.00  0.00    +0.000 C 
BRANCH  17  18
ATOM     18  O   UNL     1       9.299   9.834  19.502  0.00  0.00    +0.000 OA
ATOM     19  H   UNL     1       8.922   9.130  20.054  0.00  0.00    +0.000 HD
ENDBRANCH  17  18
ENDBRANCH  12  17
ENDBRANCH   1  15
BRANCH   7  20
ATOM     20  O   UNL     1       1.812   3.130  18.877  0.00  0.00    +0.000 OA
ATOM     21  H   UNL     1       1.638   3.552  19.736  0.00  0.00    +0.000 HD
ENDBRANCH   7  20
BRANCH   8  22
ATOM     22  O   UNL     1       2.051   5.748  19.528  0.00  0.00    +0.000 OA
ATOM     23  H   UNL     1       2.600   6.427  19.967  0.00  0.00    +0.000 HD
ENDBRANCH   8  22
TORSDOF 5
ENDMDL
MODEL 6
REMARK VINA RESULT:      -7.1      1.889      5.359
REMARK  Name = 
REMARK  5 active torsions:
REMARK  status: ('A' for Active; 'I' for Inactive)
REMARK    1  A    between atoms: O_1  and  C_2
REMARK    2  A    between atoms: C_2  and  C_3
REMARK    3  A    between atoms: C_6  and  C_7
REMARK    4  A    between atoms: C_13  and  O_14
REMARK    5  A    between atoms: C_15  and  O_16
REMARK                            x       y       z     vdW  Elec       q    Type
REMARK                         _______ _______ _______ _____ _____    ______ ____
ROOT
ATOM      1  C   UNL     1       3.212   5.038  17.856  0.00  0.00    +0.000 C 
ATOM      2  N   UNL     1       2.912   3.834  18.661  0.00  0.00    +0.000 NA
ATOM      3  C   UNL     1       3.133   4.057  20.088  0.00  0.00    +0.000 C 
ATOM      4  C   UNL     1       2.196   5.135  20.636  0.00  0.00    +0.000 C 
ATOM      5  C   UNL     1       2.194   6.381  19.788  0.00  0.00    +0.000 A 
ATOM      6  C   UNL     1       1.681   7.579  20.313  0.00  0.00    +0.000 A 
ATOM      7  C   UNL     1       1.641   8.716  19.515  0.00  0.00    +0.000 A 
ATOM      8  C   UNL     1       2.094   8.667  18.201  0.00  0.00    +0.000 A 
ATOM      9  C   UNL     1       2.591   7.489  17.661  0.00  0.00    +0.000 A 
ATOM     10  C   UNL     1       2.644   6.325  18.449  0.00  0.00    +0.000 A 
ATOM     11  H   UNL     1       3.513   3.083  18.327  0.00  0.00    +0.000 HD
ENDROOT
BRANCH   1  15
ATOM     12  C   UNL     1       6.763   5.670  18.080  0.00  0.00    +0.000 A 
ATOM     13  C   UNL     1       6.800   5.122  16.813  0.00  0.00    +0.000 A 
ATOM     14  C   UNL     1       5.469   4.785  16.481  0.00  0.00    +0.000 A 
ATOM     15  C   UNL     1       4.687   5.138  17.564  0.00  0.00    +0.000 A 
ATOM     16  O   UNL     1       5.475   5.685  18.540  0.00  0.00    +0.000 OA
BRANCH  12  17
ATOM     17  C   UNL     1       7.810   6.189  18.988  0.00  0.00    +0.000 C 
BRANCH  17  18
ATOM     18  O   UNL     1       7.715   5.470  20.214  0.00  0.00    +0.000 OA
ATOM     19  H   UNL     1       7.147   4.701  20.041  0.00  0.00    +0.000 HD
ENDBRANCH  17  18
ENDBRANCH  12  17
ENDBRANCH   1  15
BRANCH   7  20
ATOM     20  O   UNL     1       1.158   9.909  19.977  0.00  0.00    +0.000 OA
ATOM     21  H   UNL     1       1.415  10.602  19.345  0.00  0.00    +0.000 HD
ENDBRANCH   7  20
BRANCH   8  22
ATOM     22  O   UNL     1       2.052   9.789  17.424  0.00  0.00    +0.000 OA
ATOM     23  H   UNL     1       1.202   9.723  16.946  0.00  0.00    +0.000 HD
ENDBRANCH   8  22
TORSDOF 5
ENDMDL
MODEL 7
REMARK VINA RESULT:      -7.0      2.771      6.509
REMARK  Name = 
REMARK  5 active torsions:
REMARK  status: ('A' for Active; 'I' for Inactive)
REMARK    1  A    between atoms: O_1  and  C_2
REMARK    2  A    between atoms: C_2  and  C_3
REMARK    3  A    between atoms: C_6  and  C_7
REMARK    4  A    between atoms: C_13  and  O_14
REMARK    5  A    between atoms: C_15  and  O_16
REMARK                            x       y       z     vdW  Elec       q    Type
REMARK                         _______ _______ _______ _____ _____    ______ ____
ROOT
ATOM      1  C   UNL     1       5.751   5.038  16.971  0.00  0.00    +0.000 C 
ATOM      2  N   UNL     1       5.931   6.494  17.161  0.00  0.00    +0.000 NA
ATOM      3  C   UNL     1       4.733   7.249  16.799  0.00  0.00    +0.000 C 
ATOM      4  C   UNL     1       3.550   6.882  17.698  0.00  0.00    +0.000 C 
ATOM      5  C   UNL     1       3.356   5.391  17.814  0.00  0.00    +0.000 A 
ATOM      6  C   UNL     1       2.137   4.884  18.295  0.00  0.00    +0.000 A 
ATOM      7  C   UNL     1       1.976   3.512  18.442  0.00  0.00    +0.000 A 
ATOM      8  C   UNL     1       3.017   2.645  18.124  0.00  0.00    +0.000 A 
ATOM      9  C   UNL     1       4.232   3.129  17.661  0.00  0.00    +0.000 A 
ATOM     10  C   UNL     1       4.419   4.514  17.502  0.00  0.00    +0.000 A 
ATOM     11  H   UNL     1       6.716   6.786  16.581  0.00  0.00    +0.000 HD
ENDROOT
BRANCH   1  15
ATOM     12  C   UNL     1       7.023   4.834  13.595  0.00  0.00    +0.000 A 
ATOM     13  C   UNL     1       6.107   3.810  13.459  0.00  0.00    +0.000 A 
ATOM     14  C   UNL     1       5.446   3.693  14.702  0.00  0.00    +0.000 A 
ATOM     15  C   UNL     1       5.996   4.648  15.536  0.00  0.00    +0.000 A 
ATOM     16  O   UNL     1       6.956   5.351  14.859  0.00  0.00    +0.000 OA
BRANCH  12  17
ATOM     17  C   UNL     1       8.026   5.421  12.678  0.00  0.00    +0.000 C 
BRANCH  17  18
ATOM     18  O   UNL     1       9.003   6.084  13.474  0.00  0.00    +0.000 OA
ATOM     19  H   UNL     1       9.711   5.440  13.638  0.00  0.00    +0.000 HD
ENDBRANCH  17  18
ENDBRANCH  12  17
ENDBRANCH   1  15
BRANCH   7  20
ATOM     20  O   UNL     1       0.809   2.964  18.900  0.00  0.00    +0.000 OA
ATOM     21  H   UNL     1       0.214   3.692  19.150  0.00  0.00    +0.000 HD
ENDBRANCH   7  20
BRANCH   8  22
ATOM     22  O   UNL     1       2.849   1.297  18.270  0.00  0.00    +0.000 OA
ATOM     23  H   UNL     1       3.724   0.918  18.052  0.00  0.00    +0.000 HD
ENDBRANCH   8  22
TORSDOF 5
ENDMDL
MODEL 8
REMARK VINA RESULT:      -7.0      1.551      5.909
REMARK  Name = 
REMARK  5 active torsions:
REMARK  status: ('A' for Active; 'I' for Inactive)
REMARK    1  A    between atoms: O_1  and  C_2
REMARK    2  A    between atoms: C_2  and  C_3
REMARK    3  A    between atoms: C_6  and  C_7
REMARK    4  A    between atoms: C_13  and  O_14
REMARK    5  A    between atoms: C_15  and  O_16
REMARK                            x       y       z     vdW  Elec       q    Type
REMARK                         _______ _______ _______ _____ _____    ______ ____
ROOT
ATOM      1  C   UNL     1       3.054   5.292  17.778  0.00  0.00    +0.000 C 
ATOM      2  N   UNL     1       2.814   4.079  18.590  0.00  0.00    +0.000 NA
ATOM      3  C   UNL     1       3.115   4.294  20.004  0.00  0.00    +0.000 C 
ATOM      4  C   UNL     1       2.200   5.358  20.613  0.00  0.00    +0.000 C 
ATOM      5  C   UNL     1       2.136   6.610  19.777  0.00  0.00    +0.000 A 
ATOM      6  C   UNL     1       1.642   7.799  20.339  0.00  0.00    +0.000 A 
ATOM      7  C   UNL     1       1.544   8.941  19.553  0.00  0.00    +0.000 A 
ATOM      8  C   UNL     1       1.921   8.905  18.215  0.00  0.00    +0.000 A 
ATOM      9  C   UNL     1       2.398   7.737  17.639  0.00  0.00    +0.000 A 
ATOM     10  C   UNL     1       2.508   6.568  18.413  0.00  0.00    +0.000 A 
ATOM     11  H   UNL     1       3.403   3.336  18.217  0.00  0.00    +0.000 HD
ENDROOT
BRANCH   1  15
ATOM     12  C   UNL     1       6.225   5.081  16.059  0.00  0.00    +0.000 A 
ATOM     13  C   UNL     1       6.708   5.770  17.153  0.00  0.00    +0.000 A 
ATOM     14  C   UNL     1       5.608   5.977  18.016  0.00  0.00    +0.000 A 
ATOM     15  C   UNL     1       4.509   5.409  17.402  0.00  0.00    +0.000 A 
ATOM     16  O   UNL     1       4.885   4.855  16.207  0.00  0.00    +0.000 OA
BRANCH  12  17
ATOM     17  C   UNL     1       6.857   4.595  14.811  0.00  0.00    +0.000 C 
BRANCH  17  18
ATOM     18  O   UNL     1       7.848   5.543  14.429  0.00  0.00    +0.000 OA
ATOM     19  H   UNL     1       8.188   5.257  13.566  0.00  0.00    +0.000 HD
ENDBRANCH  17  18
ENDBRANCH  12  17
ENDBRANCH   1  15
BRANCH   7  20
ATOM     20  O   UNL     1       1.077  10.126  20.052  0.00  0.00    +0.000 OA
ATOM     21  H   UNL     1       1.761  10.802  19.907  0.00  0.00    +0.000 HD
ENDBRANCH   7  20
BRANCH   8  22
ATOM     22  O   UNL     1       1.823  10.033  17.450  0.00  0.00    +0.000 OA
ATOM     23  H   UNL     1       1.784  10.764  18.099  0.00  0.00    +0.000 HD
ENDBRANCH   8  22
TORSDOF 5
ENDMDL
MODEL 9
REMARK VINA RESULT:      -6.9      1.546      1.976
REMARK  Name = 
REMARK  5 active torsions:
REMARK  status: ('A' for Active; 'I' for Inactive)
REMARK    1  A    between atoms: O_1  and  C_2
REMARK    2  A    between atoms: C_2  and  C_3
REMARK    3  A    between atoms: C_6  and  C_7
REMARK    4  A    between atoms: C_13  and  O_14
REMARK    5  A    between atoms: C_15  and  O_16
REMARK                            x       y       z     vdW  Elec       q    Type
REMARK                         _______ _______ _______ _____ _____    ______ ____
ROOT
ATOM      1  C   UNL     1       2.892   4.933  19.681  0.00  0.00    +0.000 C 
ATOM      2  N   UNL     1       1.817   3.996  19.286  0.00  0.00    +0.000 NA
ATOM      3  C   UNL     1       1.628   3.954  17.837  0.00  0.00    +0.000 C 
ATOM      4  C   UNL     1       2.879   3.432  17.127  0.00  0.00    +0.000 C 
ATOM      5  C   UNL     1       4.135   4.127  17.588  0.00  0.00    +0.000 A 
ATOM      6  C   UNL     1       5.305   4.034  16.815  0.00  0.00    +0.000 A 
ATOM      7  C   UNL     1       6.473   4.640  17.264  0.00  0.00    +0.000 A 
ATOM      8  C   UNL     1       6.487   5.324  18.475  0.00  0.00    +0.000 A 
ATOM      9  C   UNL     1       5.345   5.414  19.257  0.00  0.00    +0.000 A 
ATOM     10  C   UNL     1       4.151   4.811  18.825  0.00  0.00    +0.000 A 
ATOM     11  H   UNL     1       0.959   4.304  19.741  0.00  0.00    +0.000 HD
ENDROOT
BRANCH   1  15
ATOM     12  C   UNL     1       1.988   8.345  18.907  0.00  0.00    +0.000 A 
ATOM     13  C   UNL     1       1.501   8.362  20.199  0.00  0.00    +0.000 A 
ATOM     14  C   UNL     1       1.753   7.083  20.742  0.00  0.00    +0.000 A 
ATOM     15  C   UNL     1       2.376   6.347  19.753  0.00  0.00    +0.000 A 
ATOM     16  O   UNL     1       2.526   7.118  18.632  0.00  0.00    +0.000 OA
BRANCH  12  17
ATOM     17  C   UNL     1       2.006   9.348  17.820  0.00  0.00    +0.000 C 
BRANCH  17  18
ATOM     18  O   UNL     1       0.713   9.942  17.757  0.00  0.00    +0.000 OA
ATOM     19  H   UNL     1       0.605  10.459  18.571  0.00  0.00    +0.000 HD
ENDBRANCH  17  18
ENDBRANCH  12  17
ENDBRANCH   1  15
BRANCH   7  20
ATOM     20  O   UNL     1       7.637   4.587  16.548  0.00  0.00    +0.000 OA
ATOM     21  H   UNL     1       7.983   3.679  16.605  0.00  0.00    +0.000 HD
ENDBRANCH   7  20
BRANCH   8  22
ATOM     22  O   UNL     1       7.639   5.918  18.907  0.00  0.00    +0.000 OA
ATOM     23  H   UNL     1       7.471   6.876  18.807  0.00  0.00    +0.000 HD
ENDBRANCH   8  22
TORSDOF 5
ENDMDL
