MODEL 1
REMARK VINA RESULT:      -8.2      0.000      0.000
REMARK  Name = 
REMARK  7 active torsions:
REMARK  status: ('A' for Active; 'I' for Inactive)
REMARK    1  A    between atoms: C_1  and  N_2
REMARK    2  A    between atoms: C_4  and  C_5
REMARK    3  A    between atoms: C_6  and  C_7
REMARK    4  A    between atoms: N_9  and  C_10
REMARK    5  A    between atoms: C_10  and  C_11
REMARK    6  A    between atoms: C_11  and  S_12
REMARK    7  A    between atoms: S_12  and  C_13
REMARK                            x       y       z     vdW  Elec       q    Type
REMARK                         _______ _______ _______ _____ _____    ______ ____
ROOT
ATOM      1  C   UNL     1       3.480   3.457  18.824  0.00  0.00    +0.000 C 
ATOM      2  C   UNL     1       2.372   3.999  19.347  0.00  0.00    +0.000 C 
ATOM      3  C   UNL     1       1.383   2.910  19.497  0.00  0.00    +0.000 C 
ATOM      4  O   UNL     1       0.252   3.004  19.939  0.00  0.00    +0.000 OA
ATOM      5  N   UNL     1       1.967   1.775  19.054  0.00  0.00    +0.000 N 
ATOM      6  C   UNL     1       3.224   2.015  18.627  0.00  0.00    +0.000 C 
ATOM      7  O   UNL     1       3.986   1.193  18.154  0.00  0.00    +0.000 OA
ATOM      8  H   UNL     1       1.520   0.874  19.030  0.00  0.00    +0.000 HD
ENDROOT
BRANCH   1  12
ATOM      9  C   UNL     1       7.779   5.811  19.285  0.00  0.00    +0.000 C 
ATOM     10  N   UNL     1       6.637   5.148  18.692  0.00  0.00    +0.000 N 
ATOM     11  C   UNL     1       5.584   4.631  19.397  0.00  0.00    +0.000 A 
ATOM     12  C   UNL     1       4.705   4.084  18.487  0.00  0.00    +0.000 A 
ATOM     13  C   UNL     1       5.251   4.259  17.183  0.00  0.00    +0.000 A 
ATOM     14  C   UNL     1       4.832   3.908  15.882  0.00  0.00    +0.000 A 
ATOM     15  C   UNL     1       5.622   4.260  14.783  0.00  0.00    +0.000 A 
ATOM     16  C   UNL     1       6.814   4.956  14.962  0.00  0.00    +0.000 A 
ATOM     17  C   UNL     1       7.256   5.309  16.240  0.00  0.00    +0.000 A 
ATOM     18  C   UNL     1       6.460   4.947  17.337  0.00  0.00    +0.000 A 
ENDBRANCH   1  12
BRANCH   2  19
ATOM     19  C   UNL     1       2.114   5.352  19.672  0.00  0.00    +0.000 A 
ATOM     20  C   UNL     1       1.604   5.796  20.873  0.00  0.00    +0.000 A 
ATOM     21  N   UNL     1       1.548   7.170  20.825  0.00  0.00    +0.000 N 
ATOM     22  C   UNL     1       1.964   7.618  19.584  0.00  0.00    +0.000 A 
ATOM     23  C   UNL     1       2.045   8.911  19.037  0.00  0.00    +0.000 A 
ATOM     24  C   UNL     1       2.530   9.053  17.732  0.00  0.00    +0.000 A 
ATOM     25  C   UNL     1       2.925   7.946  16.991  0.00  0.00    +0.000 A 
ATOM     26  C   UNL     1       2.834   6.661  17.534  0.00  0.00    +0.000 A 
ATOM     27  C   UNL     1       2.342   6.488  18.847  0.00  0.00    +0.000 A 
BRANCH  21  28
ATOM     28  C   UNL     1       1.061   8.002  21.922  0.00  0.00    +0.000 C 
BRANCH  28  29
ATOM     29  C   UNL     1      -0.311   8.620  21.646  0.00  0.00    +0.000 C 
BRANCH  29  30
ATOM     30  S   UNL     1      -0.440  10.236  22.484  0.00  0.00    +0.000 S 
BRANCH  30  31
ATOM     31  C   UNL     1       0.022  11.286  21.186  0.00  0.00    +0.000 C 
ATOM     32  N   UNL     1       1.052  12.042  21.293  0.00  0.00    +0.000 NA
ATOM     33  N   UNL     1      -0.785  11.309  20.107  0.00  0.00    +0.000 N 
ATOM     34  H   UNL     1       1.476  11.879  22.211  0.00  0.00    +0.000 HD
ATOM     35  H   UNL     1      -1.747  11.050  20.284  0.00  0.00    +0.000 HD
ATOM     36  H   UNL     1      -0.680  12.162  19.569  0.00  0.00    +0.000 HD
ENDBRANCH  30  31
ENDBRANCH  29  30
ENDBRANCH  28  29
ENDBRANCH  21  28
ENDBRANCH   2  19
TORSDOF 6
ENDMDL
MODEL 2
REMARK VINA RESULT:      -7.5      7.459     10.784
REMARK  Name = 
REMARK  7 active torsions:
REMARK  status: ('A' for Active; 'I' for Inactive)
REMARK    1  A    between atoms: C_1  and  N_2
REMARK    2  A    between atoms: C_4  and  C_5
REMARK    3  A    between atoms: C_6  and  C_7
REMARK    4  A    between atoms: N_9  and  C_10
REMARK    5  A    between atoms: C_10  and  C_11
REMARK    6  A    between atoms: C_11  and  S_12
REMARK    7  A    between atoms: S_12  and  C_13
REMARK                            x       y       z     vdW  Elec       q    Type
REMARK                         _______ _______ _______ _____ _____    ______ ____
ROOT
ATOM      1  C   UNL     1      -2.085  13.885  22.848  0.00  0.00    +0.000 C 
ATOM      2  C   UNL     1      -3.313  14.250  22.457  0.00  0.00    +0.000 C 
ATOM      3  C   UNL     1      -3.629  15.521  23.142  0.00  0.00    +0.000 C 
ATOM      4  O   UNL     1      -4.654  16.170  23.044  0.00  0.00    +0.000 OA
ATOM      5  N   UNL     1      -2.561  15.841  23.905  0.00  0.00    +0.000 N 
ATOM      6  C   UNL     1      -1.591  14.909  23.791  0.00  0.00    +0.000 C 
ATOM      7  O   UNL     1      -0.524  14.915  24.375  0.00  0.00    +0.000 OA
ATOM      8  H   UNL     1      -2.500  16.655  24.492  0.00  0.00    +0.000 HD
ENDROOT
BRANCH   1  12
ATOM      9  C   UNL     1      -0.207   9.334  22.918  0.00  0.00    +0.000 C 
ATOM     10  N   UNL     1      -0.486  10.694  22.510  0.00  0.00    +0.000 N 
ATOM     11  C   UNL     1      -1.334  11.546  23.166  0.00  0.00    +0.000 A 
ATOM     12  C   UNL     1      -1.336  12.740  22.478  0.00  0.00    +0.000 A 
ATOM     13  C   UNL     1      -0.472  12.605  21.353  0.00  0.00    +0.000 A 
ATOM     14  C   UNL     1      -0.085  13.457  20.297  0.00  0.00    +0.000 A 
ATOM     15  C   UNL     1       0.826  13.001  19.340  0.00  0.00    +0.000 A 
ATOM     16  C   UNL     1       1.357  11.717  19.422  0.00  0.00    +0.000 A 
ATOM     17  C   UNL     1       0.984  10.850  20.452  0.00  0.00    +0.000 A 
ATOM     18  C   UNL     1       0.065  11.313  21.405  0.00  0.00    +0.000 A 
ENDBRANCH   1  12
BRANCH   2  19
ATOM     19  C   UNL     1      -4.208  13.573  21.593  0.00  0.00    +0.000 A 
ATOM     20  C   UNL     1      -4.014  13.380  20.243  0.00  0.00    +0.000 A 
ATOM     21  N   UNL     1      -5.071  12.638  19.767  0.00  0.00    +0.000 N 
ATOM     22  C   UNL     1      -5.977  12.397  20.785  0.00  0.00    +0.000 A 
ATOM     23  C   UNL     1      -7.216  11.733  20.793  0.00  0.00    +0.000 A 
ATOM     24  C   UNL     1      -7.909  11.633  22.005  0.00  0.00    +0.000 A 
ATOM     25  C   UNL     1      -7.389  12.174  23.174  0.00  0.00    +0.000 A 
ATOM     26  C   UNL     1      -6.162  12.843  23.160  0.00  0.00    +0.000 A 
ATOM     27  C   UNL     1      -5.443  12.964  21.950  0.00  0.00    +0.000 A 
BRANCH  21  28
ATOM     28  C   UNL     1      -5.214  12.230  18.372  0.00  0.00    +0.000 C 
BRANCH  28  29
ATOM     29  C   UNL     1      -4.673  10.825  18.098  0.00  0.00    +0.000 C 
BRANCH  29  30
ATOM     30  S   UNL     1      -3.798  10.802  16.497  0.00  0.00    +0.000 S 
BRANCH  30  31
ATOM     31  C   UNL     1      -2.175  11.078  17.037  0.00  0.00    +0.000 C 
ATOM     32  N   UNL     1      -1.726  12.271  17.175  0.00  0.00    +0.000 NA
ATOM     33  N   UNL     1      -1.409   9.988  17.236  0.00  0.00    +0.000 N 
ATOM     34  H   UNL     1      -2.474  12.926  16.927  0.00  0.00    +0.000 HD
ATOM     35  H   UNL     1      -1.675   9.171  16.702  0.00  0.00    +0.000 HD
ATOM     36  H   UNL     1      -0.418  10.204  17.194  0.00  0.00    +0.000 HD
ENDBRANCH  30  31
ENDBRANCH  29  30
ENDBRANCH  28  29
ENDBRANCH  21  28
ENDBRANCH   2  19
TORSDOF 6
ENDMDL
MODEL 3
REMARK VINA RESULT:      -7.4      5.188      8.818
REMARK  Name = 
REMARK  7 active torsions:
REMARK  status: ('A' for Active; 'I' for Inactive)
REMARK    1  A    between atoms: C_1  and  N_2
REMARK    2  A    between atoms: C_4  and  C_5
REMARK    3  A    between atoms: C_6  and  C_7
REMARK    4  A    between atoms: N_9  and  C_10
REMARK    5  A    between atoms: C_10  and  C_11
REMARK    6  A    between atoms: C_11  and  S_12
REMARK    7  A    between atoms: S_12  and  C_13
REMARK                            x       y       z     vdW  Elec       q    Type
REMARK                         _______ _______ _______ _____ _____    ______ ____
ROOT
ATOM      1  C   UNL     1       0.844  12.747  19.117  0.00  0.00    +0.000 C 
ATOM      2  C   UNL     1      -0.306  13.433  19.109  0.00  0.00    +0.000 C 
ATOM      3  C   UNL     1       0.035  14.856  18.898  0.00  0.00    +0.000 C 
ATOM      4  O   UNL     1      -0.740  15.793  18.830  0.00  0.00    +0.000 OA
ATOM      5  N   UNL     1       1.380  14.933  18.788  0.00  0.00    +0.000 N 
ATOM      6  C   UNL     1       1.944  13.713  18.913  0.00  0.00    +0.000 C 
ATOM      7  O   UNL     1       3.135  13.472  18.880  0.00  0.00    +0.000 OA
ATOM      8  H   UNL     1       1.894  15.785  18.648  0.00  0.00    +0.000 HD
ENDROOT
BRANCH   1  12
ATOM      9  C   UNL     1       2.154   8.092  18.197  0.00  0.00    +0.000 C 
ATOM     10  N   UNL     1       1.636   9.260  18.877  0.00  0.00    +0.000 N 
ATOM     11  C   UNL     1       1.616  10.522  18.349  0.00  0.00    +0.000 A 
ATOM     12  C   UNL     1       1.051  11.356  19.290  0.00  0.00    +0.000 A 
ATOM     13  C   UNL     1       0.731  10.576  20.438  0.00  0.00    +0.000 A 
ATOM     14  C   UNL     1       0.161  10.860  21.697  0.00  0.00    +0.000 A 
ATOM     15  C   UNL     1      -0.038   9.824  22.615  0.00  0.00    +0.000 A 
ATOM     16  C   UNL     1       0.317   8.516  22.295  0.00  0.00    +0.000 A 
ATOM     17  C   UNL     1       0.891   8.209  21.059  0.00  0.00    +0.000 A 
ATOM     18  C   UNL     1       1.093   9.256  20.147  0.00  0.00    +0.000 A 
ENDBRANCH   1  12
BRANCH   2  19
ATOM     19  C   UNL     1      -1.626  12.957  19.307  0.00  0.00    +0.000 A 
ATOM     20  C   UNL     1      -2.411  13.230  20.405  0.00  0.00    +0.000 A 
ATOM     21  N   UNL     1      -3.636  12.637  20.205  0.00  0.00    +0.000 N 
ATOM     22  C   UNL     1      -3.634  11.935  19.012  0.00  0.00    +0.000 A 
ATOM     23  C   UNL     1      -4.615  11.140  18.395  0.00  0.00    +0.000 A 
ATOM     24  C   UNL     1      -4.319  10.560  17.156  0.00  0.00    +0.000 A 
ATOM     25  C   UNL     1      -3.087  10.763  16.546  0.00  0.00    +0.000 A 
ATOM     26  C   UNL     1      -2.110  11.545  17.167  0.00  0.00    +0.000 A 
ATOM     27  C   UNL     1      -2.379  12.138  18.421  0.00  0.00    +0.000 A 
BRANCH  21  28
ATOM     28  C   UNL     1      -4.740  12.710  21.158  0.00  0.00    +0.000 C 
BRANCH  28  29
ATOM     29  C   UNL     1      -4.931  14.107  21.752  0.00  0.00    +0.000 C 
BRANCH  29  30
ATOM     30  S   UNL     1      -4.364  14.123  23.487  0.00  0.00    +0.000 S 
BRANCH  30  31
ATOM     31  C   UNL     1      -5.519  13.039  24.190  0.00  0.00    +0.000 C 
ATOM     32  N   UNL     1      -6.747  13.385  24.315  0.00  0.00    +0.000 NA
ATOM     33  N   UNL     1      -5.047  11.863  24.647  0.00  0.00    +0.000 N 
ATOM     34  H   UNL     1      -6.855  14.331  23.936  0.00  0.00    +0.000 HD
ATOM     35  H   UNL     1      -4.070  11.864  24.908  0.00  0.00    +0.000 HD
ATOM     36  H   UNL     1      -5.659  11.449  25.341  0.00  0.00    +0.000 HD
ENDBRANCH  30  31
ENDBRANCH  29  30
ENDBRANCH  28  29
ENDBRANCH  21  28
ENDBRANCH   2  19
TORSDOF 6
ENDMDL
MODEL 4
REMARK VINA RESULT:      -7.4      4.875      9.868
REMARK  Name = 
REMARK  7 active torsions:
REMARK  status: ('A' for Active; 'I' for Inactive)
REMARK    1  A    between atoms: C_1  and  N_2
REMARK    2  A    between atoms: C_4  and  C_5
REMARK    3  A    between atoms: C_6  and  C_7
REMARK    4  A    between atoms: N_9  and  C_10
REMARK    5  A    between atoms: C_10  and  C_11
REMARK    6  A    between atoms: C_11  and  S_12
REMARK    7  A    between atoms: S_12  and  C_13
REMARK                            x       y       z     vdW  Elec       q    Type
REMARK                         _______ _______ _______ _____ _____    ______ ____
ROOT
ATOM      1  C   UNL     1       0.099  13.943  21.387  0.00  0.00    +0.000 C 
ATOM      2  C   UNL     1      -0.459  12.734  21.248  0.00  0.00    +0.000 C 
ATOM      3  C   UNL     1      -1.187  12.442  22.501  0.00  0.00    +0.000 C 
ATOM      4  O   UNL     1      -1.825  11.438  22.761  0.00  0.00    +0.000 OA
ATOM      5  N   UNL     1      -1.020  13.506  23.318  0.00  0.00    +0.000 N 
ATOM      6  C   UNL     1      -0.256  14.449  22.729  0.00  0.00    +0.000 C 
ATOM      7  O   UNL     1       0.083  15.506  23.228  0.00  0.00    +0.000 OA
ATOM      8  H   UNL     1      -1.400  13.579  24.246  0.00  0.00    +0.000 HD
ENDROOT
BRANCH   1  12
ATOM      9  C   UNL     1       4.034  15.492  18.867  0.00  0.00    +0.000 C 
ATOM     10  N   UNL     1       2.671  15.367  19.337  0.00  0.00    +0.000 N 
ATOM     11  C   UNL     1       2.257  14.485  20.298  0.00  0.00    +0.000 A 
ATOM     12  C   UNL     1       0.901  14.666  20.469  0.00  0.00    +0.000 A 
ATOM     13  C   UNL     1       0.473  15.683  19.568  0.00  0.00    +0.000 A 
ATOM     14  C   UNL     1      -0.771  16.282  19.275  0.00  0.00    +0.000 A 
ATOM     15  C   UNL     1      -0.839  17.299  18.318  0.00  0.00    +0.000 A 
ATOM     16  C   UNL     1       0.308  17.727  17.656  0.00  0.00    +0.000 A 
ATOM     17  C   UNL     1       1.550  17.145  17.921  0.00  0.00    +0.000 A 
ATOM     18  C   UNL     1       1.609  16.121  18.878  0.00  0.00    +0.000 A 
ENDBRANCH   1  12
BRANCH   2  19
ATOM     19  C   UNL     1      -0.371  11.835  20.157  0.00  0.00    +0.000 A 
ATOM     20  C   UNL     1       0.752  11.115  19.812  0.00  0.00    +0.000 A 
ATOM     21  N   UNL     1       0.428  10.320  18.737  0.00  0.00    +0.000 N 
ATOM     22  C   UNL     1      -0.877  10.559  18.346  0.00  0.00    +0.000 A 
ATOM     23  C   UNL     1      -1.647  10.039  17.291  0.00  0.00    +0.000 A 
ATOM     24  C   UNL     1      -2.972  10.470  17.157  0.00  0.00    +0.000 A 
ATOM     25  C   UNL     1      -3.518  11.390  18.043  0.00  0.00    +0.000 A 
ATOM     26  C   UNL     1      -2.748  11.913  19.085  0.00  0.00    +0.000 A 
ATOM     27  C   UNL     1      -1.405  11.500  19.240  0.00  0.00    +0.000 A 
BRANCH  21  28
ATOM     28  C   UNL     1       1.367   9.407  18.089  0.00  0.00    +0.000 C 
BRANCH  28  29
ATOM     29  C   UNL     1       1.926   8.346  19.039  0.00  0.00    +0.000 C 
BRANCH  29  30
ATOM     30  S   UNL     1       2.939   7.152  18.102  0.00  0.00    +0.000 S 
BRANCH  30  31
ATOM     31  C   UNL     1       2.653   5.719  19.033  0.00  0.00    +0.000 C 
ATOM     32  N   UNL     1       3.005   5.660  20.265  0.00  0.00    +0.000 NA
ATOM     33  N   UNL     1       2.111   4.671  18.383  0.00  0.00    +0.000 N 
ATOM     34  H   UNL     1       3.430   6.556  20.521  0.00  0.00    +0.000 HD
ATOM     35  H   UNL     1       2.280   4.649  17.386  0.00  0.00    +0.000 HD
ATOM     36  H   UNL     1       2.298   3.791  18.852  0.00  0.00    +0.000 HD
ENDBRANCH  30  31
ENDBRANCH  29  30
ENDBRANCH  28  29
ENDBRANCH  21  28
ENDBRANCH   2  19
TORSDOF 6
ENDMDL
MODEL 5
REMARK VINA RESULT:      -7.4      4.727      9.701
REMARK  Name = 
REMARK  7 active torsions:
REMARK  status: ('A' for Active; 'I' for Inactive)
REMARK    1  A    between atoms: C_1  and  N_2
REMARK    2  A    between atoms: C_4  and  C_5
REMARK    3  A    between atoms: C_6  and  C_7
REMARK    4  A    between atoms: N_9  and  C_10
REMARK    5  A    between atoms: C_10  and  C_11
REMARK    6  A    between atoms: C_11  and  S_12
REMARK    7  A    between atoms: S_12  and  C_13
REMARK                            x       y       z     vdW  Elec       q    Type
REMARK                         _______ _______ _______ _____ _____    ______ ____
ROOT
ATOM      1  C   UNL     1      -0.468  13.911  21.347  0.00  0.00    +0.000 C 
ATOM      2  C   UNL     1      -0.709  12.594  21.291  0.00  0.00    +0.000 C 
ATOM      3  C   UNL     1      -1.153  12.174  22.636  0.00  0.00    +0.000 C 
ATOM      4  O   UNL     1      -1.466  11.051  22.987  0.00  0.00    +0.000 OA
ATOM      5  N   UNL     1      -1.154  13.275  23.420  0.00  0.00    +0.000 N 
ATOM      6  C   UNL     1      -0.750  14.360  22.726  0.00  0.00    +0.000 C 
ATOM      7  O   UNL     1      -0.629  15.486  23.170  0.00  0.00    +0.000 OA
ATOM      8  H   UNL     1      -1.405  13.284  24.394  0.00  0.00    +0.000 HD
ENDROOT
BRANCH   1  12
ATOM      9  C   UNL     1      -0.484  17.367  17.841  0.00  0.00    +0.000 C 
ATOM     10  N   UNL     1      -0.024  16.331  18.740  0.00  0.00    +0.000 N 
ATOM     11  C   UNL     1      -0.811  15.692  19.660  0.00  0.00    +0.000 A 
ATOM     12  C   UNL     1      -0.018  14.779  20.321  0.00  0.00    +0.000 A 
ATOM     13  C   UNL     1       1.302  14.877  19.796  0.00  0.00    +0.000 A 
ATOM     14  C   UNL     1       2.525  14.228  20.071  0.00  0.00    +0.000 A 
ATOM     15  C   UNL     1       3.665  14.559  19.332  0.00  0.00    +0.000 A 
ATOM     16  C   UNL     1       3.602  15.520  18.326  0.00  0.00    +0.000 A 
ATOM     17  C   UNL     1       2.406  16.183  18.039  0.00  0.00    +0.000 A 
ATOM     18  C   UNL     1       1.269  15.849  18.790  0.00  0.00    +0.000 A 
ENDBRANCH   1  12
BRANCH   2  19
ATOM     19  C   UNL     1      -0.545  11.707  20.199  0.00  0.00    +0.000 A 
ATOM     20  C   UNL     1       0.596  10.985  19.928  0.00  0.00    +0.000 A 
ATOM     21  N   UNL     1       0.348  10.203  18.823  0.00  0.00    +0.000 N 
ATOM     22  C   UNL     1      -0.925  10.455  18.341  0.00  0.00    +0.000 A 
ATOM     23  C   UNL     1      -1.618   9.950  17.227  0.00  0.00    +0.000 A 
ATOM     24  C   UNL     1      -2.927  10.390  17.002  0.00  0.00    +0.000 A 
ATOM     25  C   UNL     1      -3.533  11.303  17.856  0.00  0.00    +0.000 A 
ATOM     26  C   UNL     1      -2.838  11.811  18.957  0.00  0.00    +0.000 A 
ATOM     27  C   UNL     1      -1.512  11.388  19.205  0.00  0.00    +0.000 A 
BRANCH  21  28
ATOM     28  C   UNL     1       1.326   9.293  18.235  0.00  0.00    +0.000 C 
BRANCH  28  29
ATOM     29  C   UNL     1       1.900   8.294  19.242  0.00  0.00    +0.000 C 
BRANCH  29  30
ATOM     30  S   UNL     1       2.756   6.948  18.356  0.00  0.00    +0.000 S 
BRANCH  30  31
ATOM     31  C   UNL     1       2.745   5.725  19.584  0.00  0.00    +0.000 C 
ATOM     32  N   UNL     1       2.246   5.966  20.741  0.00  0.00    +0.000 NA
ATOM     33  N   UNL     1       3.336   4.554  19.280  0.00  0.00    +0.000 N 
ATOM     34  H   UNL     1       1.898   6.930  20.746  0.00  0.00    +0.000 HD
ATOM     35  H   UNL     1       4.054   4.606  18.568  0.00  0.00    +0.000 HD
ATOM     36  H   UNL     1       3.614   4.039  20.108  0.00  0.00    +0.000 HD
ENDBRANCH  30  31
ENDBRANCH  29  30
ENDBRANCH  28  29
ENDBRANCH  21  28
ENDBRANCH   2  19
TORSDOF 6
ENDMDL
MODEL 6
REMARK VINA RESULT:      -7.3      7.752     10.851
REMARK  Name = 
REMARK  7 active torsions:
REMARK  status: ('A' for Active; 'I' for Inactive)
REMARK    1  A    between atoms: C_1  and  N_2
REMARK    2  A    between atoms: C_4  and  C_5
REMARK    3  A    between atoms: C_6  and  C_7
REMARK    4  A    between atoms: N_9  and  C_10
REMARK    5  A    between atoms: C_10  and  C_11
REMARK    6  A    between atoms: C_11  and  S_12
REMARK    7  A    between atoms: S_12  and  C_13
REMARK                            x       y       z     vdW  Elec       q    Type
REMARK                         _______ _______ _______ _____ _____    ______ ____
ROOT
ATOM      1  C   UNL     1      -1.071  14.296  21.683  0.00  0.00    +0.000 C 
ATOM      2  C   UNL     1      -2.018  13.349  21.659  0.00  0.00    +0.000 C 
ATOM      3  C   UNL     1      -2.296  12.975  23.062  0.00  0.00    +0.000 C 
ATOM      4  O   UNL     1      -3.097  12.146  23.453  0.00  0.00    +0.000 OA
ATOM      5  N   UNL     1      -1.494  13.730  23.844  0.00  0.00    +0.000 N 
ATOM      6  C   UNL     1      -0.723  14.546  23.097  0.00  0.00    +0.000 C 
ATOM      7  O   UNL     1       0.111  15.324  23.521  0.00  0.00    +0.000 OA
ATOM      8  H   UNL     1      -1.464  13.680  24.848  0.00  0.00    +0.000 HD
ENDROOT
BRANCH   1  12
ATOM      9  C   UNL     1       2.210  15.533  18.227  0.00  0.00    +0.000 C 
ATOM     10  N   UNL     1       1.016  15.535  19.046  0.00  0.00    +0.000 N 
ATOM     11  C   UNL     1       0.768  14.654  20.063  0.00  0.00    +0.000 A 
ATOM     12  C   UNL     1      -0.461  14.974  20.598  0.00  0.00    +0.000 A 
ATOM     13  C   UNL     1      -0.987  16.079  19.870  0.00  0.00    +0.000 A 
ATOM     14  C   UNL     1      -2.181  16.827  19.937  0.00  0.00    +0.000 A 
ATOM     15  C   UNL     1      -2.378  17.896  19.057  0.00  0.00    +0.000 A 
ATOM     16  C   UNL     1      -1.405  18.229  18.119  0.00  0.00    +0.000 A 
ATOM     17  C   UNL     1      -0.217  17.499  18.025  0.00  0.00    +0.000 A 
ATOM     18  C   UNL     1      -0.031  16.425  18.908  0.00  0.00    +0.000 A 
ENDBRANCH   1  12
BRANCH   2  19
ATOM     19  C   UNL     1      -2.641  12.744  20.540  0.00  0.00    +0.000 A 
ATOM     20  C   UNL     1      -3.947  12.949  20.153  0.00  0.00    +0.000 A 
ATOM     21  N   UNL     1      -4.161  12.233  18.998  0.00  0.00    +0.000 N 
ATOM     22  C   UNL     1      -3.023  11.520  18.664  0.00  0.00    +0.000 A 
ATOM     23  C   UNL     1      -2.757  10.622  17.616  0.00  0.00    +0.000 A 
ATOM     24  C   UNL     1      -1.479  10.060  17.528  0.00  0.00    +0.000 A 
ATOM     25  C   UNL     1      -0.491  10.379  18.452  0.00  0.00    +0.000 A 
ATOM     26  C   UNL     1      -0.761  11.264  19.499  0.00  0.00    +0.000 A 
ATOM     27  C   UNL     1      -2.046  11.842  19.615  0.00  0.00    +0.000 A 
BRANCH  21  28
ATOM     28  C   UNL     1      -5.434  12.205  18.283  0.00  0.00    +0.000 C 
BRANCH  28  29
ATOM     29  C   UNL     1      -6.615  11.812  19.174  0.00  0.00    +0.000 C 
BRANCH  29  30
ATOM     30  S   UNL     1      -6.896  10.012  19.069  0.00  0.00    +0.000 S 
BRANCH  30  31
ATOM     31  C   UNL     1      -7.496   9.707  20.665  0.00  0.00    +0.000 C 
ATOM     32  N   UNL     1      -7.709   8.507  21.064  0.00  0.00    +0.000 NA
ATOM     33  N   UNL     1      -7.782  10.784  21.422  0.00  0.00    +0.000 N 
ATOM     34  H   UNL     1      -7.458   7.867  20.305  0.00  0.00    +0.000 HD
ATOM     35  H   UNL     1      -8.006  11.625  20.906  0.00  0.00    +0.000 HD
ATOM     36  H   UNL     1      -8.440  10.568  22.162  0.00  0.00    +0.000 HD
ENDBRANCH  30  31
ENDBRANCH  29  30
ENDBRANCH  28  29
ENDBRANCH  21  28
ENDBRANCH   2  19
TORSDOF 6
ENDMDL
MODEL 7
REMARK VINA RESULT:      -7.3      7.116     10.117
REMARK  Name = 
REMARK  7 active torsions:
REMARK  status: ('A' for Active; 'I' for Inactive)
REMARK    1  A    between atoms: C_1  and  N_2
REMARK    2  A    between atoms: C_4  and  C_5
REMARK    3  A    between atoms: C_6  and  C_7
REMARK    4  A    between atoms: N_9  and  C_10
REMARK    5  A    between atoms: C_10  and  C_11
REMARK    6  A    between atoms: C_11  and  S_12
REMARK    7  A    between atoms: S_12  and  C_13
REMARK                            x       y       z     vdW  Elec       q    Type
REMARK                         _______ _______ _______ _____ _____    ______ ____
ROOT
ATOM      1  C   UNL     1      -0.735  14.382  21.628  0.00  0.00    +0.000 C 
ATOM      2  C   UNL     1      -1.474  13.264  21.602  0.00  0.00    +0.000 C 
ATOM      3  C   UNL     1      -1.771  12.906  23.005  0.00  0.00    +0.000 C 
ATOM      4  O   UNL     1      -2.420  11.953  23.395  0.00  0.00    +0.000 OA
ATOM      5  N   UNL     1      -1.190  13.841  23.789  0.00  0.00    +0.000 N 
ATOM      6  C   UNL     1      -0.543  14.760  23.043  0.00  0.00    +0.000 C 
ATOM      7  O   UNL     1       0.091  15.707  23.470  0.00  0.00    +0.000 OA
ATOM      8  H   UNL     1      -1.221  13.843  24.794  0.00  0.00    +0.000 HD
ENDROOT
BRANCH   1  12
ATOM      9  C   UNL     1      -0.367  17.587  17.909  0.00  0.00    +0.000 C 
ATOM     10  N   UNL     1      -0.029  16.557  18.867  0.00  0.00    +0.000 N 
ATOM     11  C   UNL     1      -0.875  16.085  19.835  0.00  0.00    +0.000 A 
ATOM     12  C   UNL     1      -0.195  15.118  20.544  0.00  0.00    +0.000 A 
ATOM     13  C   UNL     1       1.116  15.009  19.999  0.00  0.00    +0.000 A 
ATOM     14  C   UNL     1       2.249  14.223  20.302  0.00  0.00    +0.000 A 
ATOM     15  C   UNL     1       3.408  14.356  19.530  0.00  0.00    +0.000 A 
ATOM     16  C   UNL     1       3.452  15.252  18.466  0.00  0.00    +0.000 A 
ATOM     17  C   UNL     1       2.347  16.048  18.150  0.00  0.00    +0.000 A 
ATOM     18  C   UNL     1       1.191  15.913  18.933  0.00  0.00    +0.000 A 
ENDBRANCH   1  12
BRANCH   2  19
ATOM     19  C   UNL     1      -1.886  12.498  20.485  0.00  0.00    +0.000 A 
ATOM     20  C   UNL     1      -3.147  12.517  19.932  0.00  0.00    +0.000 A 
ATOM     21  N   UNL     1      -3.140  11.684  18.837  0.00  0.00    +0.000 N 
ATOM     22  C   UNL     1      -1.901  11.081  18.708  0.00  0.00    +0.000 A 
ATOM     23  C   UNL     1      -1.415  10.133  17.792  0.00  0.00    +0.000 A 
ATOM     24  C   UNL     1      -0.084   9.716  17.907  0.00  0.00    +0.000 A 
ATOM     25  C   UNL     1       0.742  10.225  18.902  0.00  0.00    +0.000 A 
ATOM     26  C   UNL     1       0.252  11.160  19.818  0.00  0.00    +0.000 A 
ATOM     27  C   UNL     1      -1.089  11.594  19.729  0.00  0.00    +0.000 A 
BRANCH  21  28
ATOM     28  C   UNL     1      -4.304  11.448  17.988  0.00  0.00    +0.000 C 
BRANCH  28  29
ATOM     29  C   UNL     1      -5.483  12.368  18.314  0.00  0.00    +0.000 C 
BRANCH  29  30
ATOM     30  S   UNL     1      -7.037  11.412  18.291  0.00  0.00    +0.000 S 
BRANCH  30  31
ATOM     31  C   UNL     1      -7.015  10.763  19.897  0.00  0.00    +0.000 C 
ATOM     32  N   UNL     1      -6.551  11.453  20.873  0.00  0.00    +0.000 NA
ATOM     33  N   UNL     1      -7.443   9.494  20.045  0.00  0.00    +0.000 N 
ATOM     34  H   UNL     1      -6.249  12.362  20.510  0.00  0.00    +0.000 HD
ATOM     35  H   UNL     1      -7.361   8.914  19.220  0.00  0.00    +0.000 HD
ATOM     36  H   UNL     1      -7.081   9.064  20.889  0.00  0.00    +0.000 HD
ENDBRANCH  30  31
ENDBRANCH  29  30
ENDBRANCH  28  29
ENDBRANCH  21  28
ENDBRANCH   2  19
TORSDOF 6
ENDMDL
MODEL 8
REMARK VINA RESULT:      -7.3      5.410      8.705
REMARK  Name = 
REMARK  7 active torsions:
REMARK  status: ('A' for Active; 'I' for Inactive)
REMARK    1  A    between atoms: C_1  and  N_2
REMARK    2  A    between atoms: C_4  and  C_5
REMARK    3  A    between atoms: C_6  and  C_7
REMARK    4  A    between atoms: N_9  and  C_10
REMARK    5  A    between atoms: C_10  and  C_11
REMARK    6  A    between atoms: C_11  and  S_12
REMARK    7  A    between atoms: S_12  and  C_13
REMARK                            x       y       z     vdW  Elec       q    Type
REMARK                         _______ _______ _______ _____ _____    ______ ____
ROOT
ATOM      1  C   UNL     1       0.514  12.675  20.172  0.00  0.00    +0.000 C 
ATOM      2  C   UNL     1      -0.521  13.260  19.554  0.00  0.00    +0.000 C 
ATOM      3  C   UNL     1      -0.061  14.587  19.094  0.00  0.00    +0.000 C 
ATOM      4  O   UNL     1      -0.714  15.419  18.490  0.00  0.00    +0.000 OA
ATOM      5  N   UNL     1       1.232  14.715  19.465  0.00  0.00    +0.000 N 
ATOM      6  C   UNL     1       1.654  13.615  20.123  0.00  0.00    +0.000 C 
ATOM      7  O   UNL     1       2.763  13.448  20.596  0.00  0.00    +0.000 OA
ATOM      8  H   UNL     1       1.799  15.526  19.291  0.00  0.00    +0.000 HD
ENDROOT
BRANCH   1  12
ATOM      9  C   UNL     1       0.120   9.124  23.558  0.00  0.00    +0.000 C 
ATOM     10  N   UNL     1       0.408   9.803  22.313  0.00  0.00    +0.000 N 
ATOM     11  C   UNL     1       0.181  11.133  22.081  0.00  0.00    +0.000 A 
ATOM     12  C   UNL     1       0.580  11.401  20.789  0.00  0.00    +0.000 A 
ATOM     13  C   UNL     1       1.051  10.188  20.209  0.00  0.00    +0.000 A 
ATOM     14  C   UNL     1       1.563   9.833  18.943  0.00  0.00    +0.000 A 
ATOM     15  C   UNL     1       1.964   8.515  18.705  0.00  0.00    +0.000 A 
ATOM     16  C   UNL     1       1.865   7.553  19.706  0.00  0.00    +0.000 A 
ATOM     17  C   UNL     1       1.353   7.876  20.966  0.00  0.00    +0.000 A 
ATOM     18  C   UNL     1       0.948   9.200  21.194  0.00  0.00    +0.000 A 
ENDBRANCH   1  12
BRANCH   2  19
ATOM     19  C   UNL     1      -1.840  12.775  19.381  0.00  0.00    +0.000 A 
ATOM     20  C   UNL     1      -2.937  13.186  20.106  0.00  0.00    +0.000 A 
ATOM     21  N   UNL     1      -4.040  12.529  19.610  0.00  0.00    +0.000 N 
ATOM     22  C   UNL     1      -3.659  11.653  18.608  0.00  0.00    +0.000 A 
ATOM     23  C   UNL     1      -4.397  10.741  17.835  0.00  0.00    +0.000 A 
ATOM     24  C   UNL     1      -3.723   9.989  16.867  0.00  0.00    +0.000 A 
ATOM     25  C   UNL     1      -2.355  10.137  16.670  0.00  0.00    +0.000 A 
ATOM     26  C   UNL     1      -1.622  11.038  17.447  0.00  0.00    +0.000 A 
ATOM     27  C   UNL     1      -2.277  11.806  18.436  0.00  0.00    +0.000 A 
BRANCH  21  28
ATOM     28  C   UNL     1      -5.394  12.709  20.127  0.00  0.00    +0.000 C 
BRANCH  28  29
ATOM     29  C   UNL     1      -5.426  13.093  21.608  0.00  0.00    +0.000 C 
BRANCH  29  30
ATOM     30  S   UNL     1      -7.013  12.574  22.345  0.00  0.00    +0.000 S 
BRANCH  30  31
ATOM     31  C   UNL     1      -6.698  12.922  24.013  0.00  0.00    +0.000 C 
ATOM     32  N   UNL     1      -7.421  13.767  24.651  0.00  0.00    +0.000 NA
ATOM     33  N   UNL     1      -5.631  12.315  24.568  0.00  0.00    +0.000 N 
ATOM     34  H   UNL     1      -8.137  14.124  24.012  0.00  0.00    +0.000 HD
ATOM     35  H   UNL     1      -4.903  12.047  23.919  0.00  0.00    +0.000 HD
ATOM     36  H   UNL     1      -5.293  12.809  25.387  0.00  0.00    +0.000 HD
ENDBRANCH  30  31
ENDBRANCH  29  30
ENDBRANCH  28  29
ENDBRANCH  21  28
ENDBRANCH   2  19
TORSDOF 6
ENDMDL
MODEL 9
REMARK VINA RESULT:      -7.2      5.129      8.645
REMARK  Name = 
REMARK  7 active torsions:
REMARK  status: ('A' for Active; 'I' for Inactive)
REMARK    1  A    between atoms: C_1  and  N_2
REMARK    2  A    between atoms: C_4  and  C_5
REMARK    3  A    between atoms: C_6  and  C_7
REMARK    4  A    between atoms: N_9  and  C_10
REMARK    5  A    between atoms: C_10  and  C_11
REMARK    6  A    between atoms: C_11  and  S_12
REMARK    7  A    between atoms: S_12  and  C_13
REMARK                            x       y       z     vdW  Elec       q    Type
REMARK                         _______ _______ _______ _____ _____    ______ ____
ROOT
ATOM      1  C   UNL     1       0.900  12.722  19.062  0.00  0.00    +0.000 C 
ATOM      2  C   UNL     1      -0.247  13.414  19.047  0.00  0.00    +0.000 C 
ATOM      3  C   UNL     1       0.103  14.835  18.840  0.00  0.00    +0.000 C 
ATOM      4  O   UNL     1      -0.666  15.776  18.768  0.00  0.00    +0.000 OA
ATOM      5  N   UNL     1       1.449  14.906  18.740  0.00  0.00    +0.000 N 
ATOM      6  C   UNL     1       2.006  13.683  18.868  0.00  0.00    +0.000 C 
ATOM      7  O   UNL     1       3.197  13.436  18.843  0.00  0.00    +0.000 OA
ATOM      8  H   UNL     1       1.969  15.756  18.605  0.00  0.00    +0.000 HD
ENDROOT
BRANCH   1  12
ATOM      9  C   UNL     1       2.196   8.062  18.147  0.00  0.00    +0.000 C 
ATOM     10  N   UNL     1       1.677   9.231  18.823  0.00  0.00    +0.000 N 
ATOM     11  C   UNL     1       1.668  10.495  18.297  0.00  0.00    +0.000 A 
ATOM     12  C   UNL     1       1.098  11.330  19.235  0.00  0.00    +0.000 A 
ATOM     13  C   UNL     1       0.765  10.549  20.378  0.00  0.00    +0.000 A 
ATOM     14  C   UNL     1       0.184  10.834  21.633  0.00  0.00    +0.000 A 
ATOM     15  C   UNL     1      -0.029   9.797  22.547  0.00  0.00    +0.000 A 
ATOM     16  C   UNL     1       0.323   8.489  22.229  0.00  0.00    +0.000 A 
ATOM     17  C   UNL     1       0.907   8.181  20.997  0.00  0.00    +0.000 A 
ATOM     18  C   UNL     1       1.123   9.228  20.088  0.00  0.00    +0.000 A 
ENDBRANCH   1  12
BRANCH   2  19
ATOM     19  C   UNL     1      -1.570  12.945  19.235  0.00  0.00    +0.000 A 
ATOM     20  C   UNL     1      -2.380  13.262  20.303  0.00  0.00    +0.000 A 
ATOM     21  N   UNL     1      -3.600  12.659  20.099  0.00  0.00    +0.000 N 
ATOM     22  C   UNL     1      -3.570  11.909  18.937  0.00  0.00    +0.000 A 
ATOM     23  C   UNL     1      -4.537  11.087  18.331  0.00  0.00    +0.000 A 
ATOM     24  C   UNL     1      -4.213  10.457  17.124  0.00  0.00    +0.000 A 
ATOM     25  C   UNL     1      -2.968  10.636  16.534  0.00  0.00    +0.000 A 
ATOM     26  C   UNL     1      -2.005  11.445  17.145  0.00  0.00    +0.000 A 
ATOM     27  C   UNL     1      -2.303  12.089  18.367  0.00  0.00    +0.000 A 
BRANCH  21  28
ATOM     28  C   UNL     1      -4.725  12.769  21.024  0.00  0.00    +0.000 C 
BRANCH  28  29
ATOM     29  C   UNL     1      -4.482  13.778  22.149  0.00  0.00    +0.000 C 
BRANCH  29  30
ATOM     30  S   UNL     1      -3.999  12.898  23.673  0.00  0.00    +0.000 S 
BRANCH  30  31
ATOM     31  C   UNL     1      -3.024  14.116  24.426  0.00  0.00    +0.000 C 
ATOM     32  N   UNL     1      -3.517  14.879  25.332  0.00  0.00    +0.000 NA
ATOM     33  N   UNL     1      -1.765  14.255  23.969  0.00  0.00    +0.000 N 
ATOM     34  H   UNL     1      -4.495  14.612  25.480  0.00  0.00    +0.000 HD
ATOM     35  H   UNL     1      -1.618  13.951  23.015  0.00  0.00    +0.000 HD
ATOM     36  H   UNL     1      -1.382  15.172  24.173  0.00  0.00    +0.000 HD
ENDBRANCH  30  31
ENDBRANCH  29  30
ENDBRANCH  28  29
ENDBRANCH  21  28
ENDBRANCH   2  19
TORSDOF 6
ENDMDL
