MODEL 1
REMARK VINA RESULT:      -8.0      0.000      0.000
REMARK  Name = 
REMARK  12 active torsions:
REMARK  status: ('A' for Active; 'I' for Inactive)
REMARK    1  A    between atoms: C_1  and  C_2
REMARK    2  A    between atoms: C_2  and  C_3
REMARK    3  A    between atoms: C_3  and  C_4
REMARK    4  A    between atoms: C_3  and  N_5
REMARK    5  A    between atoms: C_6  and  C_8
REMARK    6  A    between atoms: C_8  and  N_9
REMARK    7  A    between atoms: C_10  and  C_12
REMARK    8  A    between atoms: N_14  and  C_15
REMARK    9  A    between atoms: C_18  and  O_19
REMARK   10  A    between atoms: O_19  and  C_20
REMARK   11  A    between atoms: C_22  and  O_23
REMARK   12  A    between atoms: O_23  and  C_24
REMARK                            x       y       z     vdW  Elec       q    Type
REMARK                         _______ _______ _______ _____ _____    ______ ____
ROOT
ATOM      1  C   UNL     1       3.747   6.049  18.354  0.00  0.00    +0.000 A 
ATOM      2  N   UNL     1       3.167   7.076  18.908  0.00  0.00    +0.000 NA
ATOM      3  N   UNL     1       2.069   6.872  19.707  0.00  0.00    +0.000 N 
ATOM      4  C   UNL     1       1.524   5.624  20.004  0.00  0.00    +0.000 A 
ATOM      5  O   UNL     1       0.494   5.427  20.647  0.00  0.00    +0.000 OA
ATOM      6  C   UNL     1       2.235   4.463  19.451  0.00  0.00    +0.000 A 
ATOM      7  C   UNL     1       1.797   3.171  19.776  0.00  0.00    +0.000 A 
ATOM      8  C   UNL     1       2.427   2.063  19.221  0.00  0.00    +0.000 A 
ATOM      9  C   UNL     1       3.484   2.236  18.345  0.00  0.00    +0.000 A 
ATOM     10  C   UNL     1       3.916   3.519  18.021  0.00  0.00    +0.000 A 
ATOM     11  C   UNL     1       3.312   4.648  18.592  0.00  0.00    +0.000 A 
ENDROOT
BRANCH   3  12
ATOM     12  C   UNL     1       1.548   8.036  20.330  0.00  0.00    +0.000 A 
ATOM     13  C   UNL     1       1.377   7.990  21.727  0.00  0.00    +0.000 A 
ATOM     14  C   UNL     1       0.888   9.090  22.437  0.00  0.00    +0.000 A 
ATOM     15  C   UNL     1       0.545  10.254  21.763  0.00  0.00    +0.000 A 
ATOM     16  C   UNL     1       0.734  10.318  20.380  0.00  0.00    +0.000 A 
ATOM     17  C   UNL     1       1.220   9.220  19.648  0.00  0.00    +0.000 A 
BRANCH  15  18
ATOM     18  O   UNL     1       0.041  11.248  22.554  0.00  0.00    +0.000 OA
ATOM     19  C   UNL     1      -1.260  11.042  23.091  0.00  0.00    +0.000 C 
ENDBRANCH  15  18
BRANCH  17  20
ATOM     20  O   UNL     1       1.301   9.494  18.307  0.00  0.00    +0.000 OA
ATOM     21  C   UNL     1       1.914  10.707  17.895  0.00  0.00    +0.000 C 
ENDBRANCH  17  20
ENDBRANCH   3  12
BRANCH   1  23
ATOM     22  N   UNL     1       6.172   6.326  17.927  0.00  0.00    +0.000 N 
ATOM     23  C   UNL     1       4.903   6.379  17.401  0.00  0.00    +0.000 C 
ATOM     24  O   UNL     1       4.679   6.692  16.241  0.00  0.00    +0.000 OA
ATOM     25  H   UNL     1       6.307   6.311  18.928  0.00  0.00    +0.000 HD
BRANCH  22  26
ATOM     26  C   UNL     1       7.358   6.505  17.112  0.00  0.00    +0.000 C 
BRANCH  26  28
ATOM     27  N   UNL     1       7.123   5.593  14.864  0.00  0.00    +0.000 N 
ATOM     28  C   UNL     1       7.496   5.320  16.161  0.00  0.00    +0.000 C 
ATOM     29  O   UNL     1       7.894   4.231  16.550  0.00  0.00    +0.000 OA
ATOM     30  H   UNL     1       6.853   6.544  14.619  0.00  0.00    +0.000 HD
BRANCH  27  31
ATOM     31  C   UNL     1       7.210   4.581  13.823  0.00  0.00    +0.000 C 
ATOM     32  C   UNL     1       7.714   5.204  12.520  0.00  0.00    +0.000 C 
BRANCH  31  34
ATOM     33  C   UNL     1       5.688   3.342  12.191  0.00  0.00    +0.000 C 
ATOM     34  C   UNL     1       5.859   3.888  13.603  0.00  0.00    +0.000 C 
ENDBRANCH  31  34
ENDBRANCH  27  31
ENDBRANCH  26  28
ENDBRANCH  22  26
ENDBRANCH   1  23
TORSDOF 8
ENDMDL
MODEL 2
REMARK VINA RESULT:      -7.8      2.042      8.225
REMARK  Name = 
REMARK  12 active torsions:
REMARK  status: ('A' for Active; 'I' for Inactive)
REMARK    1  A    between atoms: C_1  and  C_2
REMARK    2  A    between atoms: C_2  and  C_3
REMARK    3  A    between atoms: C_3  and  C_4
REMARK    4  A    between atoms: C_3  and  N_5
REMARK    5  A    between atoms: C_6  and  C_8
REMARK    6  A    between atoms: C_8  and  N_9
REMARK    7  A    between atoms: C_10  and  C_12
REMARK    8  A    between atoms: N_14  and  C_15
REMARK    9  A    between atoms: C_18  and  O_19
REMARK   10  A    between atoms: O_19  and  C_20
REMARK   11  A    between atoms: C_22  and  O_23
REMARK   12  A    between atoms: O_23  and  C_24
REMARK                            x       y       z     vdW  Elec       q    Type
REMARK                         _______ _______ _______ _____ _____    ______ ____
ROOT
ATOM      1  C   UNL     1       2.877   5.884  18.784  0.00  0.00    +0.000 A 
ATOM      2  N   UNL     1       3.796   5.870  17.861  0.00  0.00    +0.000 NA
ATOM      3  N   UNL     1       4.303   4.665  17.442  0.00  0.00    +0.000 N 
ATOM      4  C   UNL     1       3.889   3.421  17.917  0.00  0.00    +0.000 A 
ATOM      5  O   UNL     1       4.388   2.338  17.616  0.00  0.00    +0.000 OA
ATOM      6  C   UNL     1       2.790   3.438  18.893  0.00  0.00    +0.000 A 
ATOM      7  C   UNL     1       2.261   2.223  19.351  0.00  0.00    +0.000 A 
ATOM      8  C   UNL     1       1.256   2.221  20.313  0.00  0.00    +0.000 A 
ATOM      9  C   UNL     1       0.780   3.418  20.817  0.00  0.00    +0.000 A 
ATOM     10  C   UNL     1       1.309   4.623  20.362  0.00  0.00    +0.000 A 
ATOM     11  C   UNL     1       2.302   4.646  19.374  0.00  0.00    +0.000 A 
ENDROOT
BRANCH   3  12
ATOM     12  C   UNL     1       5.242   4.738  16.380  0.00  0.00    +0.000 A 
ATOM     13  C   UNL     1       4.778   4.402  15.094  0.00  0.00    +0.000 A 
ATOM     14  C   UNL     1       5.619   4.459  13.979  0.00  0.00    +0.000 A 
ATOM     15  C   UNL     1       6.946   4.840  14.129  0.00  0.00    +0.000 A 
ATOM     16  C   UNL     1       7.409   5.198  15.398  0.00  0.00    +0.000 A 
ATOM     17  C   UNL     1       6.579   5.142  16.532  0.00  0.00    +0.000 A 
BRANCH  15  18
ATOM     18  O   UNL     1       7.682   4.821  12.978  0.00  0.00    +0.000 OA
ATOM     19  C   UNL     1       7.149   4.076  11.889  0.00  0.00    +0.000 C 
ENDBRANCH  15  18
BRANCH  17  20
ATOM     20  O   UNL     1       7.245   5.510  17.673  0.00  0.00    +0.000 OA
ATOM     21  C   UNL     1       7.506   6.889  17.894  0.00  0.00    +0.000 C 
ENDBRANCH  17  20
ENDBRANCH   3  12
BRANCH   1  23
ATOM     22  N   UNL     1       2.111   7.401  20.588  0.00  0.00    +0.000 N 
ATOM     23  C   UNL     1       2.441   7.277  19.259  0.00  0.00    +0.000 C 
ATOM     24  O   UNL     1       2.377   8.208  18.471  0.00  0.00    +0.000 OA
ATOM     25  H   UNL     1       1.935   6.577  21.147  0.00  0.00    +0.000 HD
BRANCH  22  26
ATOM     26  C   UNL     1       1.790   8.679  21.192  0.00  0.00    +0.000 C 
BRANCH  26  28
ATOM     27  N   UNL     1       0.147   9.883  19.852  0.00  0.00    +0.000 N 
ATOM     28  C   UNL     1       0.330   9.016  20.907  0.00  0.00    +0.000 C 
ATOM     29  O   UNL     1      -0.577   8.550  21.583  0.00  0.00    +0.000 OA
ATOM     30  H   UNL     1       0.959  10.179  19.313  0.00  0.00    +0.000 HD
BRANCH  27  31
ATOM     31  C   UNL     1      -1.182  10.294  19.433  0.00  0.00    +0.000 C 
ATOM     32  C   UNL     1      -1.298  10.239  17.908  0.00  0.00    +0.000 C 
BRANCH  31  34
ATOM     33  C   UNL     1      -2.835  12.240  19.395  0.00  0.00    +0.000 C 
ATOM     34  C   UNL     1      -1.524  11.698  19.951  0.00  0.00    +0.000 C 
ENDBRANCH  31  34
ENDBRANCH  27  31
ENDBRANCH  26  28
ENDBRANCH  22  26
ENDBRANCH   1  23
TORSDOF 8
ENDMDL
MODEL 3
REMARK VINA RESULT:      -7.6      2.345      8.102
REMARK  Name = 
REMARK  12 active torsions:
REMARK  status: ('A' for Active; 'I' for Inactive)
REMARK    1  A    between atoms: C_1  and  C_2
REMARK    2  A    between atoms: C_2  and  C_3
REMARK    3  A    between atoms: C_3  and  C_4
REMARK    4  A    between atoms: C_3  and  N_5
REMARK    5  A    between atoms: C_6  and  C_8
REMARK    6  A    between atoms: C_8  and  N_9
REMARK    7  A    between atoms: C_10  and  C_12
REMARK    8  A    between atoms: N_14  and  C_15
REMARK    9  A    between atoms: C_18  and  O_19
REMARK   10  A    between atoms: O_19  and  C_20
REMARK   11  A    between atoms: C_22  and  O_23
REMARK   12  A    between atoms: O_23  and  C_24
REMARK                            x       y       z     vdW  Elec       q    Type
REMARK                         _______ _______ _______ _____ _____    ______ ____
ROOT
ATOM      1  C   UNL     1       2.879   6.124  18.595  0.00  0.00    +0.000 A 
ATOM      2  N   UNL     1       3.787   6.043  17.664  0.00  0.00    +0.000 NA
ATOM      3  N   UNL     1       4.253   4.807  17.292  0.00  0.00    +0.000 N 
ATOM      4  C   UNL     1       3.808   3.598  17.823  0.00  0.00    +0.000 A 
ATOM      5  O   UNL     1       4.271   2.488  17.563  0.00  0.00    +0.000 OA
ATOM      6  C   UNL     1       2.721   3.688  18.807  0.00  0.00    +0.000 A 
ATOM      7  C   UNL     1       2.160   2.510  19.322  0.00  0.00    +0.000 A 
ATOM      8  C   UNL     1       1.167   2.579  20.291  0.00  0.00    +0.000 A 
ATOM      9  C   UNL     1       0.732   3.810  20.750  0.00  0.00    +0.000 A 
ATOM     10  C   UNL     1       1.291   4.978  20.239  0.00  0.00    +0.000 A 
ATOM     11  C   UNL     1       2.274   4.930  19.241  0.00  0.00    +0.000 A 
ENDROOT
BRANCH   3  12
ATOM     12  C   UNL     1       5.183   4.808  16.219  0.00  0.00    +0.000 A 
ATOM     13  C   UNL     1       4.721   4.340  14.974  0.00  0.00    +0.000 A 
ATOM     14  C   UNL     1       5.551   4.316  13.851  0.00  0.00    +0.000 A 
ATOM     15  C   UNL     1       6.868   4.747  13.952  0.00  0.00    +0.000 A 
ATOM     16  C   UNL     1       7.329   5.236  15.177  0.00  0.00    +0.000 A 
ATOM     17  C   UNL     1       6.509   5.263  16.319  0.00  0.00    +0.000 A 
BRANCH  15  18
ATOM     18  O   UNL     1       7.596   4.642  12.801  0.00  0.00    +0.000 OA
ATOM     19  C   UNL     1       7.068   3.799  11.784  0.00  0.00    +0.000 C 
ENDBRANCH  15  18
BRANCH  17  20
ATOM     20  O   UNL     1       7.171   5.755  17.415  0.00  0.00    +0.000 OA
ATOM     21  C   UNL     1       7.394   7.155  17.503  0.00  0.00    +0.000 C 
ENDBRANCH  17  20
ENDBRANCH   3  12
BRANCH   1  23
ATOM     22  N   UNL     1       2.283   8.455  18.004  0.00  0.00    +0.000 N 
ATOM     23  C   UNL     1       2.489   7.548  19.015  0.00  0.00    +0.000 C 
ATOM     24  O   UNL     1       2.395   7.840  20.198  0.00  0.00    +0.000 OA
ATOM     25  H   UNL     1       2.606   8.255  17.067  0.00  0.00    +0.000 HD
BRANCH  22  26
ATOM     26  C   UNL     1       1.803   9.801  18.253  0.00  0.00    +0.000 C 
BRANCH  26  28
ATOM     27  N   UNL     1      -0.481  10.199  17.498  0.00  0.00    +0.000 N 
ATOM     28  C   UNL     1       0.305   9.754  18.538  0.00  0.00    +0.000 C 
ATOM     29  O   UNL     1      -0.129   9.361  19.612  0.00  0.00    +0.000 OA
ATOM     30  H   UNL     1      -0.034  10.458  16.620  0.00  0.00    +0.000 HD
BRANCH  27  31
ATOM     31  C   UNL     1      -1.931  10.203  17.594  0.00  0.00    +0.000 C 
ATOM     32  C   UNL     1      -2.550   9.687  16.293  0.00  0.00    +0.000 C 
BRANCH  31  34
ATOM     33  C   UNL     1      -1.448  12.478  18.647  0.00  0.00    +0.000 C 
ATOM     34  C   UNL     1      -2.466  11.603  17.928  0.00  0.00    +0.000 C 
ENDBRANCH  31  34
ENDBRANCH  27  31
ENDBRANCH  26  28
ENDBRANCH  22  26
ENDBRANCH   1  23
TORSDOF 8
ENDMDL
MODEL 4
REMARK VINA RESULT:      -7.6      1.520      2.301
REMARK  Name = 
REMARK  12 active torsions:
REMARK  status: ('A' for Active; 'I' for Inactive)
REMARK    1  A    between atoms: C_1  and  C_2
REMARK    2  A    between atoms: C_2  and  C_3
REMARK    3  A    between atoms: C_3  and  C_4
REMARK    4  A    between atoms: C_3  and  N_5
REMARK    5  A    between atoms: C_6  and  C_8
REMARK    6  A    between atoms: C_8  and  N_9
REMARK    7  A    between atoms: C_10  and  C_12
REMARK    8  A    between atoms: N_14  and  C_15
REMARK    9  A    between atoms: C_18  and  O_19
REMARK   10  A    between atoms: O_19  and  C_20
REMARK   11  A    between atoms: C_22  and  O_23
REMARK   12  A    between atoms: O_23  and  C_24
REMARK                            x       y       z     vdW  Elec       q    Type
REMARK                         _______ _______ _______ _____ _____    ______ ____
ROOT
ATOM      1  C   UNL     1       4.203   5.563  19.486  0.00  0.00    +0.000 A 
ATOM      2  N   UNL     1       3.621   6.719  19.341  0.00  0.00    +0.000 NA
ATOM      3  N   UNL     1       2.315   6.864  19.740  0.00  0.00    +0.000 N 
ATOM      4  C   UNL     1       1.548   5.858  20.325  0.00  0.00    +0.000 A 
ATOM      5  O   UNL     1       0.355   5.943  20.612  0.00  0.00    +0.000 OA
ATOM      6  C   UNL     1       2.236   4.583  20.569  0.00  0.00    +0.000 A 
ATOM      7  C   UNL     1       1.555   3.552  21.232  0.00  0.00    +0.000 A 
ATOM      8  C   UNL     1       2.174   2.322  21.425  0.00  0.00    +0.000 A 
ATOM      9  C   UNL     1       3.461   2.116  20.960  0.00  0.00    +0.000 A 
ATOM     10  C   UNL     1       4.134   3.140  20.300  0.00  0.00    +0.000 A 
ATOM     11  C   UNL     1       3.537   4.395  20.121  0.00  0.00    +0.000 A 
ENDROOT
BRANCH   3  12
ATOM     12  C   UNL     1       1.786   8.176  19.617  0.00  0.00    +0.000 A 
ATOM     13  C   UNL     1       1.705   8.712  18.317  0.00  0.00    +0.000 A 
ATOM     14  C   UNL     1       1.183   9.987  18.087  0.00  0.00    +0.000 A 
ATOM     15  C   UNL     1       0.744  10.760  19.154  0.00  0.00    +0.000 A 
ATOM     16  C   UNL     1       0.797  10.227  20.445  0.00  0.00    +0.000 A 
ATOM     17  C   UNL     1       1.324   8.948  20.696  0.00  0.00    +0.000 A 
BRANCH  15  18
ATOM     18  O   UNL     1       0.290  12.003  18.814  0.00  0.00    +0.000 OA
ATOM     19  C   UNL     1       0.941  13.111  19.424  0.00  0.00    +0.000 C 
ENDBRANCH  15  18
BRANCH  17  20
ATOM     20  O   UNL     1       1.304   8.638  22.032  0.00  0.00    +0.000 OA
ATOM     21  C   UNL     1       0.392   9.326  22.876  0.00  0.00    +0.000 C 
ENDBRANCH  17  20
ENDBRANCH   3  12
BRANCH   1  23
ATOM     22  N   UNL     1       5.894   6.195  17.789  0.00  0.00    +0.000 N 
ATOM     23  C   UNL     1       5.628   5.466  18.923  0.00  0.00    +0.000 C 
ATOM     24  O   UNL     1       6.459   4.752  19.463  0.00  0.00    +0.000 OA
ATOM     25  H   UNL     1       5.136   6.569  17.235  0.00  0.00    +0.000 HD
BRANCH  22  26
ATOM     26  C   UNL     1       7.224   6.283  17.217  0.00  0.00    +0.000 C 
BRANCH  26  28
ATOM     27  N   UNL     1       6.866   5.440  14.958  0.00  0.00    +0.000 N 
ATOM     28  C   UNL     1       7.405   5.165  16.195  0.00  0.00    +0.000 C 
ATOM     29  O   UNL     1       7.972   4.121  16.484  0.00  0.00    +0.000 OA
ATOM     30  H   UNL     1       6.458   6.359  14.792  0.00  0.00    +0.000 HD
BRANCH  27  31
ATOM     31  C   UNL     1       6.966   4.491  13.862  0.00  0.00    +0.000 C 
ATOM     32  C   UNL     1       7.655   5.140  12.659  0.00  0.00    +0.000 C 
BRANCH  31  34
ATOM     33  C   UNL     1       5.602   3.172  12.154  0.00  0.00    +0.000 C 
ATOM     34  C   UNL     1       5.586   3.947  13.465  0.00  0.00    +0.000 C 
ENDBRANCH  31  34
ENDBRANCH  27  31
ENDBRANCH  26  28
ENDBRANCH  22  26
ENDBRANCH   1  23
TORSDOF 8
ENDMDL
MODEL 5
REMARK VINA RESULT:      -7.5      1.710      2.632
REMARK  Name = 
REMARK  12 active torsions:
REMARK  status: ('A' for Active; 'I' for Inactive)
REMARK    1  A    between atoms: C_1  and  C_2
REMARK    2  A    between atoms: C_2  and  C_3
REMARK    3  A    between atoms: C_3  and  C_4
REMARK    4  A    between atoms: C_3  and  N_5
REMARK    5  A    between atoms: C_6  and  C_8
REMARK    6  A    between atoms: C_8  and  N_9
REMARK    7  A    between atoms: C_10  and  C_12
REMARK    8  A    between atoms: N_14  and  C_15
REMARK    9  A    between atoms: C_18  and  O_19
REMARK   10  A    between atoms: O_19  and  C_20
REMARK   11  A    between atoms: C_22  and  O_23
REMARK   12  A    between atoms: O_23  and  C_24
REMARK                            x       y       z     vdW  Elec       q    Type
REMARK                         _______ _______ _______ _____ _____    ______ ____
ROOT
ATOM      1  C   UNL     1       4.394   5.352  18.984  0.00  0.00    +0.000 A 
ATOM      2  N   UNL     1       3.781   6.495  18.868  0.00  0.00    +0.000 NA
ATOM      3  N   UNL     1       2.533   6.642  19.420  0.00  0.00    +0.000 N 
ATOM      4  C   UNL     1       1.859   5.653  20.134  0.00  0.00    +0.000 A 
ATOM      5  O   UNL     1       0.709   5.738  20.564  0.00  0.00    +0.000 OA
ATOM      6  C   UNL     1       2.591   4.396  20.341  0.00  0.00    +0.000 A 
ATOM      7  C   UNL     1       2.014   3.386  21.123  0.00  0.00    +0.000 A 
ATOM      8  C   UNL     1       2.671   2.172  21.286  0.00  0.00    +0.000 A 
ATOM      9  C   UNL     1       3.894   1.960  20.674  0.00  0.00    +0.000 A 
ATOM     10  C   UNL     1       4.464   2.963  19.895  0.00  0.00    +0.000 A 
ATOM     11  C   UNL     1       3.830   4.204  19.742  0.00  0.00    +0.000 A 
ENDROOT
BRANCH   3  12
ATOM     12  C   UNL     1       1.972   7.942  19.312  0.00  0.00    +0.000 A 
ATOM     13  C   UNL     1       1.919   8.510  18.024  0.00  0.00    +0.000 A 
ATOM     14  C   UNL     1       1.370   9.777  17.809  0.00  0.00    +0.000 A 
ATOM     15  C   UNL     1       0.875  10.509  18.880  0.00  0.00    +0.000 A 
ATOM     16  C   UNL     1       0.901   9.945  20.158  0.00  0.00    +0.000 A 
ATOM     17  C   UNL     1       1.454   8.674  20.394  0.00  0.00    +0.000 A 
BRANCH  15  18
ATOM     18  O   UNL     1       0.399  11.749  18.556  0.00  0.00    +0.000 OA
ATOM     19  C   UNL     1       1.349  12.806  18.506  0.00  0.00    +0.000 C 
ENDBRANCH  15  18
BRANCH  17  20
ATOM     20  O   UNL     1       1.400   8.329  21.721  0.00  0.00    +0.000 OA
ATOM     21  C   UNL     1       1.031   9.323  22.667  0.00  0.00    +0.000 C 
ENDBRANCH  17  20
ENDBRANCH   3  12
BRANCH   1  23
ATOM     22  N   UNL     1       5.783   4.423  17.155  0.00  0.00    +0.000 N 
ATOM     23  C   UNL     1       5.740   5.247  18.254  0.00  0.00    +0.000 C 
ATOM     24  O   UNL     1       6.715   5.861  18.661  0.00  0.00    +0.000 OA
ATOM     25  H   UNL     1       5.046   3.749  16.995  0.00  0.00    +0.000 HD
BRANCH  22  26
ATOM     26  C   UNL     1       6.956   4.318  16.308  0.00  0.00    +0.000 C 
BRANCH  26  28
ATOM     27  N   UNL     1       6.441   3.574  14.044  0.00  0.00    +0.000 N 
ATOM     28  C   UNL     1       6.571   4.666  14.874  0.00  0.00    +0.000 C 
ATOM     29  O   UNL     1       6.411   5.825  14.519  0.00  0.00    +0.000 OA
ATOM     30  H   UNL     1       6.542   2.641  14.441  0.00  0.00    +0.000 HD
BRANCH  27  31
ATOM     31  C   UNL     1       6.060   3.725  12.650  0.00  0.00    +0.000 C 
ATOM     32  C   UNL     1       4.627   3.234  12.436  0.00  0.00    +0.000 C 
BRANCH  31  34
ATOM     33  C   UNL     1       6.444   1.698  11.146  0.00  0.00    +0.000 C 
ATOM     34  C   UNL     1       7.030   2.981  11.721  0.00  0.00    +0.000 C 
ENDBRANCH  31  34
ENDBRANCH  27  31
ENDBRANCH  26  28
ENDBRANCH  22  26
ENDBRANCH   1  23
TORSDOF 8
ENDMDL
MODEL 6
REMARK VINA RESULT:      -7.5      1.038      1.044
REMARK  Name = 
REMARK  12 active torsions:
REMARK  status: ('A' for Active; 'I' for Inactive)
REMARK    1  A    between atoms: C_1  and  C_2
REMARK    2  A    between atoms: C_2  and  C_3
REMARK    3  A    between atoms: C_3  and  C_4
REMARK    4  A    between atoms: C_3  and  N_5
REMARK    5  A    between atoms: C_6  and  C_8
REMARK    6  A    between atoms: C_8  and  N_9
REMARK    7  A    between atoms: C_10  and  C_12
REMARK    8  A    between atoms: N_14  and  C_15
REMARK    9  A    between atoms: C_18  and  O_19
REMARK   10  A    between atoms: O_19  and  C_20
REMARK   11  A    between atoms: C_22  and  O_23
REMARK   12  A    between atoms: O_23  and  C_24
REMARK                            x       y       z     vdW  Elec       q    Type
REMARK                         _______ _______ _______ _____ _____    ______ ____
ROOT
ATOM      1  C   UNL     1       3.955   5.542  19.414  0.00  0.00    +0.000 A 
ATOM      2  N   UNL     1       3.389   6.666  19.750  0.00  0.00    +0.000 NA
ATOM      3  N   UNL     1       2.071   6.661  20.132  0.00  0.00    +0.000 N 
ATOM      4  C   UNL     1       1.273   5.522  20.218  0.00  0.00    +0.000 A 
ATOM      5  O   UNL     1       0.071   5.507  20.478  0.00  0.00    +0.000 OA
ATOM      6  C   UNL     1       1.941   4.246  19.926  0.00  0.00    +0.000 A 
ATOM      7  C   UNL     1       1.226   3.048  20.075  0.00  0.00    +0.000 A 
ATOM      8  C   UNL     1       1.827   1.836  19.753  0.00  0.00    +0.000 A 
ATOM      9  C   UNL     1       3.129   1.813  19.284  0.00  0.00    +0.000 A 
ATOM     10  C   UNL     1       3.835   3.003  19.135  0.00  0.00    +0.000 A 
ATOM     11  C   UNL     1       3.256   4.232  19.480  0.00  0.00    +0.000 A 
ENDROOT
BRANCH   3  12
ATOM     12  C   UNL     1       1.558   7.916  20.554  0.00  0.00    +0.000 A 
ATOM     13  C   UNL     1       1.266   8.058  21.925  0.00  0.00    +0.000 A 
ATOM     14  C   UNL     1       0.773   9.258  22.444  0.00  0.00    +0.000 A 
ATOM     15  C   UNL     1       0.548  10.338  21.601  0.00  0.00    +0.000 A 
ATOM     16  C   UNL     1       0.858  10.215  20.244  0.00  0.00    +0.000 A 
ATOM     17  C   UNL     1       1.349   9.014  19.703  0.00  0.00    +0.000 A 
BRANCH  15  18
ATOM     18  O   UNL     1       0.030  11.444  22.212  0.00  0.00    +0.000 OA
ATOM     19  C   UNL     1      -0.328  12.533  21.369  0.00  0.00    +0.000 C 
ENDBRANCH  15  18
BRANCH  17  20
ATOM     20  O   UNL     1       1.558   9.108  18.351  0.00  0.00    +0.000 OA
ATOM     21  C   UNL     1       1.975  10.355  17.812  0.00  0.00    +0.000 C 
ENDBRANCH  17  20
ENDBRANCH   3  12
BRANCH   1  23
ATOM     22  N   UNL     1       5.578   6.261  17.685  0.00  0.00    +0.000 N 
ATOM     23  C   UNL     1       5.399   5.656  18.906  0.00  0.00    +0.000 C 
ATOM     24  O   UNL     1       6.325   5.204  19.564  0.00  0.00    +0.000 OA
ATOM     25  H   UNL     1       4.792   6.395  17.064  0.00  0.00    +0.000 HD
BRANCH  22  26
ATOM     26  C   UNL     1       6.894   6.534  17.139  0.00  0.00    +0.000 C 
BRANCH  26  28
ATOM     27  N   UNL     1       6.868   5.552  14.908  0.00  0.00    +0.000 N 
ATOM     28  C   UNL     1       7.296   5.395  16.208  0.00  0.00    +0.000 C 
ATOM     29  O   UNL     1       7.932   4.433  16.613  0.00  0.00    +0.000 OA
ATOM     30  H   UNL     1       6.388   6.413  14.649  0.00  0.00    +0.000 HD
BRANCH  27  31
ATOM     31  C   UNL     1       7.181   4.568  13.885  0.00  0.00    +0.000 C 
ATOM     32  C   UNL     1       7.721   5.261  12.631  0.00  0.00    +0.000 C 
BRANCH  31  34
ATOM     33  C   UNL     1       5.914   3.282  12.080  0.00  0.00    +0.000 C 
ATOM     34  C   UNL     1       5.956   3.709  13.541  0.00  0.00    +0.000 C 
ENDBRANCH  31  34
ENDBRANCH  27  31
ENDBRANCH  26  28
ENDBRANCH  22  26
ENDBRANCH   1  23
TORSDOF 8
ENDMDL
MODEL 7
REMARK VINA RESULT:      -7.5      3.882      7.076
REMARK  Name = 
REMARK  12 active torsions:
REMARK  status: ('A' for Active; 'I' for Inactive)
REMARK    1  A    between atoms: C_1  and  C_2
REMARK    2  A    between atoms: C_2  and  C_3
REMARK    3  A    between atoms: C_3  and  C_4
REMARK    4  A    between atoms: C_3  and  N_5
REMARK    5  A    between atoms: C_6  and  C_8
REMARK    6  A    between atoms: C_8  and  N_9
REMARK    7  A    between atoms: C_10  and  C_12
REMARK    8  A    between atoms: N_14  and  C_15
REMARK    9  A    between atoms: C_18  and  O_19
REMARK   10  A    between atoms: O_19  and  C_20
REMARK   11  A    between atoms: C_22  and  O_23
REMARK   12  A    between atoms: O_23  and  C_24
REMARK                            x       y       z     vdW  Elec       q    Type
REMARK                         _______ _______ _______ _____ _____    ______ ____
ROOT
ATOM      1  C   UNL     1       0.762  10.803  19.394  0.00  0.00    +0.000 A 
ATOM      2  N   UNL     1       0.988  12.022  18.998  0.00  0.00    +0.000 NA
ATOM      3  N   UNL     1       0.620  13.067  19.808  0.00  0.00    +0.000 N 
ATOM      4  C   UNL     1       0.031  12.928  21.064  0.00  0.00    +0.000 A 
ATOM      5  O   UNL     1      -0.382  13.850  21.767  0.00  0.00    +0.000 OA
ATOM      6  C   UNL     1      -0.140  11.551  21.546  0.00  0.00    +0.000 A 
ATOM      7  C   UNL     1      -0.646  11.333  22.836  0.00  0.00    +0.000 A 
ATOM      8  C   UNL     1      -0.863  10.036  23.288  0.00  0.00    +0.000 A 
ATOM      9  C   UNL     1      -0.580   8.961  22.464  0.00  0.00    +0.000 A 
ATOM     10  C   UNL     1      -0.080   9.180  21.183  0.00  0.00    +0.000 A 
ATOM     11  C   UNL     1       0.171  10.479  20.720  0.00  0.00    +0.000 A 
ENDROOT
BRANCH   3  12
ATOM     12  C   UNL     1       0.973  14.358  19.333  0.00  0.00    +0.000 A 
ATOM     13  C   UNL     1      -0.056  15.133  18.765  0.00  0.00    +0.000 A 
ATOM     14  C   UNL     1       0.184  16.422  18.283  0.00  0.00    +0.000 A 
ATOM     15  C   UNL     1       1.463  16.959  18.346  0.00  0.00    +0.000 A 
ATOM     16  C   UNL     1       2.487  16.207  18.930  0.00  0.00    +0.000 A 
ATOM     17  C   UNL     1       2.264  14.906  19.415  0.00  0.00    +0.000 A 
BRANCH  15  18
ATOM     18  O   UNL     1       1.588  18.209  17.811  0.00  0.00    +0.000 OA
ATOM     19  C   UNL     1       0.560  18.631  16.921  0.00  0.00    +0.000 C 
ENDBRANCH  15  18
BRANCH  17  20
ATOM     20  O   UNL     1       3.409  14.344  19.920  0.00  0.00    +0.000 OA
ATOM     21  C   UNL     1       3.596  14.327  21.328  0.00  0.00    +0.000 C 
ENDBRANCH  17  20
ENDBRANCH   3  12
BRANCH   1  23
ATOM     22  N   UNL     1       2.358   9.128  18.506  0.00  0.00    +0.000 N 
ATOM     23  C   UNL     1       1.116   9.703  18.384  0.00  0.00    +0.000 C 
ATOM     24  O   UNL     1       0.322   9.388  17.509  0.00  0.00    +0.000 OA
ATOM     25  H   UNL     1       3.071   9.573  19.067  0.00  0.00    +0.000 HD
BRANCH  22  26
ATOM     26  C   UNL     1       2.777   8.005  17.691  0.00  0.00    +0.000 C 
BRANCH  26  28
ATOM     27  N   UNL     1       2.838   5.569  17.786  0.00  0.00    +0.000 N 
ATOM     28  C   UNL     1       2.695   6.727  18.519  0.00  0.00    +0.000 C 
ATOM     29  O   UNL     1       2.503   6.759  19.727  0.00  0.00    +0.000 OA
ATOM     30  H   UNL     1       3.047   5.640  16.791  0.00  0.00    +0.000 HD
BRANCH  27  31
ATOM     31  C   UNL     1       2.805   4.262  18.421  0.00  0.00    +0.000 C 
ATOM     32  C   UNL     1       3.727   3.290  17.682  0.00  0.00    +0.000 C 
BRANCH  31  34
ATOM     33  C   UNL     1       0.969   3.254  19.881  0.00  0.00    +0.000 C 
ATOM     34  C   UNL     1       1.375   3.708  18.485  0.00  0.00    +0.000 C 
ENDBRANCH  31  34
ENDBRANCH  27  31
ENDBRANCH  26  28
ENDBRANCH  22  26
ENDBRANCH   1  23
TORSDOF 8
ENDMDL
MODEL 8
REMARK VINA RESULT:      -7.4      1.888      8.339
REMARK  Name = 
REMARK  12 active torsions:
REMARK  status: ('A' for Active; 'I' for Inactive)
REMARK    1  A    between atoms: C_1  and  C_2
REMARK    2  A    between atoms: C_2  and  C_3
REMARK    3  A    between atoms: C_3  and  C_4
REMARK    4  A    between atoms: C_3  and  N_5
REMARK    5  A    between atoms: C_6  and  C_8
REMARK    6  A    between atoms: C_8  and  N_9
REMARK    7  A    between atoms: C_10  and  C_12
REMARK    8  A    between atoms: N_14  and  C_15
REMARK    9  A    between atoms: C_18  and  O_19
REMARK   10  A    between atoms: O_19  and  C_20
REMARK   11  A    between atoms: C_22  and  O_23
REMARK   12  A    between atoms: O_23  and  C_24
REMARK                            x       y       z     vdW  Elec       q    Type
REMARK                         _______ _______ _______ _____ _____    ______ ____
ROOT
ATOM      1  C   UNL     1       2.967   6.107  18.389  0.00  0.00    +0.000 A 
ATOM      2  N   UNL     1       3.848   5.982  17.438  0.00  0.00    +0.000 NA
ATOM      3  N   UNL     1       4.297   4.729  17.104  0.00  0.00    +0.000 N 
ATOM      4  C   UNL     1       3.857   3.545  17.695  0.00  0.00    +0.000 A 
ATOM      5  O   UNL     1       4.306   2.422  17.468  0.00  0.00    +0.000 OA
ATOM      6  C   UNL     1       2.798   3.683  18.703  0.00  0.00    +0.000 A 
ATOM      7  C   UNL     1       2.244   2.531  19.279  0.00  0.00    +0.000 A 
ATOM      8  C   UNL     1       1.277   2.646  20.272  0.00  0.00    +0.000 A 
ATOM      9  C   UNL     1       0.863   3.898  20.691  0.00  0.00    +0.000 A 
ATOM     10  C   UNL     1       1.416   5.041  20.120  0.00  0.00    +0.000 A 
ATOM     11  C   UNL     1       2.371   4.945  19.099  0.00  0.00    +0.000 A 
ENDROOT
BRANCH   3  12
ATOM     12  C   UNL     1       5.197   4.679  16.007  0.00  0.00    +0.000 A 
ATOM     13  C   UNL     1       4.702   4.154  14.798  0.00  0.00    +0.000 A 
ATOM     14  C   UNL     1       5.502   4.078  13.655  0.00  0.00    +0.000 A 
ATOM     15  C   UNL     1       6.820   4.513  13.702  0.00  0.00    +0.000 A 
ATOM     16  C   UNL     1       7.314   5.057  14.890  0.00  0.00    +0.000 A 
ATOM     17  C   UNL     1       6.525   5.138  16.051  0.00  0.00    +0.000 A 
BRANCH  15  18
ATOM     18  O   UNL     1       7.518   4.354  12.537  0.00  0.00    +0.000 OA
ATOM     19  C   UNL     1       7.570   5.476  11.664  0.00  0.00    +0.000 C 
ENDBRANCH  15  18
BRANCH  17  20
ATOM     20  O   UNL     1       7.216   5.679  17.104  0.00  0.00    +0.000 OA
ATOM     21  C   UNL     1       7.671   4.815  18.136  0.00  0.00    +0.000 C 
ENDBRANCH  17  20
ENDBRANCH   3  12
BRANCH   1  23
ATOM     22  N   UNL     1       2.573   8.465  17.737  0.00  0.00    +0.000 N 
ATOM     23  C   UNL     1       2.598   7.550  18.761  0.00  0.00    +0.000 C 
ATOM     24  O   UNL     1       2.362   7.848  19.923  0.00  0.00    +0.000 OA
ATOM     25  H   UNL     1       3.008   8.248  16.850  0.00  0.00    +0.000 HD
BRANCH  22  26
ATOM     26  C   UNL     1       2.134   9.834  17.928  0.00  0.00    +0.000 C 
BRANCH  26  28
ATOM     27  N   UNL     1       0.727  10.133  19.897  0.00  0.00    +0.000 N 
ATOM     28  C   UNL     1       0.742   9.830  18.553  0.00  0.00    +0.000 C 
ATOM     29  O   UNL     1      -0.253   9.565  17.894  0.00  0.00    +0.000 OA
ATOM     30  H   UNL     1       1.600  10.393  20.352  0.00  0.00    +0.000 HD
BRANCH  27  31
ATOM     31  C   UNL     1      -0.518  10.192  20.644  0.00  0.00    +0.000 C 
ATOM     32  C   UNL     1      -1.054  11.625  20.668  0.00  0.00    +0.000 C 
BRANCH  31  34
ATOM     33  C   UNL     1      -1.039  10.512  23.123  0.00  0.00    +0.000 C 
ATOM     34  C   UNL     1      -0.339   9.659  22.073  0.00  0.00    +0.000 C 
ENDBRANCH  31  34
ENDBRANCH  27  31
ENDBRANCH  26  28
ENDBRANCH  22  26
ENDBRANCH   1  23
TORSDOF 8
ENDMDL
MODEL 9
REMARK VINA RESULT:      -7.4      1.282      2.030
REMARK  Name = 
REMARK  12 active torsions:
REMARK  status: ('A' for Active; 'I' for Inactive)
REMARK    1  A    between atoms: C_1  and  C_2
REMARK    2  A    between atoms: C_2  and  C_3
REMARK    3  A    between atoms: C_3  and  C_4
REMARK    4  A    between atoms: C_3  and  N_5
REMARK    5  A    between atoms: C_6  and  C_8
REMARK    6  A    between atoms: C_8  and  N_9
REMARK    7  A    between atoms: C_10  and  C_12
REMARK    8  A    between atoms: N_14  and  C_15
REMARK    9  A    between atoms: C_18  and  O_19
REMARK   10  A    between atoms: O_19  and  C_20
REMARK   11  A    between atoms: C_22  and  O_23
REMARK   12  A    between atoms: O_23  and  C_24
REMARK                            x       y       z     vdW  Elec       q    Type
REMARK                         _______ _______ _______ _____ _____    ______ ____
ROOT
ATOM      1  C   UNL     1       3.896   6.405  18.439  0.00  0.00    +0.000 A 
ATOM      2  N   UNL     1       3.166   7.474  18.579  0.00  0.00    +0.000 NA
ATOM      3  N   UNL     1       2.067   7.429  19.400  0.00  0.00    +0.000 N 
ATOM      4  C   UNL     1       1.671   6.313  20.136  0.00  0.00    +0.000 A 
ATOM      5  O   UNL     1       0.646   6.227  20.810  0.00  0.00    +0.000 OA
ATOM      6  C   UNL     1       2.548   5.138  20.045  0.00  0.00    +0.000 A 
ATOM      7  C   UNL     1       2.263   4.006  20.823  0.00  0.00    +0.000 A 
ATOM      8  C   UNL     1       3.054   2.868  20.710  0.00  0.00    +0.000 A 
ATOM      9  C   UNL     1       4.120   2.852  19.829  0.00  0.00    +0.000 A 
ATOM     10  C   UNL     1       4.400   3.975  19.056  0.00  0.00    +0.000 A 
ATOM     11  C   UNL     1       3.632   5.141  19.175  0.00  0.00    +0.000 A 
ENDROOT
BRANCH   3  12
ATOM     12  C   UNL     1       1.374   8.659  19.555  0.00  0.00    +0.000 A 
ATOM     13  C   UNL     1       0.890   9.270  18.381  0.00  0.00    +0.000 A 
ATOM     14  C   UNL     1       0.180  10.473  18.427  0.00  0.00    +0.000 A 
ATOM     15  C   UNL     1      -0.049  11.097  19.646  0.00  0.00    +0.000 A 
ATOM     16  C   UNL     1       0.405  10.486  20.817  0.00  0.00    +0.000 A 
ATOM     17  C   UNL     1       1.126   9.279  20.791  0.00  0.00    +0.000 A 
BRANCH  15  18
ATOM     18  O   UNL     1      -0.719  12.286  19.564  0.00  0.00    +0.000 OA
ATOM     19  C   UNL     1       0.057  13.437  19.254  0.00  0.00    +0.000 C 
ENDBRANCH  15  18
BRANCH  17  20
ATOM     20  O   UNL     1       1.496   8.875  22.048  0.00  0.00    +0.000 OA
ATOM     21  C   UNL     1       0.731   9.321  23.159  0.00  0.00    +0.000 C 
ENDBRANCH  17  20
ENDBRANCH   3  12
BRANCH   1  23
ATOM     22  N   UNL     1       6.315   6.614  17.942  0.00  0.00    +0.000 N 
ATOM     23  C   UNL     1       5.045   6.519  17.427  0.00  0.00    +0.000 C 
ATOM     24  O   UNL     1       4.812   6.543  16.227  0.00  0.00    +0.000 OA
ATOM     25  H   UNL     1       6.452   6.839  18.918  0.00  0.00    +0.000 HD
BRANCH  22  26
ATOM     26  C   UNL     1       7.496   6.614  17.102  0.00  0.00    +0.000 C 
BRANCH  26  28
ATOM     27  N   UNL     1       7.179   5.607  14.904  0.00  0.00    +0.000 N 
ATOM     28  C   UNL     1       7.487   5.366  16.225  0.00  0.00    +0.000 C 
ATOM     29  O   UNL     1       7.725   4.258  16.686  0.00  0.00    +0.000 OA
ATOM     30  H   UNL     1       7.047   6.570  14.598  0.00  0.00    +0.000 HD
BRANCH  27  31
ATOM     31  C   UNL     1       7.145   4.532  13.927  0.00  0.00    +0.000 C 
ATOM     32  C   UNL     1       7.702   5.016  12.586  0.00  0.00    +0.000 C 
BRANCH  31  34
ATOM     33  C   UNL     1       5.506   3.299  12.406  0.00  0.00    +0.000 C 
ATOM     34  C   UNL     1       5.724   3.979  13.752  0.00  0.00    +0.000 C 
ENDBRANCH  31  34
ENDBRANCH  27  31
ENDBRANCH  26  28
ENDBRANCH  22  26
ENDBRANCH   1  23
TORSDOF 8
ENDMDL
