MODEL 1
REMARK VINA RESULT:      -6.1      0.000      0.000
REMARK  Name = 
REMARK  13 active torsions:
REMARK  status: ('A' for Active; 'I' for Inactive)
REMARK    1  A    between atoms: C_1  and  C_2
REMARK    2  A    between atoms: C_2  and  N_3
REMARK    3  A    between atoms: N_3  and  C_4
REMARK    4  A    between atoms: N_3  and  C_6
REMARK    5  A    between atoms: C_4  and  C_5
REMARK    6  A    between atoms: C_6  and  C_7
REMARK    7  A    between atoms: C_10  and  C_11
REMARK    8  A    between atoms: C_11  and  N_12
REMARK    9  A    between atoms: N_12  and  C_13
REMARK   10  A    between atoms: C_13  and  C_14
REMARK   11  A    between atoms: C_14  and  N_15
REMARK   12  A    between atoms: C_20  and  C_21
REMARK   13  A    between atoms: C_20  and  C_23
REMARK                            x       y       z     vdW  Elec       q    Type
REMARK                         _______ _______ _______ _____ _____    ______ ____
ROOT
ATOM      1  N   UNL     1       1.956   6.875  20.741  0.00  0.00    +0.000 NA
ATOM      2  H   UNL     1       2.658   7.056  21.485  0.00  0.00    +0.000 HD
ENDROOT
BRANCH   1   3
ATOM      3  C   UNL     1       2.511   7.142  19.422  0.00  0.00    +0.000 C 
BRANCH   3   7
ATOM      4  C   UNL     1       4.237   4.662  17.647  0.00  0.00    +0.000 A 
ATOM      5  C   UNL     1       3.835   3.868  18.673  0.00  0.00    +0.000 A 
ATOM      6  C   UNL     1       3.118   4.683  19.490  0.00  0.00    +0.000 A 
ATOM      7  C   UNL     1       3.131   5.927  18.890  0.00  0.00    +0.000 A 
ATOM      8  O   UNL     1       3.796   5.890  17.769  0.00  0.00    +0.000 OA
BRANCH   4   9
ATOM      9  C   UNL     1       5.067   4.165  16.558  0.00  0.00    +0.000 C 
BRANCH   9  10
ATOM     10  N   UNL     1       6.350   4.964  16.464  0.00  0.00    +0.000 NA
BRANCH  10  12
ATOM     11  C   UNL     1       7.642   5.898  18.740  0.00  0.00    +0.000 C 
ATOM     12  C   UNL     1       7.296   4.640  17.591  0.00  0.00    +0.000 C 
ENDBRANCH  10  12
BRANCH  10  13
ATOM     13  C   UNL     1       6.990   4.697  15.158  0.00  0.00    +0.000 C 
ATOM     14  C   UNL     1       6.040   4.173  14.083  0.00  0.00    +0.000 C 
ENDBRANCH  10  13
ENDBRANCH   9  10
ENDBRANCH   4   9
ENDBRANCH   3   7
ENDBRANCH   1   3
BRANCH   1  15
ATOM     15  C   UNL     1       0.796   7.716  20.974  0.00  0.00    +0.000 C 
BRANCH  15  16
ATOM     16  C   UNL     1       1.185   9.170  20.949  0.00  0.00    +0.000 C 
BRANCH  16  17
ATOM     17  N   UNL     1       0.251   9.978  20.200  0.00  0.00    +0.000 N 
ATOM     18  C   UNL     1       0.132   9.998  18.758  0.00  0.00    +0.000 C 
ATOM     19  C   UNL     1      -0.857  11.122  18.453  0.00  0.00    +0.000 C 
ATOM     20  N   UNL     1      -1.348  11.557  19.741  0.00  0.00    +0.000 N 
ATOM     21  C   UNL     1      -0.682  10.867  20.764  0.00  0.00    +0.000 C 
ATOM     22  C   UNL     1      -0.936  10.996  22.096  0.00  0.00    +0.000 C 
ATOM     23  H   UNL     1      -2.062  12.285  19.879  0.00  0.00    +0.000 HD
BRANCH  22  24
ATOM     24  C   UNL     1      -0.284  10.191  23.095  0.00  0.00    +0.000 C 
ATOM     25  N   UNL     1       0.262   9.597  23.925  0.00  0.00    +0.000 NA
ENDBRANCH  22  24
BRANCH  22  26
ATOM     26  C   UNL     1      -1.940  11.865  22.652  0.00  0.00    +0.000 C 
ATOM     27  N   UNL     1      -2.816  12.509  23.025  0.00  0.00    +0.000 NA
ENDBRANCH  22  26
ENDBRANCH  16  17
ENDBRANCH  15  16
ENDBRANCH   1  15
TORSDOF 11
ENDMDL
MODEL 2
REMARK VINA RESULT:      -6.0      1.360      2.501
REMARK  Name = 
REMARK  13 active torsions:
REMARK  status: ('A' for Active; 'I' for Inactive)
REMARK    1  A    between atoms: C_1  and  C_2
REMARK    2  A    between atoms: C_2  and  N_3
REMARK    3  A    between atoms: N_3  and  C_4
REMARK    4  A    between atoms: N_3  and  C_6
REMARK    5  A    between atoms: C_4  and  C_5
REMARK    6  A    between atoms: C_6  and  C_7
REMARK    7  A    between atoms: C_10  and  C_11
REMARK    8  A    between atoms: C_11  and  N_12
REMARK    9  A    between atoms: N_12  and  C_13
REMARK   10  A    between atoms: C_13  and  C_14
REMARK   11  A    between atoms: C_14  and  N_15
REMARK   12  A    between atoms: C_20  and  C_21
REMARK   13  A    between atoms: C_20  and  C_23
REMARK                            x       y       z     vdW  Elec       q    Type
REMARK                         _______ _______ _______ _____ _____    ______ ____
ROOT
ATOM      1  N   UNL     1       1.934   6.874  20.506  0.00  0.00    +0.000 NA
ATOM      2  H   UNL     1       2.535   6.229  21.053  0.00  0.00    +0.000 HD
ENDROOT
BRANCH   1   3
ATOM      3  C   UNL     1       2.579   7.260  19.259  0.00  0.00    +0.000 C 
BRANCH   3   7
ATOM      4  C   UNL     1       4.040   4.640  17.448  0.00  0.00    +0.000 A 
ATOM      5  C   UNL     1       2.776   4.143  17.449  0.00  0.00    +0.000 A 
ATOM      6  C   UNL     1       2.035   5.061  18.124  0.00  0.00    +0.000 A 
ATOM      7  C   UNL     1       2.914   6.065  18.484  0.00  0.00    +0.000 A 
ATOM      8  O   UNL     1       4.116   5.801  18.051  0.00  0.00    +0.000 OA
BRANCH   4   9
ATOM      9  C   UNL     1       5.155   3.928  16.839  0.00  0.00    +0.000 C 
BRANCH   9  10
ATOM     10  N   UNL     1       6.330   4.862  16.636  0.00  0.00    +0.000 NA
BRANCH  10  12
ATOM     11  C   UNL     1       7.746   5.961  18.760  0.00  0.00    +0.000 C 
ATOM     12  C   UNL     1       7.402   4.648  17.672  0.00  0.00    +0.000 C 
ENDBRANCH  10  12
BRANCH  10  13
ATOM     13  C   UNL     1       6.876   4.661  15.277  0.00  0.00    +0.000 C 
ATOM     14  C   UNL     1       5.842   4.239  14.235  0.00  0.00    +0.000 C 
ENDBRANCH  10  13
ENDBRANCH   9  10
ENDBRANCH   4   9
ENDBRANCH   3   7
ENDBRANCH   1   3
BRANCH   1  15
ATOM     15  C   UNL     1       1.656   8.052  21.308  0.00  0.00    +0.000 C 
BRANCH  15  16
ATOM     16  C   UNL     1       0.880   9.064  20.509  0.00  0.00    +0.000 C 
BRANCH  16  17
ATOM     17  N   UNL     1       0.151   9.988  21.348  0.00  0.00    +0.000 N 
ATOM     18  C   UNL     1      -0.381   9.684  22.659  0.00  0.00    +0.000 C 
ATOM     19  C   UNL     1      -1.202  10.912  23.051  0.00  0.00    +0.000 C 
ATOM     20  N   UNL     1      -0.954  11.885  22.011  0.00  0.00    +0.000 N 
ATOM     21  C   UNL     1      -0.148  11.320  21.012  0.00  0.00    +0.000 C 
ATOM     22  C   UNL     1       0.318  11.975  19.912  0.00  0.00    +0.000 C 
ATOM     23  H   UNL     1      -1.336  12.839  22.000  0.00  0.00    +0.000 HD
BRANCH  22  24
ATOM     24  C   UNL     1       1.219  11.369  18.969  0.00  0.00    +0.000 C 
ATOM     25  N   UNL     1       1.894  10.869  18.172  0.00  0.00    +0.000 NA
ENDBRANCH  22  24
BRANCH  22  26
ATOM     26  C   UNL     1       0.052  13.359  19.617  0.00  0.00    +0.000 C 
ATOM     27  N   UNL     1      -0.161  14.482  19.495  0.00  0.00    +0.000 NA
ENDBRANCH  22  26
ENDBRANCH  16  17
ENDBRANCH  15  16
ENDBRANCH   1  15
TORSDOF 11
ENDMDL
MODEL 3
REMARK VINA RESULT:      -6.0      1.439      3.225
REMARK  Name = 
REMARK  13 active torsions:
REMARK  status: ('A' for Active; 'I' for Inactive)
REMARK    1  A    between atoms: C_1  and  C_2
REMARK    2  A    between atoms: C_2  and  N_3
REMARK    3  A    between atoms: N_3  and  C_4
REMARK    4  A    between atoms: N_3  and  C_6
REMARK    5  A    between atoms: C_4  and  C_5
REMARK    6  A    between atoms: C_6  and  C_7
REMARK    7  A    between atoms: C_10  and  C_11
REMARK    8  A    between atoms: C_11  and  N_12
REMARK    9  A    between atoms: N_12  and  C_13
REMARK   10  A    between atoms: C_13  and  C_14
REMARK   11  A    between atoms: C_14  and  N_15
REMARK   12  A    between atoms: C_20  and  C_21
REMARK   13  A    between atoms: C_20  and  C_23
REMARK                            x       y       z     vdW  Elec       q    Type
REMARK                         _______ _______ _______ _____ _____    ______ ____
ROOT
ATOM      1  N   UNL     1       2.163   5.863  21.235  0.00  0.00    +0.000 NA
ATOM      2  H   UNL     1       3.085   6.340  21.227  0.00  0.00    +0.000 HD
ENDROOT
BRANCH   1   3
ATOM      3  C   UNL     1       2.237   4.567  20.576  0.00  0.00    +0.000 C 
BRANCH   3   7
ATOM      4  C   UNL     1       4.077   5.435  17.723  0.00  0.00    +0.000 A 
ATOM      5  C   UNL     1       3.411   4.390  17.167  0.00  0.00    +0.000 A 
ATOM      6  C   UNL     1       2.612   3.913  18.157  0.00  0.00    +0.000 A 
ATOM      7  C   UNL     1       2.850   4.717  19.255  0.00  0.00    +0.000 A 
ATOM      8  O   UNL     1       3.723   5.642  18.967  0.00  0.00    +0.000 OA
BRANCH   4   9
ATOM      9  C   UNL     1       5.066   6.208  16.984  0.00  0.00    +0.000 C 
BRANCH   9  10
ATOM     10  N   UNL     1       6.375   5.450  16.902  0.00  0.00    +0.000 NA
BRANCH  10  12
ATOM     11  C   UNL     1       6.170   3.874  14.622  0.00  0.00    +0.000 C 
ATOM     12  C   UNL     1       6.815   5.245  15.476  0.00  0.00    +0.000 C 
ENDBRANCH  10  12
BRANCH  10  13
ATOM     13  C   UNL     1       7.407   6.186  17.661  0.00  0.00    +0.000 C 
ATOM     14  C   UNL     1       7.579   5.726  19.108  0.00  0.00    +0.000 C 
ENDBRANCH  10  13
ENDBRANCH   9  10
ENDBRANCH   4   9
ENDBRANCH   3   7
ENDBRANCH   1   3
BRANCH   1  15
ATOM     15  C   UNL     1       1.191   6.709  20.565  0.00  0.00    +0.000 C 
BRANCH  15  16
ATOM     16  C   UNL     1       1.700   8.122  20.465  0.00  0.00    +0.000 C 
BRANCH  16  17
ATOM     17  N   UNL     1       0.849   9.064  21.154  0.00  0.00    +0.000 N 
ATOM     18  C   UNL     1       0.648   9.118  22.586  0.00  0.00    +0.000 C 
ATOM     19  C   UNL     1      -0.456  10.154  22.797  0.00  0.00    +0.000 C 
ATOM     20  N   UNL     1      -0.695  10.727  21.491  0.00  0.00    +0.000 N 
ATOM     21  C   UNL     1       0.089  10.070  20.531  0.00  0.00    +0.000 C 
ATOM     22  C   UNL     1       0.147  10.391  19.209  0.00  0.00    +0.000 C 
ATOM     23  H   UNL     1      -1.362  11.486  21.299  0.00  0.00    +0.000 HD
BRANCH  22  24
ATOM     24  C   UNL     1       1.040   9.742  18.288  0.00  0.00    +0.000 C 
ATOM     25  N   UNL     1       1.746   9.164  17.574  0.00  0.00    +0.000 NA
ENDBRANCH  22  24
BRANCH  22  26
ATOM     26  C   UNL     1      -0.593  11.467  18.600  0.00  0.00    +0.000 C 
ATOM     27  N   UNL     1      -1.217  12.250  18.036  0.00  0.00    +0.000 NA
ENDBRANCH  22  26
ENDBRANCH  16  17
ENDBRANCH  15  16
ENDBRANCH   1  15
TORSDOF 11
ENDMDL
MODEL 4
REMARK VINA RESULT:      -5.9      2.351      8.565
REMARK  Name = 
REMARK  13 active torsions:
REMARK  status: ('A' for Active; 'I' for Inactive)
REMARK    1  A    between atoms: C_1  and  C_2
REMARK    2  A    between atoms: C_2  and  N_3
REMARK    3  A    between atoms: N_3  and  C_4
REMARK    4  A    between atoms: N_3  and  C_6
REMARK    5  A    between atoms: C_4  and  C_5
REMARK    6  A    between atoms: C_6  and  C_7
REMARK    7  A    between atoms: C_10  and  C_11
REMARK    8  A    between atoms: C_11  and  N_12
REMARK    9  A    between atoms: N_12  and  C_13
REMARK   10  A    between atoms: C_13  and  C_14
REMARK   11  A    between atoms: C_14  and  N_15
REMARK   12  A    between atoms: C_20  and  C_21
REMARK   13  A    between atoms: C_20  and  C_23
REMARK                            x       y       z     vdW  Elec       q    Type
REMARK                         _______ _______ _______ _____ _____    ______ ____
ROOT
ATOM      1  N   UNL     1       3.233   4.455  17.306  0.00  0.00    +0.000 NA
ATOM      2  H   UNL     1       3.815   5.195  16.869  0.00  0.00    +0.000 HD
ENDROOT
BRANCH   1   3
ATOM      3  C   UNL     1       2.866   4.812  18.668  0.00  0.00    +0.000 C 
BRANCH   3   7
ATOM      4  C   UNL     1       1.819   8.061  19.459  0.00  0.00    +0.000 A 
ATOM      5  C   UNL     1       2.421   8.373  18.282  0.00  0.00    +0.000 A 
ATOM      6  C   UNL     1       2.898   7.194  17.805  0.00  0.00    +0.000 A 
ATOM      7  C   UNL     1       2.541   6.238  18.736  0.00  0.00    +0.000 A 
ATOM      8  O   UNL     1       1.874   6.778  19.718  0.00  0.00    +0.000 OA
BRANCH   4   9
ATOM      9  C   UNL     1       1.198   9.070  20.307  0.00  0.00    +0.000 C 
BRANCH   9  10
ATOM     10  N   UNL     1       0.702  10.230  19.470  0.00  0.00    +0.000 NA
BRANCH  10  12
ATOM     11  C   UNL     1      -1.391  10.076  17.648  0.00  0.00    +0.000 C 
ATOM     12  C   UNL     1      -0.792  10.183  19.277  0.00  0.00    +0.000 C 
ENDBRANCH  10  12
BRANCH  10  13
ATOM     13  C   UNL     1       1.099  11.498  20.118  0.00  0.00    +0.000 C 
ATOM     14  C   UNL     1       0.507  12.751  19.476  0.00  0.00    +0.000 C 
ENDBRANCH  10  13
ENDBRANCH   9  10
ENDBRANCH   4   9
ENDBRANCH   3   7
ENDBRANCH   1   3
BRANCH   1  15
ATOM     15  C   UNL     1       3.977   3.207  17.300  0.00  0.00    +0.000 C 
BRANCH  15  16
ATOM     16  C   UNL     1       5.449   3.470  17.468  0.00  0.00    +0.000 C 
BRANCH  16  17
ATOM     17  N   UNL     1       6.017   4.167  16.337  0.00  0.00    +0.000 N 
ATOM     18  C   UNL     1       5.903   3.750  14.956  0.00  0.00    +0.000 C 
ATOM     19  C   UNL     1       6.806   4.704  14.174  0.00  0.00    +0.000 C 
ATOM     20  N   UNL     1       7.245   5.689  15.138  0.00  0.00    +0.000 N 
ATOM     21  C   UNL     1       6.765   5.354  16.413  0.00  0.00    +0.000 C 
ATOM     22  C   UNL     1       6.950   6.094  17.542  0.00  0.00    +0.000 C 
ATOM     23  H   UNL     1       7.841   6.496  14.918  0.00  0.00    +0.000 HD
BRANCH  22  24
ATOM     24  C   UNL     1       6.354   5.749  18.805  0.00  0.00    +0.000 C 
ATOM     25  N   UNL     1       5.918   5.425  19.827  0.00  0.00    +0.000 NA
ENDBRANCH  22  24
BRANCH  22  26
ATOM     26  C   UNL     1       7.666   7.342  17.588  0.00  0.00    +0.000 C 
ATOM     27  N   UNL     1       8.174   8.366  17.715  0.00  0.00    +0.000 NA
ENDBRANCH  22  26
ENDBRANCH  16  17
ENDBRANCH  15  16
ENDBRANCH   1  15
TORSDOF 11
ENDMDL
MODEL 5
REMARK VINA RESULT:      -5.9      2.016      2.233
REMARK  Name = 
REMARK  13 active torsions:
REMARK  status: ('A' for Active; 'I' for Inactive)
REMARK    1  A    between atoms: C_1  and  C_2
REMARK    2  A    between atoms: C_2  and  N_3
REMARK    3  A    between atoms: N_3  and  C_4
REMARK    4  A    between atoms: N_3  and  C_6
REMARK    5  A    between atoms: C_4  and  C_5
REMARK    6  A    between atoms: C_6  and  C_7
REMARK    7  A    between atoms: C_10  and  C_11
REMARK    8  A    between atoms: C_11  and  N_12
REMARK    9  A    between atoms: N_12  and  C_13
REMARK   10  A    between atoms: C_13  and  C_14
REMARK   11  A    between atoms: C_14  and  N_15
REMARK   12  A    between atoms: C_20  and  C_21
REMARK   13  A    between atoms: C_20  and  C_23
REMARK                            x       y       z     vdW  Elec       q    Type
REMARK                         _______ _______ _______ _____ _____    ______ ____
ROOT
ATOM      1  N   UNL     1       2.429   8.710  18.305  0.00  0.00    +0.000 NA
ATOM      2  H   UNL     1       3.022   8.451  17.493  0.00  0.00    +0.000 HD
ENDROOT
BRANCH   1   3
ATOM      3  C   UNL     1       2.174   7.558  19.157  0.00  0.00    +0.000 C 
BRANCH   3   7
ATOM      4  C   UNL     1       4.211   4.980  17.938  0.00  0.00    +0.000 A 
ATOM      5  C   UNL     1       3.023   4.396  17.636  0.00  0.00    +0.000 A 
ATOM      6  C   UNL     1       2.079   5.284  18.042  0.00  0.00    +0.000 A 
ATOM      7  C   UNL     1       2.772   6.360  18.564  0.00  0.00    +0.000 A 
ATOM      8  O   UNL     1       4.058   6.166  18.475  0.00  0.00    +0.000 OA
BRANCH   4   9
ATOM      9  C   UNL     1       5.488   4.326  17.681  0.00  0.00    +0.000 C 
BRANCH   9  10
ATOM     10  N   UNL     1       6.377   5.217  16.839  0.00  0.00    +0.000 NA
BRANCH  10  12
ATOM     11  C   UNL     1       7.603   7.599  17.579  0.00  0.00    +0.000 C 
ATOM     12  C   UNL     1       7.459   5.867  17.661  0.00  0.00    +0.000 C 
ENDBRANCH  10  12
BRANCH  10  13
ATOM     13  C   UNL     1       6.969   4.414  15.748  0.00  0.00    +0.000 C 
ATOM     14  C   UNL     1       6.216   4.496  14.421  0.00  0.00    +0.000 C 
ENDBRANCH  10  13
ENDBRANCH   9  10
ENDBRANCH   4   9
ENDBRANCH   3   7
ENDBRANCH   1   3
BRANCH   1  15
ATOM     15  C   UNL     1       1.175   9.256  17.816  0.00  0.00    +0.000 C 
BRANCH  15  16
ATOM     16  C   UNL     1       0.621  10.258  18.792  0.00  0.00    +0.000 C 
BRANCH  16  17
ATOM     17  N   UNL     1      -0.679  10.751  18.398  0.00  0.00    +0.000 N 
ATOM     18  C   UNL     1      -1.576  10.093  17.472  0.00  0.00    +0.000 C 
ATOM     19  C   UNL     1      -2.722  11.081  17.255  0.00  0.00    +0.000 C 
ATOM     20  N   UNL     1      -2.477  12.159  18.187  0.00  0.00    +0.000 N 
ATOM     21  C   UNL     1      -1.263  11.945  18.856  0.00  0.00    +0.000 C 
ATOM     22  C   UNL     1      -0.754  12.740  19.838  0.00  0.00    +0.000 C 
ATOM     23  H   UNL     1      -3.093  12.972  18.315  0.00  0.00    +0.000 HD
BRANCH  22  24
ATOM     24  C   UNL     1       0.451  12.419  20.554  0.00  0.00    +0.000 C 
ATOM     25  N   UNL     1       1.418  12.217  21.158  0.00  0.00    +0.000 NA
ENDBRANCH  22  24
BRANCH  22  26
ATOM     26  C   UNL     1      -1.399  13.926  20.339  0.00  0.00    +0.000 C 
ATOM     27  N   UNL     1      -1.984  14.866  20.649  0.00  0.00    +0.000 NA
ENDBRANCH  22  26
ENDBRANCH  16  17
ENDBRANCH  15  16
ENDBRANCH   1  15
TORSDOF 11
ENDMDL
MODEL 6
REMARK VINA RESULT:      -5.9      2.317      9.010
REMARK  Name = 
REMARK  13 active torsions:
REMARK  status: ('A' for Active; 'I' for Inactive)
REMARK    1  A    between atoms: C_1  and  C_2
REMARK    2  A    between atoms: C_2  and  N_3
REMARK    3  A    between atoms: N_3  and  C_4
REMARK    4  A    between atoms: N_3  and  C_6
REMARK    5  A    between atoms: C_4  and  C_5
REMARK    6  A    between atoms: C_6  and  C_7
REMARK    7  A    between atoms: C_10  and  C_11
REMARK    8  A    between atoms: C_11  and  N_12
REMARK    9  A    between atoms: N_12  and  C_13
REMARK   10  A    between atoms: C_13  and  C_14
REMARK   11  A    between atoms: C_14  and  N_15
REMARK   12  A    between atoms: C_20  and  C_21
REMARK   13  A    between atoms: C_20  and  C_23
REMARK                            x       y       z     vdW  Elec       q    Type
REMARK                         _______ _______ _______ _____ _____    ______ ____
ROOT
ATOM      1  N   UNL     1       1.568   6.052  20.714  0.00  0.00    +0.000 NA
ATOM      2  H   UNL     1       0.782   5.689  20.142  0.00  0.00    +0.000 HD
ENDROOT
BRANCH   1   3
ATOM      3  C   UNL     1       2.110   7.277  20.144  0.00  0.00    +0.000 C 
BRANCH   3   7
ATOM      4  C   UNL     1       0.060  10.080  20.617  0.00  0.00    +0.000 A 
ATOM      5  C   UNL     1       0.403   9.916  21.921  0.00  0.00    +0.000 A 
ATOM      6  C   UNL     1       1.234   8.841  21.935  0.00  0.00    +0.000 A 
ATOM      7  C   UNL     1       1.340   8.428  20.621  0.00  0.00    +0.000 A 
ATOM      8  O   UNL     1       0.639   9.200  19.838  0.00  0.00    +0.000 OA
BRANCH   4   9
ATOM      9  C   UNL     1      -0.855  11.126  20.179  0.00  0.00    +0.000 C 
BRANCH   9  10
ATOM     10  N   UNL     1      -0.505  11.579  18.777  0.00  0.00    +0.000 NA
BRANCH  10  12
ATOM     11  C   UNL     1      -2.377  10.820  16.868  0.00  0.00    +0.000 C 
ATOM     12  C   UNL     1      -1.730  11.976  17.994  0.00  0.00    +0.000 C 
ENDBRANCH  10  12
BRANCH  10  13
ATOM     13  C   UNL     1       0.445  12.708  18.858  0.00  0.00    +0.000 C 
ATOM     14  C   UNL     1      -0.170  14.076  18.567  0.00  0.00    +0.000 C 
ENDBRANCH  10  13
ENDBRANCH   9  10
ENDBRANCH   4   9
ENDBRANCH   3   7
ENDBRANCH   1   3
BRANCH   1  15
ATOM     15  C   UNL     1       2.604   5.036  20.788  0.00  0.00    +0.000 C 
BRANCH  15  16
ATOM     16  C   UNL     1       3.452   5.056  19.546  0.00  0.00    +0.000 C 
BRANCH  16  17
ATOM     17  N   UNL     1       3.580   3.749  18.944  0.00  0.00    +0.000 N 
ATOM     18  C   UNL     1       3.016   2.526  19.475  0.00  0.00    +0.000 C 
ATOM     19  C   UNL     1       3.569   1.412  18.588  0.00  0.00    +0.000 C 
ATOM     20  N   UNL     1       4.279   2.088  17.525  0.00  0.00    +0.000 N 
ATOM     21  C   UNL     1       4.273   3.472  17.753  0.00  0.00    +0.000 C 
ATOM     22  C   UNL     1       4.808   4.409  16.921  0.00  0.00    +0.000 C 
ATOM     23  H   UNL     1       4.741   1.615  16.738  0.00  0.00    +0.000 HD
BRANCH  22  24
ATOM     24  C   UNL     1       4.689   5.822  17.161  0.00  0.00    +0.000 C 
ATOM     25  N   UNL     1       4.642   6.969  17.315  0.00  0.00    +0.000 NA
ENDBRANCH  22  24
BRANCH  22  26
ATOM     26  C   UNL     1       5.459   4.110  15.672  0.00  0.00    +0.000 C 
ATOM     27  N   UNL     1       6.033   3.972  14.686  0.00  0.00    +0.000 NA
ENDBRANCH  22  26
ENDBRANCH  16  17
ENDBRANCH  15  16
ENDBRANCH   1  15
TORSDOF 11
ENDMDL
MODEL 7
REMARK VINA RESULT:      -5.8      1.500      2.043
REMARK  Name = 
REMARK  13 active torsions:
REMARK  status: ('A' for Active; 'I' for Inactive)
REMARK    1  A    between atoms: C_1  and  C_2
REMARK    2  A    between atoms: C_2  and  N_3
REMARK    3  A    between atoms: N_3  and  C_4
REMARK    4  A    between atoms: N_3  and  C_6
REMARK    5  A    between atoms: C_4  and  C_5
REMARK    6  A    between atoms: C_6  and  C_7
REMARK    7  A    between atoms: C_10  and  C_11
REMARK    8  A    between atoms: C_11  and  N_12
REMARK    9  A    between atoms: N_12  and  C_13
REMARK   10  A    between atoms: C_13  and  C_14
REMARK   11  A    between atoms: C_14  and  N_15
REMARK   12  A    between atoms: C_20  and  C_21
REMARK   13  A    between atoms: C_20  and  C_23
REMARK                            x       y       z     vdW  Elec       q    Type
REMARK                         _______ _______ _______ _____ _____    ______ ____
ROOT
ATOM      1  N   UNL     1       2.218   5.590  21.157  0.00  0.00    +0.000 NA
ATOM      2  H   UNL     1       3.101   6.053  20.869  0.00  0.00    +0.000 HD
ENDROOT
BRANCH   1   3
ATOM      3  C   UNL     1       1.974   4.390  20.368  0.00  0.00    +0.000 C 
BRANCH   3   7
ATOM      4  C   UNL     1       4.702   4.294  18.170  0.00  0.00    +0.000 A 
ATOM      5  C   UNL     1       3.735   4.157  17.226  0.00  0.00    +0.000 A 
ATOM      6  C   UNL     1       2.563   4.182  17.913  0.00  0.00    +0.000 A 
ATOM      7  C   UNL     1       2.908   4.340  19.242  0.00  0.00    +0.000 A 
ATOM      8  O   UNL     1       4.202   4.425  19.375  0.00  0.00    +0.000 OA
BRANCH   4   9
ATOM      9  C   UNL     1       6.120   4.288  17.839  0.00  0.00    +0.000 C 
BRANCH   9  10
ATOM     10  N   UNL     1       6.503   5.572  17.133  0.00  0.00    +0.000 NA
BRANCH  10  12
ATOM     11  C   UNL     1       7.641   8.078  17.528  0.00  0.00    +0.000 C 
ATOM     12  C   UNL     1       7.454   6.403  17.957  0.00  0.00    +0.000 C 
ENDBRANCH  10  12
BRANCH  10  13
ATOM     13  C   UNL     1       7.105   5.243  15.824  0.00  0.00    +0.000 C 
ATOM     14  C   UNL     1       6.094   4.958  14.716  0.00  0.00    +0.000 C 
ENDBRANCH  10  13
ENDBRANCH   9  10
ENDBRANCH   4   9
ENDBRANCH   3   7
ENDBRANCH   1   3
BRANCH   1  15
ATOM     15  C   UNL     1       1.120   6.525  20.993  0.00  0.00    +0.000 C 
BRANCH  15  16
ATOM     16  C   UNL     1       1.617   7.943  21.083  0.00  0.00    +0.000 C 
BRANCH  16  17
ATOM     17  N   UNL     1       1.539   8.636  19.817  0.00  0.00    +0.000 N 
ATOM     18  C   UNL     1       2.188   8.216  18.594  0.00  0.00    +0.000 C 
ATOM     19  C   UNL     1       1.948   9.355  17.603  0.00  0.00    +0.000 C 
ATOM     20  N   UNL     1       1.052  10.266  18.279  0.00  0.00    +0.000 N 
ATOM     21  C   UNL     1       0.819   9.822  19.589  0.00  0.00    +0.000 C 
ATOM     22  C   UNL     1      -0.017  10.417  20.485  0.00  0.00    +0.000 C 
ATOM     23  H   UNL     1       0.668  11.124  17.863  0.00  0.00    +0.000 HD
BRANCH  22  24
ATOM     24  C   UNL     1      -0.288   9.863  21.784  0.00  0.00    +0.000 C 
ATOM     25  N   UNL     1      -0.447   9.433  22.847  0.00  0.00    +0.000 NA
ENDBRANCH  22  24
BRANCH  22  26
ATOM     26  C   UNL     1      -0.795  11.597  20.211  0.00  0.00    +0.000 C 
ATOM     27  N   UNL     1      -1.492  12.500  20.068  0.00  0.00    +0.000 NA
ENDBRANCH  22  26
ENDBRANCH  16  17
ENDBRANCH  15  16
ENDBRANCH   1  15
TORSDOF 11
ENDMDL
MODEL 8
REMARK VINA RESULT:      -5.8      2.476      8.999
REMARK  Name = 
REMARK  13 active torsions:
REMARK  status: ('A' for Active; 'I' for Inactive)
REMARK    1  A    between atoms: C_1  and  C_2
REMARK    2  A    between atoms: C_2  and  N_3
REMARK    3  A    between atoms: N_3  and  C_4
REMARK    4  A    between atoms: N_3  and  C_6
REMARK    5  A    between atoms: C_4  and  C_5
REMARK    6  A    between atoms: C_6  and  C_7
REMARK    7  A    between atoms: C_10  and  C_11
REMARK    8  A    between atoms: C_11  and  N_12
REMARK    9  A    between atoms: N_12  and  C_13
REMARK   10  A    between atoms: C_13  and  C_14
REMARK   11  A    between atoms: C_14  and  N_15
REMARK   12  A    between atoms: C_20  and  C_21
REMARK   13  A    between atoms: C_20  and  C_23
REMARK                            x       y       z     vdW  Elec       q    Type
REMARK                         _______ _______ _______ _____ _____    ______ ____
ROOT
ATOM      1  N   UNL     1       2.421   7.320  20.220  0.00  0.00    +0.000 NA
ATOM      2  H   UNL     1       3.389   7.445  20.573  0.00  0.00    +0.000 HD
ENDROOT
BRANCH   1   3
ATOM      3  C   UNL     1       1.480   8.145  20.966  0.00  0.00    +0.000 C 
BRANCH   3   7
ATOM      4  C   UNL     1      -0.560  10.487  19.345  0.00  0.00    +0.000 A 
ATOM      5  C   UNL     1       0.252  10.231  18.288  0.00  0.00    +0.000 A 
ATOM      6  C   UNL     1       1.137   9.303  18.739  0.00  0.00    +0.000 A 
ATOM      7  C   UNL     1       0.789   9.056  20.053  0.00  0.00    +0.000 A 
ATOM      8  O   UNL     1      -0.250   9.767  20.395  0.00  0.00    +0.000 OA
BRANCH   4   9
ATOM      9  C   UNL     1      -1.641  11.462  19.277  0.00  0.00    +0.000 C 
BRANCH   9  10
ATOM     10  N   UNL     1      -1.139  12.834  19.676  0.00  0.00    +0.000 NA
BRANCH  10  12
ATOM     11  C   UNL     1      -0.786  13.525  22.345  0.00  0.00    +0.000 C 
ATOM     12  C   UNL     1      -0.232  12.772  20.878  0.00  0.00    +0.000 C 
ENDBRANCH  10  12
BRANCH  10  13
ATOM     13  C   UNL     1      -0.435  13.443  18.528  0.00  0.00    +0.000 C 
ATOM     14  C   UNL     1       0.791  14.273  18.904  0.00  0.00    +0.000 C 
ENDBRANCH  10  13
ENDBRANCH   9  10
ENDBRANCH   4   9
ENDBRANCH   3   7
ENDBRANCH   1   3
BRANCH   1  15
ATOM     15  C   UNL     1       2.055   5.919  20.335  0.00  0.00    +0.000 C 
BRANCH  15  16
ATOM     16  C   UNL     1       2.425   5.173  19.081  0.00  0.00    +0.000 C 
BRANCH  16  17
ATOM     17  N   UNL     1       3.323   4.072  19.340  0.00  0.00    +0.000 N 
ATOM     18  C   UNL     1       2.965   2.843  20.015  0.00  0.00    +0.000 C 
ATOM     19  C   UNL     1       4.281   2.087  20.193  0.00  0.00    +0.000 C 
ATOM     20  N   UNL     1       5.267   2.861  19.473  0.00  0.00    +0.000 N 
ATOM     21  C   UNL     1       4.679   4.033  18.972  0.00  0.00    +0.000 C 
ATOM     22  C   UNL     1       5.311   4.963  18.203  0.00  0.00    +0.000 C 
ATOM     23  H   UNL     1       6.255   2.599  19.369  0.00  0.00    +0.000 HD
BRANCH  22  24
ATOM     24  C   UNL     1       4.631   6.099  17.640  0.00  0.00    +0.000 C 
ATOM     25  N   UNL     1       4.035   7.000  17.223  0.00  0.00    +0.000 NA
ENDBRANCH  22  24
BRANCH  22  26
ATOM     26  C   UNL     1       6.685   4.874  17.783  0.00  0.00    +0.000 C 
ATOM     27  N   UNL     1       7.770   4.688  17.451  0.00  0.00    +0.000 NA
ENDBRANCH  22  26
ENDBRANCH  16  17
ENDBRANCH  15  16
ENDBRANCH   1  15
TORSDOF 11
ENDMDL
MODEL 9
REMARK VINA RESULT:      -5.8      2.262      9.315
REMARK  Name = 
REMARK  13 active torsions:
REMARK  status: ('A' for Active; 'I' for Inactive)
REMARK    1  A    between atoms: C_1  and  C_2
REMARK    2  A    between atoms: C_2  and  N_3
REMARK    3  A    between atoms: N_3  and  C_4
REMARK    4  A    between atoms: N_3  and  C_6
REMARK    5  A    between atoms: C_4  and  C_5
REMARK    6  A    between atoms: C_6  and  C_7
REMARK    7  A    between atoms: C_10  and  C_11
REMARK    8  A    between atoms: C_11  and  N_12
REMARK    9  A    between atoms: N_12  and  C_13
REMARK   10  A    between atoms: C_13  and  C_14
REMARK   11  A    between atoms: C_14  and  N_15
REMARK   12  A    between atoms: C_20  and  C_21
REMARK   13  A    between atoms: C_20  and  C_23
REMARK                            x       y       z     vdW  Elec       q    Type
REMARK                         _______ _______ _______ _____ _____    ______ ____
ROOT
ATOM      1  N   UNL     1       1.540   6.730  21.166  0.00  0.00    +0.000 NA
ATOM      2  H   UNL     1       0.580   6.889  21.524  0.00  0.00    +0.000 HD
ENDROOT
BRANCH   1   3
ATOM      3  C   UNL     1       1.901   7.729  20.170  0.00  0.00    +0.000 C 
BRANCH   3   7
ATOM      4  C   UNL     1      -0.034  10.639  19.915  0.00  0.00    +0.000 A 
ATOM      5  C   UNL     1      -0.126  10.509  21.263  0.00  0.00    +0.000 A 
ATOM      6  C   UNL     1       0.597   9.397  21.561  0.00  0.00    +0.000 A 
ATOM      7  C   UNL     1       1.086   8.931  20.356  0.00  0.00    +0.000 A 
ATOM      8  O   UNL     1       0.710   9.705  19.376  0.00  0.00    +0.000 OA
BRANCH   4   9
ATOM      9  C   UNL     1      -0.705  11.710  19.189  0.00  0.00    +0.000 C 
BRANCH   9  10
ATOM     10  N   UNL     1      -1.618  12.484  20.116  0.00  0.00    +0.000 NA
BRANCH  10  12
ATOM     11  C   UNL     1      -0.472  14.477  21.679  0.00  0.00    +0.000 C 
ATOM     12  C   UNL     1      -1.224  13.936  20.207  0.00  0.00    +0.000 C 
ENDBRANCH  10  12
BRANCH  10  13
ATOM     13  C   UNL     1      -3.011  12.355  19.639  0.00  0.00    +0.000 C 
ATOM     14  C   UNL     1      -4.066  12.849  20.627  0.00  0.00    +0.000 C 
ENDBRANCH  10  13
ENDBRANCH   9  10
ENDBRANCH   4   9
ENDBRANCH   3   7
ENDBRANCH   1   3
BRANCH   1  15
ATOM     15  C   UNL     1       1.612   5.400  20.587  0.00  0.00    +0.000 C 
BRANCH  15  16
ATOM     16  C   UNL     1       2.645   5.355  19.494  0.00  0.00    +0.000 C 
BRANCH  16  17
ATOM     17  N   UNL     1       3.482   4.181  19.573  0.00  0.00    +0.000 N 
ATOM     18  C   UNL     1       3.136   2.953  20.257  0.00  0.00    +0.000 C 
ATOM     19  C   UNL     1       4.400   2.095  20.204  0.00  0.00    +0.000 C 
ATOM     20  N   UNL     1       5.321   2.826  19.363  0.00  0.00    +0.000 N 
ATOM     21  C   UNL     1       4.759   4.058  18.997  0.00  0.00    +0.000 C 
ATOM     22  C   UNL     1       5.336   4.972  18.169  0.00  0.00    +0.000 C 
ATOM     23  H   UNL     1       6.258   2.496  19.098  0.00  0.00    +0.000 HD
BRANCH  22  24
ATOM     24  C   UNL     1       4.671   6.178  17.755  0.00  0.00    +0.000 C 
ATOM     25  N   UNL     1       4.091   7.113  17.394  0.00  0.00    +0.000 NA
ENDBRANCH  22  24
BRANCH  22  26
ATOM     26  C   UNL     1       6.619   4.800  17.537  0.00  0.00    +0.000 C 
ATOM     27  N   UNL     1       7.648   4.561  17.084  0.00  0.00    +0.000 NA
ENDBRANCH  22  26
ENDBRANCH  16  17
ENDBRANCH  15  16
ENDBRANCH   1  15
TORSDOF 11
ENDMDL
