MODEL 1
REMARK VINA RESULT:      -6.5      0.000      0.000
REMARK  Name = 
REMARK  3 active torsions:
REMARK  status: ('A' for Active; 'I' for Inactive)
REMARK    1  A    between atoms: C_1  and  C_2
REMARK    2  A    between atoms: C_4  and  C_5
REMARK    3  A    between atoms: C_10  and  C_12
REMARK                            x       y       z     vdW  Elec       q    Type
REMARK                         _______ _______ _______ _____ _____    ______ ____
ROOT
ATOM      1  C   UNL     1       2.098   2.837  21.558  0.00  0.00    +0.000 C 
ATOM      2  C   UNL     1       2.347   3.988  20.633  0.00  0.00    +0.000 A 
ATOM      3  C   UNL     1       3.081   3.838  19.450  0.00  0.00    +0.000 A 
ATOM      4  C   UNL     1       3.271   4.939  18.594  0.00  0.00    +0.000 A 
ATOM      5  C   UNL     1       4.073   4.789  17.337  0.00  0.00    +0.000 C 
ATOM      6  C   UNL     1       2.698   6.149  18.982  0.00  0.00    +0.000 A 
ATOM      7  C   UNL     1       2.660   7.452  18.278  0.00  0.00    +0.000 A 
ATOM      8  O   UNL     1       3.182   7.580  17.184  0.00  0.00    +0.000 OA
ATOM      9  N   UNL     1       1.944   8.412  19.022  0.00  0.00    +0.000 N 
ATOM     10  C   UNL     1       1.649   9.717  18.575  0.00  0.00    +0.000 C 
ATOM     11  O   UNL     1       2.190  10.187  17.572  0.00  0.00    +0.000 OA
ATOM     12  S   UNL     1       1.461   7.818  20.575  0.00  0.00    +0.000 S 
ATOM     13  C   UNL     1       2.027   6.203  20.186  0.00  0.00    +0.000 A 
ATOM     14  N   UNL     1       1.823   5.170  21.018  0.00  0.00    +0.000 NA
ENDROOT
BRANCH  10  15
ATOM     15  C   UNL     1       0.705  10.521  19.363  0.00  0.00    +0.000 A 
ATOM     16  C   UNL     1       0.914  11.362  20.444  0.00  0.00    +0.000 A 
ATOM     17  C   UNL     1      -0.268  12.049  20.849  0.00  0.00    +0.000 A 
ATOM     18  C   UNL     1      -1.371  11.628  20.142  0.00  0.00    +0.000 A 
ATOM     19  S   UNL     1      -0.970  10.441  18.978  0.00  0.00    +0.000 S 
ENDBRANCH  10  15
TORSDOF 1
ENDMDL
MODEL 2
REMARK VINA RESULT:      -6.3      0.826      1.005
REMARK  Name = 
REMARK  3 active torsions:
REMARK  status: ('A' for Active; 'I' for Inactive)
REMARK    1  A    between atoms: C_1  and  C_2
REMARK    2  A    between atoms: C_4  and  C_5
REMARK    3  A    between atoms: C_10  and  C_12
REMARK                            x       y       z     vdW  Elec       q    Type
REMARK                         _______ _______ _______ _____ _____    ______ ____
ROOT
ATOM      1  C   UNL     1       2.029   3.053  21.573  0.00  0.00    +0.000 C 
ATOM      2  C   UNL     1       2.258   4.220  20.663  0.00  0.00    +0.000 A 
ATOM      3  C   UNL     1       2.968   4.091  19.462  0.00  0.00    +0.000 A 
ATOM      4  C   UNL     1       3.139   5.207  18.621  0.00  0.00    +0.000 A 
ATOM      5  C   UNL     1       3.917   5.079  17.346  0.00  0.00    +0.000 C 
ATOM      6  C   UNL     1       2.574   6.409  19.041  0.00  0.00    +0.000 A 
ATOM      7  C   UNL     1       2.521   7.724  18.361  0.00  0.00    +0.000 A 
ATOM      8  O   UNL     1       3.021   7.871  17.259  0.00  0.00    +0.000 OA
ATOM      9  N   UNL     1       1.820   8.670  19.136  0.00  0.00    +0.000 N 
ATOM     10  C   UNL     1       1.515   9.982  18.717  0.00  0.00    +0.000 C 
ATOM     11  O   UNL     1       2.036  10.471  17.712  0.00  0.00    +0.000 OA
ATOM     12  S   UNL     1       1.368   8.050  20.687  0.00  0.00    +0.000 S 
ATOM     13  C   UNL     1       1.928   6.443  20.260  0.00  0.00    +0.000 A 
ATOM     14  N   UNL     1       1.741   5.395  21.078  0.00  0.00    +0.000 NA
ENDROOT
BRANCH  10  15
ATOM     15  C   UNL     1       0.587  10.773  19.537  0.00  0.00    +0.000 A 
ATOM     16  C   UNL     1      -0.796  10.739  19.627  0.00  0.00    +0.000 A 
ATOM     17  C   UNL     1      -1.307  11.603  20.640  0.00  0.00    +0.000 A 
ATOM     18  C   UNL     1      -0.312  12.359  21.215  0.00  0.00    +0.000 A 
ATOM     19  S   UNL     1       1.226  11.999  20.560  0.00  0.00    +0.000 S 
ENDBRANCH  10  15
TORSDOF 1
ENDMDL
MODEL 3
REMARK VINA RESULT:      -6.2      2.264      3.199
REMARK  Name = 
REMARK  3 active torsions:
REMARK  status: ('A' for Active; 'I' for Inactive)
REMARK    1  A    between atoms: C_1  and  C_2
REMARK    2  A    between atoms: C_4  and  C_5
REMARK    3  A    between atoms: C_10  and  C_12
REMARK                            x       y       z     vdW  Elec       q    Type
REMARK                         _______ _______ _______ _____ _____    ______ ____
ROOT
ATOM      1  C   UNL     1       5.156   5.721  16.423  0.00  0.00    +0.000 C 
ATOM      2  C   UNL     1       4.170   6.167  17.458  0.00  0.00    +0.000 A 
ATOM      3  C   UNL     1       3.829   5.359  18.550  0.00  0.00    +0.000 A 
ATOM      4  C   UNL     1       2.917   5.827  19.516  0.00  0.00    +0.000 A 
ATOM      5  C   UNL     1       2.533   4.957  20.674  0.00  0.00    +0.000 C 
ATOM      6  C   UNL     1       2.393   7.104  19.326  0.00  0.00    +0.000 A 
ATOM      7  C   UNL     1       1.480   7.893  20.184  0.00  0.00    +0.000 A 
ATOM      8  O   UNL     1       1.073   7.438  21.239  0.00  0.00    +0.000 OA
ATOM      9  N   UNL     1       1.225   9.162  19.624  0.00  0.00    +0.000 N 
ATOM     10  C   UNL     1       0.473  10.178  20.249  0.00  0.00    +0.000 C 
ATOM     11  O   UNL     1      -0.203   9.948  21.254  0.00  0.00    +0.000 OA
ATOM     12  S   UNL     1       1.934   9.346  18.055  0.00  0.00    +0.000 S 
ATOM     13  C   UNL     1       2.761   7.805  18.197  0.00  0.00    +0.000 A 
ATOM     14  N   UNL     1       3.634   7.391  17.265  0.00  0.00    +0.000 NA
ENDROOT
BRANCH  10  15
ATOM     15  C   UNL     1       0.484  11.518  19.646  0.00  0.00    +0.000 A 
ATOM     16  C   UNL     1       1.433  12.528  19.699  0.00  0.00    +0.000 A 
ATOM     17  C   UNL     1       1.104  13.641  18.872  0.00  0.00    +0.000 A 
ATOM     18  C   UNL     1      -0.140  13.503  18.301  0.00  0.00    +0.000 A 
ATOM     19  S   UNL     1      -0.883  12.026  18.734  0.00  0.00    +0.000 S 
ENDBRANCH  10  15
TORSDOF 1
ENDMDL
MODEL 4
REMARK VINA RESULT:      -6.1      5.372      6.760
REMARK  Name = 
REMARK  3 active torsions:
REMARK  status: ('A' for Active; 'I' for Inactive)
REMARK    1  A    between atoms: C_1  and  C_2
REMARK    2  A    between atoms: C_4  and  C_5
REMARK    3  A    between atoms: C_10  and  C_12
REMARK                            x       y       z     vdW  Elec       q    Type
REMARK                         _______ _______ _______ _____ _____    ______ ____
ROOT
ATOM      1  C   UNL     1       8.040   8.553  17.795  0.00  0.00    +0.000 C 
ATOM      2  C   UNL     1       7.271   7.331  17.398  0.00  0.00    +0.000 A 
ATOM      3  C   UNL     1       7.529   6.653  16.200  0.00  0.00    +0.000 A 
ATOM      4  C   UNL     1       6.801   5.492  15.875  0.00  0.00    +0.000 A 
ATOM      5  C   UNL     1       7.059   4.776  14.584  0.00  0.00    +0.000 C 
ATOM      6  C   UNL     1       5.841   5.070  16.793  0.00  0.00    +0.000 A 
ATOM      7  C   UNL     1       4.973   3.870  16.775  0.00  0.00    +0.000 A 
ATOM      8  O   UNL     1       5.040   3.070  15.858  0.00  0.00    +0.000 OA
ATOM      9  N   UNL     1       4.160   3.813  17.925  0.00  0.00    +0.000 N 
ATOM     10  C   UNL     1       3.298   2.743  18.246  0.00  0.00    +0.000 C 
ATOM     11  O   UNL     1       3.033   1.866  17.423  0.00  0.00    +0.000 OA
ATOM     12  S   UNL     1       4.322   5.221  18.920  0.00  0.00    +0.000 S 
ATOM     13  C   UNL     1       5.634   5.829  17.925  0.00  0.00    +0.000 A 
ATOM     14  N   UNL     1       6.317   6.933  18.266  0.00  0.00    +0.000 NA
ENDROOT
BRANCH  10  15
ATOM     15  C   UNL     1       2.690   2.722  19.584  0.00  0.00    +0.000 A 
ATOM     16  C   UNL     1       3.237   2.432  20.824  0.00  0.00    +0.000 A 
ATOM     17  C   UNL     1       2.322   2.640  21.897  0.00  0.00    +0.000 A 
ATOM     18  C   UNL     1       1.067   2.972  21.440  0.00  0.00    +0.000 A 
ATOM     19  S   UNL     1       1.011   3.064  19.733  0.00  0.00    +0.000 S 
ENDBRANCH  10  15
TORSDOF 1
ENDMDL
MODEL 5
REMARK VINA RESULT:      -6.1      3.028      6.909
REMARK  Name = 
REMARK  3 active torsions:
REMARK  status: ('A' for Active; 'I' for Inactive)
REMARK    1  A    between atoms: C_1  and  C_2
REMARK    2  A    between atoms: C_4  and  C_5
REMARK    3  A    between atoms: C_10  and  C_12
REMARK                            x       y       z     vdW  Elec       q    Type
REMARK                         _______ _______ _______ _____ _____    ______ ____
ROOT
ATOM      1  C   UNL     1       0.739  11.133  18.166  0.00  0.00    +0.000 C 
ATOM      2  C   UNL     1       1.316   9.829  18.623  0.00  0.00    +0.000 A 
ATOM      3  C   UNL     1       0.908   9.220  19.817  0.00  0.00    +0.000 A 
ATOM      4  C   UNL     1       1.457   7.980  20.199  0.00  0.00    +0.000 A 
ATOM      5  C   UNL     1       1.040   7.335  21.485  0.00  0.00    +0.000 C 
ATOM      6  C   UNL     1       2.397   7.413  19.341  0.00  0.00    +0.000 A 
ATOM      7  C   UNL     1       3.094   6.108  19.425  0.00  0.00    +0.000 A 
ATOM      8  O   UNL     1       2.873   5.346  20.349  0.00  0.00    +0.000 OA
ATOM      9  N   UNL     1       3.950   5.917  18.320  0.00  0.00    +0.000 N 
ATOM     10  C   UNL     1       4.675   4.735  18.063  0.00  0.00    +0.000 C 
ATOM     11  O   UNL     1       4.778   3.849  18.914  0.00  0.00    +0.000 OA
ATOM     12  S   UNL     1       4.028   7.311  17.296  0.00  0.00    +0.000 S 
ATOM     13  C   UNL     1       2.761   8.111  18.209  0.00  0.00    +0.000 A 
ATOM     14  N   UNL     1       2.251   9.288  17.815  0.00  0.00    +0.000 NA
ENDROOT
BRANCH  10  15
ATOM     15  C   UNL     1       5.342   4.602  16.761  0.00  0.00    +0.000 A 
ATOM     16  C   UNL     1       4.846   4.221  15.523  0.00  0.00    +0.000 A 
ATOM     17  C   UNL     1       5.812   4.335  14.480  0.00  0.00    +0.000 A 
ATOM     18  C   UNL     1       7.050   4.687  14.967  0.00  0.00    +0.000 A 
ATOM     19  S   UNL     1       7.031   4.912  16.662  0.00  0.00    +0.000 S 
ENDBRANCH  10  15
TORSDOF 1
ENDMDL
MODEL 6
REMARK VINA RESULT:      -6.0      4.800      7.273
REMARK  Name = 
REMARK  3 active torsions:
REMARK  status: ('A' for Active; 'I' for Inactive)
REMARK    1  A    between atoms: C_1  and  C_2
REMARK    2  A    between atoms: C_4  and  C_5
REMARK    3  A    between atoms: C_10  and  C_12
REMARK                            x       y       z     vdW  Elec       q    Type
REMARK                         _______ _______ _______ _____ _____    ______ ____
ROOT
ATOM      1  C   UNL     1       5.299   2.625  11.125  0.00  0.00    +0.000 C 
ATOM      2  C   UNL     1       5.838   3.395  12.290  0.00  0.00    +0.000 A 
ATOM      3  C   UNL     1       6.975   4.206  12.176  0.00  0.00    +0.000 A 
ATOM      4  C   UNL     1       7.436   4.935  13.289  0.00  0.00    +0.000 A 
ATOM      5  C   UNL     1       8.664   5.786  13.178  0.00  0.00    +0.000 C 
ATOM      6  C   UNL     1       6.712   4.807  14.473  0.00  0.00    +0.000 A 
ATOM      7  C   UNL     1       6.897   5.485  15.778  0.00  0.00    +0.000 A 
ATOM      8  O   UNL     1       7.792   6.296  15.933  0.00  0.00    +0.000 OA
ATOM      9  N   UNL     1       5.914   5.081  16.704  0.00  0.00    +0.000 N 
ATOM     10  C   UNL     1       5.763   5.619  17.999  0.00  0.00    +0.000 C 
ATOM     11  O   UNL     1       6.628   6.343  18.497  0.00  0.00    +0.000 OA
ATOM     12  S   UNL     1       4.895   3.826  16.083  0.00  0.00    +0.000 S 
ATOM     13  C   UNL     1       5.629   3.953  14.494  0.00  0.00    +0.000 A 
ATOM     14  N   UNL     1       5.162   3.253  13.449  0.00  0.00    +0.000 NA
ENDROOT
BRANCH  10  15
ATOM     15  C   UNL     1       4.559   5.262  18.762  0.00  0.00    +0.000 A 
ATOM     16  C   UNL     1       3.373   5.952  18.959  0.00  0.00    +0.000 A 
ATOM     17  C   UNL     1       2.403   5.194  19.679  0.00  0.00    +0.000 A 
ATOM     18  C   UNL     1       2.914   3.992  20.112  0.00  0.00    +0.000 A 
ATOM     19  S   UNL     1       4.536   3.771  19.620  0.00  0.00    +0.000 S 
ENDBRANCH  10  15
TORSDOF 1
ENDMDL
MODEL 7
REMARK VINA RESULT:      -6.0      2.018      5.998
REMARK  Name = 
REMARK  3 active torsions:
REMARK  status: ('A' for Active; 'I' for Inactive)
REMARK    1  A    between atoms: C_1  and  C_2
REMARK    2  A    between atoms: C_4  and  C_5
REMARK    3  A    between atoms: C_10  and  C_12
REMARK                            x       y       z     vdW  Elec       q    Type
REMARK                         _______ _______ _______ _____ _____    ______ ____
ROOT
ATOM      1  C   UNL     1      -0.719  10.057  23.267  0.00  0.00    +0.000 C 
ATOM      2  C   UNL     1      -0.056   9.873  21.937  0.00  0.00    +0.000 A 
ATOM      3  C   UNL     1      -0.036  10.893  20.976  0.00  0.00    +0.000 A 
ATOM      4  C   UNL     1       0.620  10.689  19.747  0.00  0.00    +0.000 A 
ATOM      5  C   UNL     1       0.626  11.768  18.707  0.00  0.00    +0.000 C 
ATOM      6  C   UNL     1       1.232   9.452  19.553  0.00  0.00    +0.000 A 
ATOM      7  C   UNL     1       2.046   8.963  18.416  0.00  0.00    +0.000 A 
ATOM      8  O   UNL     1       2.270   9.683  17.459  0.00  0.00    +0.000 OA
ATOM      9  N   UNL     1       2.500   7.648  18.645  0.00  0.00    +0.000 N 
ATOM     10  C   UNL     1       3.376   6.943  17.793  0.00  0.00    +0.000 C 
ATOM     11  O   UNL     1       3.642   7.357  16.663  0.00  0.00    +0.000 OA
ATOM     12  S   UNL     1       1.854   6.969  20.100  0.00  0.00    +0.000 S 
ATOM     13  C   UNL     1       1.122   8.500  20.545  0.00  0.00    +0.000 A 
ATOM     14  N   UNL     1       0.511   8.667  21.728  0.00  0.00    +0.000 NA
ENDROOT
BRANCH  10  15
ATOM     15  C   UNL     1       3.938   5.673  18.276  0.00  0.00    +0.000 A 
ATOM     16  C   UNL     1       5.050   5.415  19.062  0.00  0.00    +0.000 A 
ATOM     17  C   UNL     1       5.182   4.036  19.399  0.00  0.00    +0.000 A 
ATOM     18  C   UNL     1       4.236   3.263  18.767  0.00  0.00    +0.000 A 
ATOM     19  S   UNL     1       3.179   4.202  17.806  0.00  0.00    +0.000 S 
ENDBRANCH  10  15
TORSDOF 1
ENDMDL
MODEL 8
REMARK VINA RESULT:      -5.9      2.315      6.177
REMARK  Name = 
REMARK  3 active torsions:
REMARK  status: ('A' for Active; 'I' for Inactive)
REMARK    1  A    between atoms: C_1  and  C_2
REMARK    2  A    between atoms: C_4  and  C_5
REMARK    3  A    between atoms: C_10  and  C_12
REMARK                            x       y       z     vdW  Elec       q    Type
REMARK                         _______ _______ _______ _____ _____    ______ ____
ROOT
ATOM      1  C   UNL     1      -0.253   9.450  22.874  0.00  0.00    +0.000 C 
ATOM      2  C   UNL     1       0.462   9.060  21.617  0.00  0.00    +0.000 A 
ATOM      3  C   UNL     1       0.757   9.994  20.616  0.00  0.00    +0.000 A 
ATOM      4  C   UNL     1       1.455   9.593  19.461  0.00  0.00    +0.000 A 
ATOM      5  C   UNL     1       1.754  10.584  18.377  0.00  0.00    +0.000 C 
ATOM      6  C   UNL     1       1.826   8.252  19.379  0.00  0.00    +0.000 A 
ATOM      7  C   UNL     1       2.614   7.545  18.343  0.00  0.00    +0.000 A 
ATOM      8  O   UNL     1       3.049   8.148  17.378  0.00  0.00    +0.000 OA
ATOM      9  N   UNL     1       2.781   6.184  18.671  0.00  0.00    +0.000 N 
ATOM     10  C   UNL     1       3.566   5.273  17.935  0.00  0.00    +0.000 C 
ATOM     11  O   UNL     1       3.995   5.556  16.814  0.00  0.00    +0.000 OA
ATOM     12  S   UNL     1       1.903   5.734  20.093  0.00  0.00    +0.000 S 
ATOM     13  C   UNL     1       1.453   7.402  20.400  0.00  0.00    +0.000 A 
ATOM     14  N   UNL     1       0.797   7.757  21.516  0.00  0.00    +0.000 NA
ENDROOT
BRANCH  10  15
ATOM     15  C   UNL     1       3.828   3.952  18.523  0.00  0.00    +0.000 A 
ATOM     16  C   UNL     1       4.697   3.565  19.532  0.00  0.00    +0.000 A 
ATOM     17  C   UNL     1       4.560   2.190  19.884  0.00  0.00    +0.000 A 
ATOM     18  C   UNL     1       3.674   1.537  19.059  0.00  0.00    +0.000 A 
ATOM     19  S   UNL     1       2.991   2.586  17.894  0.00  0.00    +0.000 S 
ENDBRANCH  10  15
TORSDOF 1
ENDMDL
MODEL 9
REMARK VINA RESULT:      -5.9      2.053      3.164
REMARK  Name = 
REMARK  3 active torsions:
REMARK  status: ('A' for Active; 'I' for Inactive)
REMARK    1  A    between atoms: C_1  and  C_2
REMARK    2  A    between atoms: C_4  and  C_5
REMARK    3  A    between atoms: C_10  and  C_12
REMARK                            x       y       z     vdW  Elec       q    Type
REMARK                         _______ _______ _______ _____ _____    ______ ____
ROOT
ATOM      1  C   UNL     1       5.734   5.705  15.721  0.00  0.00    +0.000 C 
ATOM      2  C   UNL     1       4.751   5.904  16.833  0.00  0.00    +0.000 A 
ATOM      3  C   UNL     1       4.517   4.916  17.798  0.00  0.00    +0.000 A 
ATOM      4  C   UNL     1       3.603   5.153  18.842  0.00  0.00    +0.000 A 
ATOM      5  C   UNL     1       3.333   4.091  19.864  0.00  0.00    +0.000 C 
ATOM      6  C   UNL     1       2.968   6.394  18.859  0.00  0.00    +0.000 A 
ATOM      7  C   UNL     1       2.022   6.963  19.846  0.00  0.00    +0.000 A 
ATOM      8  O   UNL     1       1.692   6.323  20.828  0.00  0.00    +0.000 OA
ATOM      9  N   UNL     1       1.643   8.274  19.489  0.00  0.00    +0.000 N 
ATOM     10  C   UNL     1       0.831   9.116  20.278  0.00  0.00    +0.000 C 
ATOM     11  O   UNL     1       0.211   8.681  21.250  0.00  0.00    +0.000 OA
ATOM     12  S   UNL     1       2.280   8.751  17.952  0.00  0.00    +0.000 S 
ATOM     13  C   UNL     1       3.237   7.284  17.841  0.00  0.00    +0.000 A 
ATOM     14  N   UNL     1       4.108   7.091  16.839  0.00  0.00    +0.000 NA
ENDROOT
BRANCH  10  15
ATOM     15  C   UNL     1       0.710  10.526  19.883  0.00  0.00    +0.000 A 
ATOM     16  C   UNL     1       1.467  11.634  20.234  0.00  0.00    +0.000 A 
ATOM     17  C   UNL     1       1.080  12.814  19.534  0.00  0.00    +0.000 A 
ATOM     18  C   UNL     1      -0.034  12.604  18.755  0.00  0.00    +0.000 A 
ATOM     19  S   UNL     1      -0.582  10.987  18.845  0.00  0.00    +0.000 S 
ENDBRANCH  10  15
TORSDOF 1
ENDMDL
