MODEL 1
REMARK VINA RESULT:      -8.1      0.000      0.000
REMARK  Name = 
REMARK  5 active torsions:
REMARK  status: ('A' for Active; 'I' for Inactive)
REMARK    1  A    between atoms: C_2  and  C_11
REMARK    2  A    between atoms: N_3  and  C_4
REMARK    3  A    between atoms: C_14  and  C_15
REMARK    4  A    between atoms: C_15  and  O_16
REMARK    5  A    between atoms: O_16  and  C_17
REMARK                            x       y       z     vdW  Elec       q    Type
REMARK                         _______ _______ _______ _____ _____    ______ ____
ROOT
ATOM      1  C   UNL     1       6.511   5.824  17.465  0.00  0.00    +0.000 A 
ATOM      2  C   UNL     1       7.456   5.592  18.438  0.00  0.00    +0.000 A 
ATOM      3  O   UNL     1       8.139   6.748  18.654  0.00  0.00    +0.000 OA
ATOM      4  C   UNL     1       7.565   7.644  17.794  0.00  0.00    +0.000 A 
ATOM      5  N   UNL     1       6.591   7.144  17.054  0.00  0.00    +0.000 NA
ENDROOT
BRANCH   1   7
ATOM      6  O   UNL     1       5.709   4.332  15.835  0.00  0.00    +0.000 OA
ATOM      7  C   UNL     1       5.571   4.848  16.936  0.00  0.00    +0.000 C 
ATOM      8  N   UNL     1       4.520   4.568  17.786  0.00  0.00    +0.000 N 
ATOM      9  H   UNL     1       4.399   5.209  18.568  0.00  0.00    +0.000 HD
BRANCH   8  10
ATOM     10  C   UNL     1       3.406   3.714  17.386  0.00  0.00    +0.000 C 
ATOM     11  C   UNL     1       3.639   2.233  17.705  0.00  0.00    +0.000 C 
ATOM     12  C   UNL     1       3.428   1.943  19.186  0.00  0.00    +0.000 C 
ATOM     13  C   UNL     1       1.999   2.283  19.566  0.00  0.00    +0.000 C 
ATOM     14  N   UNL     1       1.606   3.599  19.119  0.00  0.00    +0.000 N 
ATOM     15  C   UNL     1       2.106   4.247  18.021  0.00  0.00    +0.000 C 
ATOM     16  O   UNL     1       1.593   5.309  17.669  0.00  0.00    +0.000 OA
ATOM     17  H   UNL     1       0.742   3.995  19.472  0.00  0.00    +0.000 HD
ENDBRANCH   8  10
ENDBRANCH   1   7
BRANCH   4  18
ATOM     18  C   UNL     1       8.146   9.014  17.771  0.00  0.00    +0.000 C 
BRANCH  18  19
ATOM     19  O   UNL     1       8.825   9.210  19.011  0.00  0.00    +0.000 OA
BRANCH  19  20
ATOM     20  C   UNL     1       9.416  10.430  19.201  0.00  0.00    +0.000 A 
ATOM     21  C   UNL     1       9.692  11.024  20.437  0.00  0.00    +0.000 A 
ATOM     22  C   UNL     1      10.305  12.282  20.494  0.00  0.00    +0.000 A 
ATOM     23  C   UNL     1      10.642  12.948  19.318  0.00  0.00    +0.000 A 
ATOM     24  C   UNL     1      10.363  12.352  18.095  0.00  0.00    +0.000 A 
ATOM     25  F   UNL     1      10.689  12.991  16.964  0.00  0.00    +0.000 F 
ATOM     26  C   UNL     1       9.754  11.105  18.028  0.00  0.00    +0.000 A 
ENDBRANCH  19  20
ENDBRANCH  18  19
ENDBRANCH   4  18
TORSDOF 5
ENDMDL
MODEL 2
REMARK VINA RESULT:      -7.9      1.285      1.594
REMARK  Name = 
REMARK  5 active torsions:
REMARK  status: ('A' for Active; 'I' for Inactive)
REMARK    1  A    between atoms: C_2  and  C_11
REMARK    2  A    between atoms: N_3  and  C_4
REMARK    3  A    between atoms: C_14  and  C_15
REMARK    4  A    between atoms: C_15  and  O_16
REMARK    5  A    between atoms: O_16  and  C_17
REMARK                            x       y       z     vdW  Elec       q    Type
REMARK                         _______ _______ _______ _____ _____    ______ ____
ROOT
ATOM      1  C   UNL     1       6.532   6.379  17.431  0.00  0.00    +0.000 A 
ATOM      2  C   UNL     1       7.496   5.992  18.334  0.00  0.00    +0.000 A 
ATOM      3  O   UNL     1       8.276   7.070  18.613  0.00  0.00    +0.000 OA
ATOM      4  C   UNL     1       7.738   8.079  17.861  0.00  0.00    +0.000 A 
ATOM      5  N   UNL     1       6.698   7.720  17.129  0.00  0.00    +0.000 NA
ENDROOT
BRANCH   1   7
ATOM      6  O   UNL     1       5.232   5.514  15.673  0.00  0.00    +0.000 OA
ATOM      7  C   UNL     1       5.497   5.526  16.868  0.00  0.00    +0.000 C 
ATOM      8  N   UNL     1       4.848   4.744  17.803  0.00  0.00    +0.000 N 
ATOM      9  H   UNL     1       5.006   4.995  18.778  0.00  0.00    +0.000 HD
BRANCH   8  10
ATOM     10  C   UNL     1       3.697   3.918  17.458  0.00  0.00    +0.000 C 
ATOM     11  C   UNL     1       3.902   2.433  17.778  0.00  0.00    +0.000 C 
ATOM     12  C   UNL     1       3.747   2.159  19.268  0.00  0.00    +0.000 C 
ATOM     13  C   UNL     1       2.346   2.541  19.706  0.00  0.00    +0.000 C 
ATOM     14  N   UNL     1       1.969   3.864  19.266  0.00  0.00    +0.000 N 
ATOM     15  C   UNL     1       2.439   4.490  18.143  0.00  0.00    +0.000 C 
ATOM     16  O   UNL     1       1.941   5.564  17.805  0.00  0.00    +0.000 OA
ATOM     17  H   UNL     1       1.132   4.285  19.652  0.00  0.00    +0.000 HD
ENDBRANCH   8  10
ENDBRANCH   1   7
BRANCH   4  18
ATOM     18  C   UNL     1       8.424   9.398  17.925  0.00  0.00    +0.000 C 
BRANCH  18  19
ATOM     19  O   UNL     1       9.105   9.465  19.178  0.00  0.00    +0.000 OA
BRANCH  19  20
ATOM     20  C   UNL     1       9.705  10.655  19.489  0.00  0.00    +0.000 A 
ATOM     21  C   UNL     1      10.582  11.370  18.669  0.00  0.00    +0.000 A 
ATOM     22  C   UNL     1      11.129  12.583  19.107  0.00  0.00    +0.000 A 
ATOM     23  C   UNL     1      10.801  13.082  20.365  0.00  0.00    +0.000 A 
ATOM     24  C   UNL     1       9.929  12.365  21.175  0.00  0.00    +0.000 A 
ATOM     25  F   UNL     1       9.610  12.845  22.384  0.00  0.00    +0.000 F 
ATOM     26  C   UNL     1       9.382  11.160  20.749  0.00  0.00    +0.000 A 
ENDBRANCH  19  20
ENDBRANCH  18  19
ENDBRANCH   4  18
TORSDOF 5
ENDMDL
MODEL 3
REMARK VINA RESULT:      -7.7      1.131      1.488
REMARK  Name = 
REMARK  5 active torsions:
REMARK  status: ('A' for Active; 'I' for Inactive)
REMARK    1  A    between atoms: C_2  and  C_11
REMARK    2  A    between atoms: N_3  and  C_4
REMARK    3  A    between atoms: C_14  and  C_15
REMARK    4  A    between atoms: C_15  and  O_16
REMARK    5  A    between atoms: O_16  and  C_17
REMARK                            x       y       z     vdW  Elec       q    Type
REMARK                         _______ _______ _______ _____ _____    ______ ____
ROOT
ATOM      1  C   UNL     1       6.352   5.545  17.849  0.00  0.00    +0.000 A 
ATOM      2  C   UNL     1       7.425   5.442  18.704  0.00  0.00    +0.000 A 
ATOM      3  O   UNL     1       8.089   6.629  18.699  0.00  0.00    +0.000 OA
ATOM      4  C   UNL     1       7.375   7.411  17.832  0.00  0.00    +0.000 A 
ATOM      5  N   UNL     1       6.330   6.811  17.290  0.00  0.00    +0.000 NA
ENDROOT
BRANCH   1   7
ATOM      6  O   UNL     1       5.411   3.844  16.526  0.00  0.00    +0.000 OA
ATOM      7  C   UNL     1       5.386   4.496  17.562  0.00  0.00    +0.000 C 
ATOM      8  N   UNL     1       4.446   4.315  18.557  0.00  0.00    +0.000 N 
ATOM      9  H   UNL     1       4.398   5.050  19.261  0.00  0.00    +0.000 HD
BRANCH   8  10
ATOM     10  C   UNL     1       3.319   3.402  18.402  0.00  0.00    +0.000 C 
ATOM     11  C   UNL     1       3.361   2.221  19.379  0.00  0.00    +0.000 C 
ATOM     12  C   UNL     1       2.925   2.641  20.777  0.00  0.00    +0.000 C 
ATOM     13  C   UNL     1       1.499   3.154  20.726  0.00  0.00    +0.000 C 
ATOM     14  N   UNL     1       1.300   4.134  19.684  0.00  0.00    +0.000 N 
ATOM     15  C   UNL     1       2.003   4.199  18.511  0.00  0.00    +0.000 C 
ATOM     16  O   UNL     1       1.649   4.999  17.645  0.00  0.00    +0.000 OA
ATOM     17  H   UNL     1       0.439   4.670  19.677  0.00  0.00    +0.000 HD
ENDBRANCH   8  10
ENDBRANCH   1   7
BRANCH   4  18
ATOM     18  C   UNL     1       7.900   8.781  17.582  0.00  0.00    +0.000 C 
BRANCH  18  19
ATOM     19  O   UNL     1       8.677   9.155  18.720  0.00  0.00    +0.000 OA
BRANCH  19  20
ATOM     20  C   UNL     1       9.150  10.439  18.745  0.00  0.00    +0.000 A 
ATOM     21  C   UNL     1       8.841  11.446  17.825  0.00  0.00    +0.000 A 
ATOM     22  C   UNL     1       9.394  12.724  17.964  0.00  0.00    +0.000 A 
ATOM     23  C   UNL     1      10.258  12.999  19.022  0.00  0.00    +0.000 A 
ATOM     24  C   UNL     1      10.562  11.994  19.932  0.00  0.00    +0.000 A 
ATOM     25  F   UNL     1      11.390  12.257  20.950  0.00  0.00    +0.000 F 
ATOM     26  C   UNL     1      10.018  10.721  19.801  0.00  0.00    +0.000 A 
ENDBRANCH  19  20
ENDBRANCH  18  19
ENDBRANCH   4  18
TORSDOF 5
ENDMDL
MODEL 4
REMARK VINA RESULT:      -7.7      5.838      8.444
REMARK  Name = 
REMARK  5 active torsions:
REMARK  status: ('A' for Active; 'I' for Inactive)
REMARK    1  A    between atoms: C_2  and  C_11
REMARK    2  A    between atoms: N_3  and  C_4
REMARK    3  A    between atoms: C_14  and  C_15
REMARK    4  A    between atoms: C_15  and  O_16
REMARK    5  A    between atoms: O_16  and  C_17
REMARK                            x       y       z     vdW  Elec       q    Type
REMARK                         _______ _______ _______ _____ _____    ______ ____
ROOT
ATOM      1  C   UNL     1       2.496   7.364  18.973  0.00  0.00    +0.000 A 
ATOM      2  C   UNL     1       2.572   8.160  17.854  0.00  0.00    +0.000 A 
ATOM      3  O   UNL     1       1.830   9.279  18.074  0.00  0.00    +0.000 OA
ATOM      4  C   UNL     1       1.336   9.111  19.339  0.00  0.00    +0.000 A 
ATOM      5  N   UNL     1       1.696   7.980  19.921  0.00  0.00    +0.000 NA
ENDROOT
BRANCH   1   7
ATOM      6  O   UNL     1       2.971   5.382  20.145  0.00  0.00    +0.000 OA
ATOM      7  C   UNL     1       3.143   6.074  19.150  0.00  0.00    +0.000 C 
ATOM      8  N   UNL     1       3.964   5.713  18.100  0.00  0.00    +0.000 N 
ATOM      9  H   UNL     1       4.192   6.454  17.440  0.00  0.00    +0.000 HD
BRANCH   8  10
ATOM     10  C   UNL     1       4.799   4.517  18.145  0.00  0.00    +0.000 C 
ATOM     11  C   UNL     1       4.785   3.723  16.834  0.00  0.00    +0.000 C 
ATOM     12  C   UNL     1       5.658   4.384  15.775  0.00  0.00    +0.000 C 
ATOM     13  C   UNL     1       7.091   4.444  16.269  0.00  0.00    +0.000 C 
ATOM     14  N   UNL     1       7.194   4.991  17.601  0.00  0.00    +0.000 N 
ATOM     15  C   UNL     1       6.228   4.913  18.568  0.00  0.00    +0.000 C 
ATOM     16  O   UNL     1       6.489   5.303  19.707  0.00  0.00    +0.000 OA
ATOM     17  H   UNL     1       8.111   5.241  17.955  0.00  0.00    +0.000 HD
ENDBRANCH   8  10
ENDBRANCH   1   7
BRANCH   4  18
ATOM     18  C   UNL     1       0.430  10.176  19.849  0.00  0.00    +0.000 C 
BRANCH  18  19
ATOM     19  O   UNL     1       0.061  10.991  18.736  0.00  0.00    +0.000 OA
BRANCH  19  20
ATOM     20  C   UNL     1      -1.261  10.983  18.381  0.00  0.00    +0.000 A 
ATOM     21  C   UNL     1      -2.277  11.731  18.983  0.00  0.00    +0.000 A 
ATOM     22  C   UNL     1      -3.595  11.632  18.522  0.00  0.00    +0.000 A 
ATOM     23  C   UNL     1      -3.901  10.786  17.459  0.00  0.00    +0.000 A 
ATOM     24  C   UNL     1      -2.886  10.045  16.865  0.00  0.00    +0.000 A 
ATOM     25  F   UNL     1      -3.178   9.233  15.842  0.00  0.00    +0.000 F 
ATOM     26  C   UNL     1      -1.575  10.135  17.317  0.00  0.00    +0.000 A 
ENDBRANCH  19  20
ENDBRANCH  18  19
ENDBRANCH   4  18
TORSDOF 5
ENDMDL
MODEL 5
REMARK VINA RESULT:      -7.7      5.088      7.349
REMARK  Name = 
REMARK  5 active torsions:
REMARK  status: ('A' for Active; 'I' for Inactive)
REMARK    1  A    between atoms: C_2  and  C_11
REMARK    2  A    between atoms: N_3  and  C_4
REMARK    3  A    between atoms: C_14  and  C_15
REMARK    4  A    between atoms: C_15  and  O_16
REMARK    5  A    between atoms: O_16  and  C_17
REMARK                            x       y       z     vdW  Elec       q    Type
REMARK                         _______ _______ _______ _____ _____    ______ ____
ROOT
ATOM      1  C   UNL     1       3.506   5.022  19.539  0.00  0.00    +0.000 A 
ATOM      2  C   UNL     1       2.570   4.619  20.464  0.00  0.00    +0.000 A 
ATOM      3  O   UNL     1       1.778   5.684  20.761  0.00  0.00    +0.000 OA
ATOM      4  C   UNL     1       2.273   6.699  19.987  0.00  0.00    +0.000 A 
ATOM      5  N   UNL     1       3.311   6.361  19.242  0.00  0.00    +0.000 NA
ENDROOT
BRANCH   1   7
ATOM      6  O   UNL     1       5.027   3.229  19.547  0.00  0.00    +0.000 OA
ATOM      7  C   UNL     1       4.547   4.189  18.958  0.00  0.00    +0.000 C 
ATOM      8  N   UNL     1       4.939   4.585  17.695  0.00  0.00    +0.000 N 
ATOM      9  H   UNL     1       4.626   5.509  17.403  0.00  0.00    +0.000 HD
BRANCH   8  10
ATOM     10  C   UNL     1       6.056   3.957  16.998  0.00  0.00    +0.000 C 
ATOM     11  C   UNL     1       5.683   3.442  15.603  0.00  0.00    +0.000 C 
ATOM     12  C   UNL     1       5.596   4.580  14.595  0.00  0.00    +0.000 C 
ATOM     13  C   UNL     1       6.945   5.266  14.493  0.00  0.00    +0.000 C 
ATOM     14  N   UNL     1       7.490   5.610  15.786  0.00  0.00    +0.000 N 
ATOM     15  C   UNL     1       7.243   4.941  16.954  0.00  0.00    +0.000 C 
ATOM     16  O   UNL     1       7.873   5.252  17.966  0.00  0.00    +0.000 OA
ATOM     17  H   UNL     1       8.293   6.227  15.827  0.00  0.00    +0.000 HD
ENDBRANCH   8  10
ENDBRANCH   1   7
BRANCH   4  18
ATOM     18  C   UNL     1       1.623   8.029  20.136  0.00  0.00    +0.000 C 
BRANCH  18  19
ATOM     19  O   UNL     1       1.271   8.181  21.511  0.00  0.00    +0.000 OA
BRANCH  19  20
ATOM     20  C   UNL     1       0.567   9.307  21.844  0.00  0.00    +0.000 A 
ATOM     21  C   UNL     1      -0.338   9.425  22.903  0.00  0.00    +0.000 A 
ATOM     22  C   UNL     1      -0.995  10.639  23.139  0.00  0.00    +0.000 A 
ATOM     23  C   UNL     1      -0.750  11.736  22.316  0.00  0.00    +0.000 A 
ATOM     24  C   UNL     1       0.149  11.610  21.265  0.00  0.00    +0.000 A 
ATOM     25  F   UNL     1       0.388  12.665  20.474  0.00  0.00    +0.000 F 
ATOM     26  C   UNL     1       0.805  10.409  21.022  0.00  0.00    +0.000 A 
ENDBRANCH  19  20
ENDBRANCH  18  19
ENDBRANCH   4  18
TORSDOF 5
ENDMDL
MODEL 6
REMARK VINA RESULT:      -7.6      4.873      7.547
REMARK  Name = 
REMARK  5 active torsions:
REMARK  status: ('A' for Active; 'I' for Inactive)
REMARK    1  A    between atoms: C_2  and  C_11
REMARK    2  A    between atoms: N_3  and  C_4
REMARK    3  A    between atoms: C_14  and  C_15
REMARK    4  A    between atoms: C_15  and  O_16
REMARK    5  A    between atoms: O_16  and  C_17
REMARK                            x       y       z     vdW  Elec       q    Type
REMARK                         _______ _______ _______ _____ _____    ______ ____
ROOT
ATOM      1  C   UNL     1       6.345   4.963  17.461  0.00  0.00    +0.000 A 
ATOM      2  C   UNL     1       7.003   6.163  17.328  0.00  0.00    +0.000 A 
ATOM      3  O   UNL     1       7.535   6.222  16.077  0.00  0.00    +0.000 OA
ATOM      4  C   UNL     1       7.163   5.039  15.497  0.00  0.00    +0.000 A 
ATOM      5  N   UNL     1       6.456   4.245  16.282  0.00  0.00    +0.000 NA
ENDROOT
BRANCH   1   7
ATOM      6  O   UNL     1       6.041   4.731  19.780  0.00  0.00    +0.000 OA
ATOM      7  C   UNL     1       5.640   4.501  18.647  0.00  0.00    +0.000 C 
ATOM      8  N   UNL     1       4.493   3.785  18.372  0.00  0.00    +0.000 N 
ATOM      9  H   UNL     1       4.381   3.479  17.406  0.00  0.00    +0.000 HD
BRANCH   8  10
ATOM     10  C   UNL     1       3.719   3.129  19.420  0.00  0.00    +0.000 C 
ATOM     11  C   UNL     1       2.617   4.023  20.003  0.00  0.00    +0.000 C 
ATOM     12  C   UNL     1       1.418   4.110  19.068  0.00  0.00    +0.000 C 
ATOM     13  C   UNL     1       0.836   2.724  18.866  0.00  0.00    +0.000 C 
ATOM     14  N   UNL     1       1.840   1.748  18.513  0.00  0.00    +0.000 N 
ATOM     15  C   UNL     1       3.159   1.798  18.879  0.00  0.00    +0.000 C 
ATOM     16  O   UNL     1       3.886   0.836  18.629  0.00  0.00    +0.000 OA
ATOM     17  H   UNL     1       1.540   0.838  18.183  0.00  0.00    +0.000 HD
ENDBRANCH   8  10
ENDBRANCH   1   7
BRANCH   4  18
ATOM     18  C   UNL     1       7.650   4.792  14.113  0.00  0.00    +0.000 C 
BRANCH  18  19
ATOM     19  O   UNL     1       6.531   4.933  13.236  0.00  0.00    +0.000 OA
BRANCH  19  20
ATOM     20  C   UNL     1       6.211   3.845  12.470  0.00  0.00    +0.000 A 
ATOM     21  C   UNL     1       7.097   2.851  12.045  0.00  0.00    +0.000 A 
ATOM     22  C   UNL     1       6.639   1.784  11.263  0.00  0.00    +0.000 A 
ATOM     23  C   UNL     1       5.296   1.709  10.902  0.00  0.00    +0.000 A 
ATOM     24  C   UNL     1       4.421   2.701  11.327  0.00  0.00    +0.000 A 
ATOM     25  F   UNL     1       3.129   2.629  10.983  0.00  0.00    +0.000 F 
ATOM     26  C   UNL     1       4.867   3.765  12.103  0.00  0.00    +0.000 A 
ENDBRANCH  19  20
ENDBRANCH  18  19
ENDBRANCH   4  18
TORSDOF 5
ENDMDL
MODEL 7
REMARK VINA RESULT:      -7.6      5.939      8.572
REMARK  Name = 
REMARK  5 active torsions:
REMARK  status: ('A' for Active; 'I' for Inactive)
REMARK    1  A    between atoms: C_2  and  C_11
REMARK    2  A    between atoms: N_3  and  C_4
REMARK    3  A    between atoms: C_14  and  C_15
REMARK    4  A    between atoms: C_15  and  O_16
REMARK    5  A    between atoms: O_16  and  C_17
REMARK                            x       y       z     vdW  Elec       q    Type
REMARK                         _______ _______ _______ _____ _____    ______ ____
ROOT
ATOM      1  C   UNL     1       2.413   7.469  18.837  0.00  0.00    +0.000 A 
ATOM      2  C   UNL     1       2.557   8.277  17.733  0.00  0.00    +0.000 A 
ATOM      3  O   UNL     1       1.878   9.433  17.958  0.00  0.00    +0.000 OA
ATOM      4  C   UNL     1       1.349   9.275  19.210  0.00  0.00    +0.000 A 
ATOM      5  N   UNL     1       1.631   8.116  19.780  0.00  0.00    +0.000 NA
ENDROOT
BRANCH   1   7
ATOM      6  O   UNL     1       2.609   5.372  19.882  0.00  0.00    +0.000 OA
ATOM      7  C   UNL     1       2.980   6.140  19.004  0.00  0.00    +0.000 C 
ATOM      8  N   UNL     1       3.969   5.837  18.090  0.00  0.00    +0.000 N 
ATOM      9  H   UNL     1       4.335   6.622  17.555  0.00  0.00    +0.000 HD
BRANCH   8  10
ATOM     10  C   UNL     1       4.748   4.606  18.172  0.00  0.00    +0.000 C 
ATOM     11  C   UNL     1       4.699   3.775  16.884  0.00  0.00    +0.000 C 
ATOM     12  C   UNL     1       5.602   4.364  15.808  0.00  0.00    +0.000 C 
ATOM     13  C   UNL     1       7.035   4.372  16.303  0.00  0.00    +0.000 C 
ATOM     14  N   UNL     1       7.163   4.953  17.619  0.00  0.00    +0.000 N 
ATOM     15  C   UNL     1       6.194   4.948  18.586  0.00  0.00    +0.000 C 
ATOM     16  O   UNL     1       6.472   5.357  19.713  0.00  0.00    +0.000 OA
ATOM     17  H   UNL     1       8.090   5.170  17.967  0.00  0.00    +0.000 HD
ENDBRANCH   8  10
ENDBRANCH   1   7
BRANCH   4  18
ATOM     18  C   UNL     1       0.497  10.383  19.720  0.00  0.00    +0.000 C 
BRANCH  18  19
ATOM     19  O   UNL     1       0.025  11.114  18.589  0.00  0.00    +0.000 OA
BRANCH  19  20
ATOM     20  C   UNL     1      -1.278  10.907  18.224  0.00  0.00    +0.000 A 
ATOM     21  C   UNL     1      -1.731   9.959  17.301  0.00  0.00    +0.000 A 
ATOM     22  C   UNL     1      -3.097   9.848  17.016  0.00  0.00    +0.000 A 
ATOM     23  C   UNL     1      -4.013  10.683  17.651  0.00  0.00    +0.000 A 
ATOM     24  C   UNL     1      -3.555  11.624  18.565  0.00  0.00    +0.000 A 
ATOM     25  F   UNL     1      -4.435  12.427  19.178  0.00  0.00    +0.000 F 
ATOM     26  C   UNL     1      -2.201  11.743  18.854  0.00  0.00    +0.000 A 
ENDBRANCH  19  20
ENDBRANCH  18  19
ENDBRANCH   4  18
TORSDOF 5
ENDMDL
MODEL 8
REMARK VINA RESULT:      -7.6      5.653      8.439
REMARK  Name = 
REMARK  5 active torsions:
REMARK  status: ('A' for Active; 'I' for Inactive)
REMARK    1  A    between atoms: C_2  and  C_11
REMARK    2  A    between atoms: N_3  and  C_4
REMARK    3  A    between atoms: C_14  and  C_15
REMARK    4  A    between atoms: C_15  and  O_16
REMARK    5  A    between atoms: O_16  and  C_17
REMARK                            x       y       z     vdW  Elec       q    Type
REMARK                         _______ _______ _______ _____ _____    ______ ____
ROOT
ATOM      1  C   UNL     1       2.849   6.867  18.822  0.00  0.00    +0.000 A 
ATOM      2  C   UNL     1       2.224   7.194  20.003  0.00  0.00    +0.000 A 
ATOM      3  O   UNL     1       1.554   8.364  19.821  0.00  0.00    +0.000 OA
ATOM      4  C   UNL     1       1.802   8.695  18.516  0.00  0.00    +0.000 A 
ATOM      5  N   UNL     1       2.577   7.838  17.874  0.00  0.00    +0.000 NA
ENDROOT
BRANCH   1   7
ATOM      6  O   UNL     1       3.489   4.632  19.172  0.00  0.00    +0.000 OA
ATOM      7  C   UNL     1       3.674   5.692  18.589  0.00  0.00    +0.000 C 
ATOM      8  N   UNL     1       4.677   5.889  17.661  0.00  0.00    +0.000 N 
ATOM      9  H   UNL     1       4.864   6.857  17.408  0.00  0.00    +0.000 HD
BRANCH   8  10
ATOM     10  C   UNL     1       5.687   4.873  17.385  0.00  0.00    +0.000 C 
ATOM     11  C   UNL     1       5.276   3.901  16.272  0.00  0.00    +0.000 C 
ATOM     12  C   UNL     1       5.428   4.535  14.896  0.00  0.00    +0.000 C 
ATOM     13  C   UNL     1       6.881   4.911  14.673  0.00  0.00    +0.000 C 
ATOM     14  N   UNL     1       7.434   5.660  15.776  0.00  0.00    +0.000 N 
ATOM     15  C   UNL     1       7.032   5.565  17.082  0.00  0.00    +0.000 C 
ATOM     16  O   UNL     1       7.672   6.158  17.950  0.00  0.00    +0.000 OA
ATOM     17  H   UNL     1       8.333   6.112  15.656  0.00  0.00    +0.000 HD
ENDBRANCH   8  10
ENDBRANCH   1   7
BRANCH   4  18
ATOM     18  C   UNL     1       1.225   9.978  18.032  0.00  0.00    +0.000 C 
BRANCH  18  19
ATOM     19  O   UNL     1       0.150  10.321  18.907  0.00  0.00    +0.000 OA
BRANCH  19  20
ATOM     20  C   UNL     1      -1.085  10.462  18.337  0.00  0.00    +0.000 A 
ATOM     21  C   UNL     1      -1.537   9.808  17.186  0.00  0.00    +0.000 A 
ATOM     22  C   UNL     1      -2.831  10.040  16.704  0.00  0.00    +0.000 A 
ATOM     23  C   UNL     1      -3.675  10.926  17.369  0.00  0.00    +0.000 A 
ATOM     24  C   UNL     1      -3.219  11.573  18.511  0.00  0.00    +0.000 A 
ATOM     25  F   UNL     1      -4.029  12.424  19.153  0.00  0.00    +0.000 F 
ATOM     26  C   UNL     1      -1.935  11.350  18.996  0.00  0.00    +0.000 A 
ENDBRANCH  19  20
ENDBRANCH  18  19
ENDBRANCH   4  18
TORSDOF 5
ENDMDL
MODEL 9
REMARK VINA RESULT:      -7.5      1.563      1.975
REMARK  Name = 
REMARK  5 active torsions:
REMARK  status: ('A' for Active; 'I' for Inactive)
REMARK    1  A    between atoms: C_2  and  C_11
REMARK    2  A    between atoms: N_3  and  C_4
REMARK    3  A    between atoms: C_14  and  C_15
REMARK    4  A    between atoms: C_15  and  O_16
REMARK    5  A    between atoms: O_16  and  C_17
REMARK                            x       y       z     vdW  Elec       q    Type
REMARK                         _______ _______ _______ _____ _____    ______ ____
ROOT
ATOM      1  C   UNL     1       5.938   5.699  17.571  0.00  0.00    +0.000 A 
ATOM      2  C   UNL     1       5.609   6.835  16.868  0.00  0.00    +0.000 A 
ATOM      3  O   UNL     1       6.545   7.786  17.133  0.00  0.00    +0.000 OA
ATOM      4  C   UNL     1       7.415   7.172  17.992  0.00  0.00    +0.000 A 
ATOM      5  N   UNL     1       7.097   5.926  18.294  0.00  0.00    +0.000 NA
ENDROOT
BRANCH   1   7
ATOM      6  O   UNL     1       5.291   3.626  16.670  0.00  0.00    +0.000 OA
ATOM      7  C   UNL     1       5.194   4.449  17.571  0.00  0.00    +0.000 C 
ATOM      8  N   UNL     1       4.374   4.287  18.670  0.00  0.00    +0.000 N 
ATOM      9  H   UNL     1       4.217   5.121  19.233  0.00  0.00    +0.000 HD
BRANCH   8  10
ATOM     10  C   UNL     1       3.453   3.162  18.790  0.00  0.00    +0.000 C 
ATOM     11  C   UNL     1       3.441   2.541  20.192  0.00  0.00    +0.000 C 
ATOM     12  C   UNL     1       2.645   3.394  21.171  0.00  0.00    +0.000 C 
ATOM     13  C   UNL     1       1.209   3.499  20.695  0.00  0.00    +0.000 C 
ATOM     14  N   UNL     1       1.113   3.880  19.306  0.00  0.00    +0.000 N 
ATOM     15  C   UNL     1       2.047   3.608  18.342  0.00  0.00    +0.000 C 
ATOM     16  O   UNL     1       1.787   3.869  17.167  0.00  0.00    +0.000 OA
ATOM     17  H   UNL     1       0.209   4.152  18.937  0.00  0.00    +0.000 HD
ENDBRANCH   8  10
ENDBRANCH   1   7
BRANCH   4  18
ATOM     18  C   UNL     1       8.543   7.998  18.503  0.00  0.00    +0.000 C 
BRANCH  18  19
ATOM     19  O   UNL     1       8.214   9.366  18.261  0.00  0.00    +0.000 OA
BRANCH  19  20
ATOM     20  C   UNL     1       9.161  10.294  18.598  0.00  0.00    +0.000 A 
ATOM     21  C   UNL     1      10.080  10.884  17.725  0.00  0.00    +0.000 A 
ATOM     22  C   UNL     1      11.001  11.826  18.199  0.00  0.00    +0.000 A 
ATOM     23  C   UNL     1      11.006  12.180  19.546  0.00  0.00    +0.000 A 
ATOM     24  C   UNL     1      10.091  11.589  20.408  0.00  0.00    +0.000 A 
ATOM     25  F   UNL     1      10.093  11.931  21.703  0.00  0.00    +0.000 F 
ATOM     26  C   UNL     1       9.174  10.652  19.947  0.00  0.00    +0.000 A 
ENDBRANCH  19  20
ENDBRANCH  18  19
ENDBRANCH   4  18
TORSDOF 5
ENDMDL
