MODEL 1
REMARK VINA RESULT:      -7.2      0.000      0.000
REMARK  Name = 
REMARK  5 active torsions:
REMARK  status: ('A' for Active; 'I' for Inactive)
REMARK    1  A    between atoms: C_1  and  C_2
REMARK    2  A    between atoms: C_2  and  C_3
REMARK    3  A    between atoms: C_2  and  C_4
REMARK    4  A    between atoms: C_2  and  C_5
REMARK    5  A    between atoms: C_13  and  C_15
REMARK                            x       y       z     vdW  Elec       q    Type
REMARK                         _______ _______ _______ _____ _____    ______ ____
ROOT
ATOM      1  C   UNL     1       0.274  10.458  19.711  0.00  0.00    +0.000 A 
ATOM      2  C   UNL     1       0.706  10.606  18.383  0.00  0.00    +0.000 A 
ATOM      3  C   UNL     1       1.600   9.712  17.795  0.00  0.00    +0.000 A 
ATOM      4  C   UNL     1       2.069   8.626  18.524  0.00  0.00    +0.000 A 
ATOM      5  C   UNL     1       1.652   8.429  19.850  0.00  0.00    +0.000 A 
ATOM      6  C   UNL     1       0.775   9.355  20.438  0.00  0.00    +0.000 A 
ATOM      7  C   UNL     1       2.201   7.236  20.605  0.00  0.00    +0.000 C 
ATOM      8  N   UNL     1       2.352   6.045  19.762  0.00  0.00    +0.000 N 
ATOM      9  C   UNL     1       2.222   4.788  20.351  0.00  0.00    +0.000 C 
ATOM     10  O   UNL     1       2.122   4.593  21.557  0.00  0.00    +0.000 OA
ATOM     11  C   UNL     1       2.568   6.226  18.322  0.00  0.00    +0.000 C 
ATOM     12  C   UNL     1       3.016   7.629  17.924  0.00  0.00    +0.000 C 
ENDROOT
BRANCH   9  13
ATOM     13  C   UNL     1       2.296   3.551  19.459  0.00  0.00    +0.000 A 
ATOM     14  N   UNL     1       3.417   2.942  19.166  0.00  0.00    +0.000 NA
ATOM     15  C   UNL     1       3.030   1.810  18.488  0.00  0.00    +0.000 A 
ATOM     16  O   UNL     1       3.766   1.005  17.940  0.00  0.00    +0.000 OA
ATOM     17  N   UNL     1       1.647   1.717  18.507  0.00  0.00    +0.000 N 
ATOM     18  N   UNL     1       1.160   2.954  18.945  0.00  0.00    +0.000 N 
ATOM     19  H   UNL     1       1.217   1.250  17.719  0.00  0.00    +0.000 HD
ATOM     20  H   UNL     1       0.352   2.954  19.564  0.00  0.00    +0.000 HD
ENDBRANCH   9  13
BRANCH   1  22
ATOM     21  C   UNL     1      -0.162  12.895  20.436  0.00  0.00    +0.000 C 
ATOM     22  C   UNL     1      -0.714  11.452  20.353  0.00  0.00    +0.000 C 
ATOM     23  C   UNL     1      -1.049  11.013  21.794  0.00  0.00    +0.000 C 
ATOM     24  C   UNL     1      -2.016  11.508  19.526  0.00  0.00    +0.000 C 
ENDBRANCH   1  22
TORSDOF 2
ENDMDL
MODEL 2
REMARK VINA RESULT:      -7.0      3.147      4.000
REMARK  Name = 
REMARK  5 active torsions:
REMARK  status: ('A' for Active; 'I' for Inactive)
REMARK    1  A    between atoms: C_1  and  C_2
REMARK    2  A    between atoms: C_2  and  C_3
REMARK    3  A    between atoms: C_2  and  C_4
REMARK    4  A    between atoms: C_2  and  C_5
REMARK    5  A    between atoms: C_13  and  C_15
REMARK                            x       y       z     vdW  Elec       q    Type
REMARK                         _______ _______ _______ _____ _____    ______ ____
ROOT
ATOM      1  C   UNL     1       0.850  10.178  19.585  0.00  0.00    +0.000 A 
ATOM      2  C   UNL     1       0.719   9.405  20.751  0.00  0.00    +0.000 A 
ATOM      3  C   UNL     1       1.224   8.108  20.835  0.00  0.00    +0.000 A 
ATOM      4  C   UNL     1       1.896   7.557  19.751  0.00  0.00    +0.000 A 
ATOM      5  C   UNL     1       2.064   8.298  18.571  0.00  0.00    +0.000 A 
ATOM      6  C   UNL     1       1.524   9.592  18.490  0.00  0.00    +0.000 A 
ATOM      7  C   UNL     1       2.794   7.649  17.413  0.00  0.00    +0.000 C 
ATOM      8  N   UNL     1       3.915   6.805  17.845  0.00  0.00    +0.000 N 
ATOM      9  C   UNL     1       5.013   6.668  16.996  0.00  0.00    +0.000 C 
ATOM     10  O   UNL     1       5.061   7.093  15.848  0.00  0.00    +0.000 OA
ATOM     11  C   UNL     1       3.863   6.195  19.178  0.00  0.00    +0.000 C 
ATOM     12  C   UNL     1       2.472   6.174  19.806  0.00  0.00    +0.000 C 
ENDROOT
BRANCH   9  13
ATOM     13  C   UNL     1       6.213   5.859  17.481  0.00  0.00    +0.000 A 
ATOM     14  N   UNL     1       6.912   6.173  18.543  0.00  0.00    +0.000 NA
ATOM     15  C   UNL     1       7.779   5.119  18.712  0.00  0.00    +0.000 A 
ATOM     16  O   UNL     1       8.683   5.049  19.529  0.00  0.00    +0.000 OA
ATOM     17  N   UNL     1       7.478   4.127  17.792  0.00  0.00    +0.000 N 
ATOM     18  N   UNL     1       6.608   4.693  16.852  0.00  0.00    +0.000 N 
ATOM     19  H   UNL     1       8.250   3.548  17.489  0.00  0.00    +0.000 HD
ATOM     20  H   UNL     1       5.851   4.113  16.497  0.00  0.00    +0.000 HD
ENDBRANCH   9  13
BRANCH   1  22
ATOM     21  C   UNL     1      -0.155  12.176  20.872  0.00  0.00    +0.000 C 
ATOM     22  C   UNL     1       0.288  11.611  19.501  0.00  0.00    +0.000 C 
ATOM     23  C   UNL     1      -0.948  11.643  18.578  0.00  0.00    +0.000 C 
ATOM     24  C   UNL     1       1.364  12.565  18.940  0.00  0.00    +0.000 C 
ENDBRANCH   1  22
TORSDOF 2
ENDMDL
MODEL 3
REMARK VINA RESULT:      -6.9      2.979      3.815
REMARK  Name = 
REMARK  5 active torsions:
REMARK  status: ('A' for Active; 'I' for Inactive)
REMARK    1  A    between atoms: C_1  and  C_2
REMARK    2  A    between atoms: C_2  and  C_3
REMARK    3  A    between atoms: C_2  and  C_4
REMARK    4  A    between atoms: C_2  and  C_5
REMARK    5  A    between atoms: C_13  and  C_15
REMARK                            x       y       z     vdW  Elec       q    Type
REMARK                         _______ _______ _______ _____ _____    ______ ____
ROOT
ATOM      1  C   UNL     1       0.741  10.238  19.965  0.00  0.00    +0.000 A 
ATOM      2  C   UNL     1       0.625   9.462  21.131  0.00  0.00    +0.000 A 
ATOM      3  C   UNL     1       1.084   8.147  21.189  0.00  0.00    +0.000 A 
ATOM      4  C   UNL     1       1.696   7.580  20.076  0.00  0.00    +0.000 A 
ATOM      5  C   UNL     1       1.848   8.323  18.896  0.00  0.00    +0.000 A 
ATOM      6  C   UNL     1       1.352   9.637  18.843  0.00  0.00    +0.000 A 
ATOM      7  C   UNL     1       2.511   7.657  17.708  0.00  0.00    +0.000 C 
ATOM      8  N   UNL     1       3.615   6.770  18.093  0.00  0.00    +0.000 N 
ATOM      9  C   UNL     1       4.676   6.599  17.204  0.00  0.00    +0.000 C 
ATOM     10  O   UNL     1       4.697   7.031  16.057  0.00  0.00    +0.000 OA
ATOM     11  C   UNL     1       3.589   6.152  19.423  0.00  0.00    +0.000 C 
ATOM     12  C   UNL     1       2.223   6.176  20.102  0.00  0.00    +0.000 C 
ENDROOT
BRANCH   9  13
ATOM     13  C   UNL     1       5.863   5.743  17.639  0.00  0.00    +0.000 A 
ATOM     14  N   UNL     1       6.812   6.178  18.430  0.00  0.00    +0.000 NA
ATOM     15  C   UNL     1       7.580   5.068  18.693  0.00  0.00    +0.000 A 
ATOM     16  O   UNL     1       8.633   5.045  19.310  0.00  0.00    +0.000 OA
ATOM     17  N   UNL     1       6.976   3.952  18.136  0.00  0.00    +0.000 N 
ATOM     18  N   UNL     1       5.981   4.417  17.268  0.00  0.00    +0.000 N 
ATOM     19  H   UNL     1       7.594   3.204  17.848  0.00  0.00    +0.000 HD
ATOM     20  H   UNL     1       5.106   3.898  17.227  0.00  0.00    +0.000 HD
ENDBRANCH   9  13
BRANCH   1  22
ATOM     21  C   UNL     1      -0.934  11.892  18.909  0.00  0.00    +0.000 C 
ATOM     22  C   UNL     1       0.228  11.691  19.910  0.00  0.00    +0.000 C 
ATOM     23  C   UNL     1       1.366  12.640  19.480  0.00  0.00    +0.000 C 
ATOM     24  C   UNL     1      -0.289  12.119  21.301  0.00  0.00    +0.000 C 
ENDBRANCH   1  22
TORSDOF 2
ENDMDL
MODEL 4
REMARK VINA RESULT:      -6.7      2.852      3.497
REMARK  Name = 
REMARK  5 active torsions:
REMARK  status: ('A' for Active; 'I' for Inactive)
REMARK    1  A    between atoms: C_1  and  C_2
REMARK    2  A    between atoms: C_2  and  C_3
REMARK    3  A    between atoms: C_2  and  C_4
REMARK    4  A    between atoms: C_2  and  C_5
REMARK    5  A    between atoms: C_13  and  C_15
REMARK                            x       y       z     vdW  Elec       q    Type
REMARK                         _______ _______ _______ _____ _____    ______ ____
ROOT
ATOM      1  C   UNL     1       0.836  10.669  20.381  0.00  0.00    +0.000 A 
ATOM      2  C   UNL     1       0.674   9.857  21.516  0.00  0.00    +0.000 A 
ATOM      3  C   UNL     1       0.980   8.497  21.498  0.00  0.00    +0.000 A 
ATOM      4  C   UNL     1       1.480   7.917  20.337  0.00  0.00    +0.000 A 
ATOM      5  C   UNL     1       1.673   8.694  19.184  0.00  0.00    +0.000 A 
ATOM      6  C   UNL     1       1.331  10.056  19.208  0.00  0.00    +0.000 A 
ATOM      7  C   UNL     1       2.209   8.013  17.942  0.00  0.00    +0.000 C 
ATOM      8  N   UNL     1       3.217   6.989  18.241  0.00  0.00    +0.000 N 
ATOM      9  C   UNL     1       4.216   6.740  17.301  0.00  0.00    +0.000 C 
ATOM     10  O   UNL     1       4.245   7.221  16.174  0.00  0.00    +0.000 OA
ATOM     11  C   UNL     1       3.169   6.315  19.544  0.00  0.00    +0.000 C 
ATOM     12  C   UNL     1       1.841   6.463  20.280  0.00  0.00    +0.000 C 
ENDROOT
BRANCH   9  13
ATOM     13  C   UNL     1       5.312   5.735  17.648  0.00  0.00    +0.000 A 
ATOM     14  N   UNL     1       6.494   6.083  18.093  0.00  0.00    +0.000 NA
ATOM     15  C   UNL     1       7.102   4.896  18.426  0.00  0.00    +0.000 A 
ATOM     16  O   UNL     1       8.259   4.751  18.786  0.00  0.00    +0.000 OA
ATOM     17  N   UNL     1       6.193   3.860  18.281  0.00  0.00    +0.000 N 
ATOM     18  N   UNL     1       5.101   4.371  17.570  0.00  0.00    +0.000 N 
ATOM     19  H   UNL     1       6.579   2.955  18.043  0.00  0.00    +0.000 HD
ATOM     20  H   UNL     1       4.171   4.059  17.840  0.00  0.00    +0.000 HD
ENDBRANCH   9  13
BRANCH   1  22
ATOM     21  C   UNL     1       1.743  13.083  20.475  0.00  0.00    +0.000 C 
ATOM     22  C   UNL     1       0.493  12.172  20.410  0.00  0.00    +0.000 C 
ATOM     23  C   UNL     1      -0.368  12.497  21.648  0.00  0.00    +0.000 C 
ATOM     24  C   UNL     1      -0.287  12.558  19.135  0.00  0.00    +0.000 C 
ENDBRANCH   1  22
TORSDOF 2
ENDMDL
MODEL 5
REMARK VINA RESULT:      -6.7      3.269      4.097
REMARK  Name = 
REMARK  5 active torsions:
REMARK  status: ('A' for Active; 'I' for Inactive)
REMARK    1  A    between atoms: C_1  and  C_2
REMARK    2  A    between atoms: C_2  and  C_3
REMARK    3  A    between atoms: C_2  and  C_4
REMARK    4  A    between atoms: C_2  and  C_5
REMARK    5  A    between atoms: C_13  and  C_15
REMARK                            x       y       z     vdW  Elec       q    Type
REMARK                         _______ _______ _______ _____ _____    ______ ____
ROOT
ATOM      1  C   UNL     1       1.001   9.280  20.227  0.00  0.00    +0.000 A 
ATOM      2  C   UNL     1       1.065   8.288  21.220  0.00  0.00    +0.000 A 
ATOM      3  C   UNL     1       1.629   7.037  20.976  0.00  0.00    +0.000 A 
ATOM      4  C   UNL     1       2.167   6.755  19.726  0.00  0.00    +0.000 A 
ATOM      5  C   UNL     1       2.139   7.721  18.708  0.00  0.00    +0.000 A 
ATOM      6  C   UNL     1       1.540   8.966  18.960  0.00  0.00    +0.000 A 
ATOM      7  C   UNL     1       2.728   7.361  17.360  0.00  0.00    +0.000 C 
ATOM      8  N   UNL     1       3.931   6.527  17.466  0.00  0.00    +0.000 N 
ATOM      9  C   UNL     1       4.906   6.632  16.474  0.00  0.00    +0.000 C 
ATOM     10  O   UNL     1       4.777   7.275  15.438  0.00  0.00    +0.000 OA
ATOM     11  C   UNL     1       4.090   5.667  18.643  0.00  0.00    +0.000 C 
ATOM     12  C   UNL     1       2.802   5.430  19.426  0.00  0.00    +0.000 C 
ENDROOT
BRANCH   9  13
ATOM     13  C   UNL     1       6.195   5.828  16.628  0.00  0.00    +0.000 A 
ATOM     14  N   UNL     1       6.642   5.400  17.782  0.00  0.00    +0.000 NA
ATOM     15  C   UNL     1       7.715   4.601  17.463  0.00  0.00    +0.000 A 
ATOM     16  O   UNL     1       8.490   4.081  18.249  0.00  0.00    +0.000 OA
ATOM     17  N   UNL     1       7.799   4.477  16.085  0.00  0.00    +0.000 N 
ATOM     18  N   UNL     1       6.950   5.445  15.535  0.00  0.00    +0.000 N 
ATOM     19  H   UNL     1       8.725   4.335  15.702  0.00  0.00    +0.000 HD
ATOM     20  H   UNL     1       6.417   5.193  14.705  0.00  0.00    +0.000 HD
ENDBRANCH   9  13
BRANCH   1  22
ATOM     21  C   UNL     1       1.386  11.826  20.399  0.00  0.00    +0.000 C 
ATOM     22  C   UNL     1       0.373  10.660  20.506  0.00  0.00    +0.000 C 
ATOM     23  C   UNL     1      -0.212  10.700  21.933  0.00  0.00    +0.000 C 
ATOM     24  C   UNL     1      -0.753  10.941  19.489  0.00  0.00    +0.000 C 
ENDBRANCH   1  22
TORSDOF 2
ENDMDL
MODEL 6
REMARK VINA RESULT:      -6.6      3.887      7.936
REMARK  Name = 
REMARK  5 active torsions:
REMARK  status: ('A' for Active; 'I' for Inactive)
REMARK    1  A    between atoms: C_1  and  C_2
REMARK    2  A    between atoms: C_2  and  C_3
REMARK    3  A    between atoms: C_2  and  C_4
REMARK    4  A    between atoms: C_2  and  C_5
REMARK    5  A    between atoms: C_13  and  C_15
REMARK                            x       y       z     vdW  Elec       q    Type
REMARK                         _______ _______ _______ _____ _____    ______ ____
ROOT
ATOM      1  C   UNL     1       2.744   4.535  19.027  0.00  0.00    +0.000 A 
ATOM      2  C   UNL     1       2.018   4.357  20.217  0.00  0.00    +0.000 A 
ATOM      3  C   UNL     1       1.527   5.438  20.948  0.00  0.00    +0.000 A 
ATOM      4  C   UNL     1       1.735   6.733  20.489  0.00  0.00    +0.000 A 
ATOM      5  C   UNL     1       2.441   6.958  19.298  0.00  0.00    +0.000 A 
ATOM      6  C   UNL     1       2.956   5.861  18.588  0.00  0.00    +0.000 A 
ATOM      7  C   UNL     1       2.650   8.389  18.846  0.00  0.00    +0.000 C 
ATOM      8  N   UNL     1       1.492   9.249  19.116  0.00  0.00    +0.000 N 
ATOM      9  C   UNL     1       1.247  10.325  18.264  0.00  0.00    +0.000 C 
ATOM     10  O   UNL     1       2.005  10.694  17.375  0.00  0.00    +0.000 OA
ATOM     11  C   UNL     1       0.604   8.903  20.231  0.00  0.00    +0.000 C 
ATOM     12  C   UNL     1       1.206   7.923  21.234  0.00  0.00    +0.000 C 
ENDROOT
BRANCH   9  13
ATOM     13  C   UNL     1      -0.004  11.169  18.496  0.00  0.00    +0.000 A 
ATOM     14  N   UNL     1      -0.112  12.047  19.462  0.00  0.00    +0.000 NA
ATOM     15  C   UNL     1      -1.305  12.686  19.220  0.00  0.00    +0.000 A 
ATOM     16  O   UNL     1      -1.845  13.510  19.940  0.00  0.00    +0.000 OA
ATOM     17  N   UNL     1      -1.825  12.240  18.015  0.00  0.00    +0.000 N 
ATOM     18  N   UNL     1      -1.096  11.101  17.652  0.00  0.00    +0.000 N 
ATOM     19  H   UNL     1      -2.834  12.248  17.932  0.00  0.00    +0.000 HD
ATOM     20  H   UNL     1      -0.876  10.973  16.666  0.00  0.00    +0.000 HD
ENDBRANCH   9  13
BRANCH   1  22
ATOM     21  C   UNL     1       2.170   2.401  17.695  0.00  0.00    +0.000 C 
ATOM     22  C   UNL     1       3.285   3.334  18.226  0.00  0.00    +0.000 C 
ATOM     23  C   UNL     1       4.208   2.475  19.114  0.00  0.00    +0.000 C 
ATOM     24  C   UNL     1       4.082   3.835  17.003  0.00  0.00    +0.000 C 
ENDBRANCH   1  22
TORSDOF 2
ENDMDL
MODEL 7
REMARK VINA RESULT:      -6.5      2.226      3.322
REMARK  Name = 
REMARK  5 active torsions:
REMARK  status: ('A' for Active; 'I' for Inactive)
REMARK    1  A    between atoms: C_1  and  C_2
REMARK    2  A    between atoms: C_2  and  C_3
REMARK    3  A    between atoms: C_2  and  C_4
REMARK    4  A    between atoms: C_2  and  C_5
REMARK    5  A    between atoms: C_13  and  C_15
REMARK                            x       y       z     vdW  Elec       q    Type
REMARK                         _______ _______ _______ _____ _____    ______ ____
ROOT
ATOM      1  C   UNL     1       1.154  11.815  19.550  0.00  0.00    +0.000 A 
ATOM      2  C   UNL     1       0.688  11.373  20.799  0.00  0.00    +0.000 A 
ATOM      3  C   UNL     1       0.620  10.019  21.123  0.00  0.00    +0.000 A 
ATOM      4  C   UNL     1       1.043   9.067  20.203  0.00  0.00    +0.000 A 
ATOM      5  C   UNL     1       1.531   9.463  18.948  0.00  0.00    +0.000 A 
ATOM      6  C   UNL     1       1.564  10.830  18.624  0.00  0.00    +0.000 A 
ATOM      7  C   UNL     1       1.969   8.387  17.976  0.00  0.00    +0.000 C 
ATOM      8  N   UNL     1       2.639   7.260  18.635  0.00  0.00    +0.000 N 
ATOM      9  C   UNL     1       3.611   6.554  17.927  0.00  0.00    +0.000 C 
ATOM     10  O   UNL     1       3.861   6.718  16.738  0.00  0.00    +0.000 OA
ATOM     11  C   UNL     1       2.305   6.963  20.032  0.00  0.00    +0.000 C 
ATOM     12  C   UNL     1       1.008   7.602  20.518  0.00  0.00    +0.000 C 
ENDROOT
BRANCH   9  13
ATOM     13  C   UNL     1       4.366   5.435  18.640  0.00  0.00    +0.000 A 
ATOM     14  N   UNL     1       3.849   4.255  18.877  0.00  0.00    +0.000 NA
ATOM     15  C   UNL     1       4.892   3.514  19.379  0.00  0.00    +0.000 A 
ATOM     16  O   UNL     1       4.826   2.382  19.830  0.00  0.00    +0.000 OA
ATOM     17  N   UNL     1       6.059   4.260  19.309  0.00  0.00    +0.000 N 
ATOM     18  N   UNL     1       5.683   5.580  19.034  0.00  0.00    +0.000 N 
ATOM     19  H   UNL     1       6.759   4.065  20.013  0.00  0.00    +0.000 HD
ATOM     20  H   UNL     1       6.269   6.119  18.400  0.00  0.00    +0.000 HD
ENDBRANCH   9  13
BRANCH   1  22
ATOM     21  C   UNL     1      -0.082  13.856  18.568  0.00  0.00    +0.000 C 
ATOM     22  C   UNL     1       1.223  13.315  19.199  0.00  0.00    +0.000 C 
ATOM     23  C   UNL     1       2.357  13.572  18.185  0.00  0.00    +0.000 C 
ATOM     24  C   UNL     1       1.489  14.141  20.476  0.00  0.00    +0.000 C 
ENDBRANCH   1  22
TORSDOF 2
ENDMDL
MODEL 8
REMARK VINA RESULT:      -6.5      3.788      7.825
REMARK  Name = 
REMARK  5 active torsions:
REMARK  status: ('A' for Active; 'I' for Inactive)
REMARK    1  A    between atoms: C_1  and  C_2
REMARK    2  A    between atoms: C_2  and  C_3
REMARK    3  A    between atoms: C_2  and  C_4
REMARK    4  A    between atoms: C_2  and  C_5
REMARK    5  A    between atoms: C_13  and  C_15
REMARK                            x       y       z     vdW  Elec       q    Type
REMARK                         _______ _______ _______ _____ _____    ______ ____
ROOT
ATOM      1  C   UNL     1       2.845   4.265  19.061  0.00  0.00    +0.000 A 
ATOM      2  C   UNL     1       2.177   4.090  20.283  0.00  0.00    +0.000 A 
ATOM      3  C   UNL     1       1.689   5.170  21.018  0.00  0.00    +0.000 A 
ATOM      4  C   UNL     1       1.842   6.462  20.529  0.00  0.00    +0.000 A 
ATOM      5  C   UNL     1       2.490   6.684  19.304  0.00  0.00    +0.000 A 
ATOM      6  C   UNL     1       3.004   5.588  18.591  0.00  0.00    +0.000 A 
ATOM      7  C   UNL     1       2.642   8.111  18.820  0.00  0.00    +0.000 C 
ATOM      8  N   UNL     1       1.475   8.946  19.127  0.00  0.00    +0.000 N 
ATOM      9  C   UNL     1       1.164  10.001  18.269  0.00  0.00    +0.000 C 
ATOM     10  O   UNL     1       1.873  10.374  17.341  0.00  0.00    +0.000 OA
ATOM     11  C   UNL     1       0.645   8.597  20.285  0.00  0.00    +0.000 C 
ATOM     12  C   UNL     1       1.315   7.651  21.277  0.00  0.00    +0.000 C 
ENDROOT
BRANCH   9  13
ATOM     13  C   UNL     1      -0.097  10.817  18.541  0.00  0.00    +0.000 A 
ATOM     14  N   UNL     1      -1.267  10.527  18.026  0.00  0.00    +0.000 NA
ATOM     15  C   UNL     1      -2.140  11.393  18.640  0.00  0.00    +0.000 A 
ATOM     16  O   UNL     1      -3.323  11.537  18.378  0.00  0.00    +0.000 OA
ATOM     17  N   UNL     1      -1.464  12.108  19.617  0.00  0.00    +0.000 N 
ATOM     18  N   UNL     1      -0.097  11.893  19.407  0.00  0.00    +0.000 N 
ATOM     19  H   UNL     1      -1.810  13.038  19.813  0.00  0.00    +0.000 HD
ATOM     20  H   UNL     1       0.499  11.792  20.226  0.00  0.00    +0.000 HD
ENDBRANCH   9  13
BRANCH   1  22
ATOM     21  C   UNL     1       2.265   2.213  17.608  0.00  0.00    +0.000 C 
ATOM     22  C   UNL     1       3.383   3.065  18.256  0.00  0.00    +0.000 C 
ATOM     23  C   UNL     1       4.190   2.126  19.177  0.00  0.00    +0.000 C 
ATOM     24  C   UNL     1       4.296   3.563  17.116  0.00  0.00    +0.000 C 
ENDBRANCH   1  22
TORSDOF 2
ENDMDL
MODEL 9
REMARK VINA RESULT:      -6.5      4.986      8.099
REMARK  Name = 
REMARK  5 active torsions:
REMARK  status: ('A' for Active; 'I' for Inactive)
REMARK    1  A    between atoms: C_1  and  C_2
REMARK    2  A    between atoms: C_2  and  C_3
REMARK    3  A    between atoms: C_2  and  C_4
REMARK    4  A    between atoms: C_2  and  C_5
REMARK    5  A    between atoms: C_13  and  C_15
REMARK                            x       y       z     vdW  Elec       q    Type
REMARK                         _______ _______ _______ _____ _____    ______ ____
ROOT
ATOM      1  C   UNL     1       2.312   7.349  19.095  0.00  0.00    +0.000 A 
ATOM      2  C   UNL     1       2.087   7.392  20.481  0.00  0.00    +0.000 A 
ATOM      3  C   UNL     1       1.291   8.375  21.067  0.00  0.00    +0.000 A 
ATOM      4  C   UNL     1       0.679   9.335  20.269  0.00  0.00    +0.000 A 
ATOM      5  C   UNL     1       0.864   9.322  18.878  0.00  0.00    +0.000 A 
ATOM      6  C   UNL     1       1.693   8.344  18.305  0.00  0.00    +0.000 A 
ATOM      7  C   UNL     1       0.185  10.396  18.053  0.00  0.00    +0.000 C 
ATOM      8  N   UNL     1      -1.151  10.742  18.553  0.00  0.00    +0.000 N 
ATOM      9  C   UNL     1      -2.113  11.179  17.643  0.00  0.00    +0.000 C 
ATOM     10  O   UNL     1      -1.890  11.428  16.463  0.00  0.00    +0.000 OA
ATOM     11  C   UNL     1      -1.440  10.550  19.979  0.00  0.00    +0.000 C 
ATOM     12  C   UNL     1      -0.201  10.398  20.856  0.00  0.00    +0.000 C 
ENDROOT
BRANCH   9  13
ATOM     13  C   UNL     1      -3.525  11.458  18.150  0.00  0.00    +0.000 A 
ATOM     14  N   UNL     1      -4.541  10.662  17.926  0.00  0.00    +0.000 NA
ATOM     15  C   UNL     1      -5.566  11.188  18.676  0.00  0.00    +0.000 A 
ATOM     16  O   UNL     1      -6.728  10.814  18.679  0.00  0.00    +0.000 OA
ATOM     17  N   UNL     1      -5.081  12.239  19.440  0.00  0.00    +0.000 N 
ATOM     18  N   UNL     1      -3.813  12.556  18.939  0.00  0.00    +0.000 N 
ATOM     19  H   UNL     1      -5.740  12.974  19.662  0.00  0.00    +0.000 HD
ATOM     20  H   UNL     1      -3.089  12.811  19.608  0.00  0.00    +0.000 HD
ENDBRANCH   9  13
BRANCH   1  22
ATOM     21  C   UNL     1       4.128   5.554  19.469  0.00  0.00    +0.000 C 
ATOM     22  C   UNL     1       3.195   6.259  18.455  0.00  0.00    +0.000 C 
ATOM     23  C   UNL     1       4.095   6.876  17.365  0.00  0.00    +0.000 C 
ATOM     24  C   UNL     1       2.305   5.169  17.819  0.00  0.00    +0.000 C 
ENDBRANCH   1  22
TORSDOF 2
ENDMDL
