MODEL 1
REMARK VINA RESULT:      -7.6      0.000      0.000
REMARK  Name = 
REMARK  7 active torsions:
REMARK  status: ('A' for Active; 'I' for Inactive)
REMARK    1  A    between atoms: C_1  and  O_2
REMARK    2  A    between atoms: O_2  and  C_3
REMARK    3  A    between atoms: C_6  and  C_7
REMARK    4  A    between atoms: N_11  and  C_12
REMARK    5  A    between atoms: C_12  and  C_13
REMARK    6  A    between atoms: N_15  and  C_16
REMARK    7  A    between atoms: C_19  and  C_20
REMARK                            x       y       z     vdW  Elec       q    Type
REMARK                         _______ _______ _______ _____ _____    ______ ____
ROOT
ATOM      1  C   UNL     1      -1.917  12.810  23.249  0.00  0.00    +0.000 C 
ATOM      2  C   UNL     1      -3.263  12.122  23.499  0.00  0.00    +0.000 C 
ATOM      3  C   UNL     1      -4.055  13.065  24.327  0.00  0.00    +0.000 C 
ATOM      4  O   UNL     1      -3.755  13.306  25.496  0.00  0.00    +0.000 OA
ATOM      5  N   UNL     1      -4.896  13.843  23.566  0.00  0.00    +0.000 N 
ATOM      6  C   UNL     1      -4.584  15.207  23.508  0.00  0.00    +0.000 A 
ATOM      7  C   UNL     1      -5.588  16.147  23.815  0.00  0.00    +0.000 A 
ATOM      8  C   UNL     1      -5.318  17.504  23.754  0.00  0.00    +0.000 A 
ATOM      9  C   UNL     1      -4.052  17.921  23.354  0.00  0.00    +0.000 A 
ATOM     10  C   UNL     1      -3.056  16.983  23.018  0.00  0.00    +0.000 A 
ATOM     11  C   UNL     1      -3.290  15.590  23.108  0.00  0.00    +0.000 A 
ATOM     12  S   UNL     1      -2.031  14.478  22.314  0.00  0.00    +0.000 S 
ENDROOT
BRANCH   1  16
ATOM     13  C   UNL     1       0.551   9.620  21.456  0.00  0.00    +0.000 A 
ATOM     14  C   UNL     1       0.509  10.881  20.863  0.00  0.00    +0.000 A 
ATOM     15  C   UNL     1      -0.248  11.935  21.422  0.00  0.00    +0.000 A 
ATOM     16  C   UNL     1      -0.992  11.748  22.594  0.00  0.00    +0.000 A 
ATOM     17  C   UNL     1      -0.968  10.444  23.149  0.00  0.00    +0.000 A 
ATOM     18  C   UNL     1      -0.215   9.393  22.588  0.00  0.00    +0.000 A 
BRANCH  13  20
ATOM     19  C   UNL     1       1.514   8.864  19.420  0.00  0.00    +0.000 C 
ATOM     20  O   UNL     1       1.329   8.683  20.822  0.00  0.00    +0.000 OA
ENDBRANCH  13  20
ENDBRANCH   1  16
BRANCH   5  21
ATOM     21  C   UNL     1      -6.070  13.319  22.884  0.00  0.00    +0.000 C 
BRANCH  21  22
ATOM     22  C   UNL     1      -5.849  12.569  21.556  0.00  0.00    +0.000 C 
ATOM     23  O   UNL     1      -6.359  11.458  21.403  0.00  0.00    +0.000 OA
ATOM     24  N   UNL     1      -4.945  13.132  20.671  0.00  0.00    +0.000 N 
ATOM     25  H   UNL     1      -4.359  13.889  21.002  0.00  0.00    +0.000 HD
BRANCH  24  26
ATOM     26  C   UNL     1      -4.583  12.545  19.443  0.00  0.00    +0.000 A 
ATOM     27  C   UNL     1      -5.507  12.350  18.415  0.00  0.00    +0.000 A 
ATOM     28  C   UNL     1      -5.129  11.701  17.236  0.00  0.00    +0.000 A 
ATOM     29  C   UNL     1      -3.826  11.211  17.081  0.00  0.00    +0.000 A 
ATOM     30  C   UNL     1      -2.892  11.443  18.104  0.00  0.00    +0.000 A 
ATOM     31  C   UNL     1      -3.260  12.135  19.262  0.00  0.00    +0.000 A 
BRANCH  29  32
ATOM     32  C   UNL     1      -3.427  10.423  15.857  0.00  0.00    +0.000 C 
ATOM     33  F   UNL     1      -4.423  10.299  14.936  0.00  0.00    +0.000 F 
ATOM     34  F   UNL     1      -2.375  10.982  15.197  0.00  0.00    +0.000 F 
ATOM     35  F   UNL     1      -3.042   9.152  16.162  0.00  0.00    +0.000 F 
ENDBRANCH  29  32
ENDBRANCH  24  26
ENDBRANCH  21  22
ENDBRANCH   5  21
TORSDOF 6
ENDMDL
MODEL 2
REMARK VINA RESULT:      -7.5      0.166      1.052
REMARK  Name = 
REMARK  7 active torsions:
REMARK  status: ('A' for Active; 'I' for Inactive)
REMARK    1  A    between atoms: C_1  and  O_2
REMARK    2  A    between atoms: O_2  and  C_3
REMARK    3  A    between atoms: C_6  and  C_7
REMARK    4  A    between atoms: N_11  and  C_12
REMARK    5  A    between atoms: C_12  and  C_13
REMARK    6  A    between atoms: N_15  and  C_16
REMARK    7  A    between atoms: C_19  and  C_20
REMARK                            x       y       z     vdW  Elec       q    Type
REMARK                         _______ _______ _______ _____ _____    ______ ____
ROOT
ATOM      1  C   UNL     1      -1.922  12.687  23.279  0.00  0.00    +0.000 C 
ATOM      2  C   UNL     1      -3.310  12.080  23.508  0.00  0.00    +0.000 C 
ATOM      3  C   UNL     1      -4.067  13.081  24.300  0.00  0.00    +0.000 C 
ATOM      4  O   UNL     1      -3.781  13.327  25.471  0.00  0.00    +0.000 OA
ATOM      5  N   UNL     1      -4.846  13.889  23.505  0.00  0.00    +0.000 N 
ATOM      6  C   UNL     1      -4.457  15.232  23.430  0.00  0.00    +0.000 A 
ATOM      7  C   UNL     1      -5.414  16.232  23.695  0.00  0.00    +0.000 A 
ATOM      8  C   UNL     1      -5.067  17.570  23.616  0.00  0.00    +0.000 A 
ATOM      9  C   UNL     1      -3.771  17.909  23.239  0.00  0.00    +0.000 A 
ATOM     10  C   UNL     1      -2.822  16.911  22.944  0.00  0.00    +0.000 A 
ATOM     11  C   UNL     1      -3.135  15.536  23.054  0.00  0.00    +0.000 A 
ATOM     12  S   UNL     1      -1.922  14.340  22.310  0.00  0.00    +0.000 S 
ENDROOT
BRANCH   1  16
ATOM     13  C   UNL     1       0.736   9.665  21.466  0.00  0.00    +0.000 A 
ATOM     14  C   UNL     1      -0.005   9.345  22.603  0.00  0.00    +0.000 A 
ATOM     15  C   UNL     1      -0.887  10.276  23.196  0.00  0.00    +0.000 A 
ATOM     16  C   UNL     1      -1.043  11.563  22.665  0.00  0.00    +0.000 A 
ATOM     17  C   UNL     1      -0.243  11.876  21.538  0.00  0.00    +0.000 A 
ATOM     18  C   UNL     1       0.638  10.947  20.949  0.00  0.00    +0.000 A 
BRANCH  13  20
ATOM     19  C   UNL     1       1.646   8.579  19.560  0.00  0.00    +0.000 C 
ATOM     20  O   UNL     1       1.551   8.673  20.980  0.00  0.00    +0.000 OA
ENDBRANCH  13  20
ENDBRANCH   1  16
BRANCH   5  21
ATOM     21  C   UNL     1      -6.031  13.418  22.805  0.00  0.00    +0.000 C 
BRANCH  21  22
ATOM     22  C   UNL     1      -5.823  12.648  21.486  0.00  0.00    +0.000 C 
ATOM     23  O   UNL     1      -6.361  11.549  21.342  0.00  0.00    +0.000 OA
ATOM     24  N   UNL     1      -4.899  13.177  20.600  0.00  0.00    +0.000 N 
ATOM     25  H   UNL     1      -4.295  13.922  20.927  0.00  0.00    +0.000 HD
BRANCH  24  26
ATOM     26  C   UNL     1      -4.546  12.567  19.381  0.00  0.00    +0.000 A 
ATOM     27  C   UNL     1      -5.457  12.430  18.332  0.00  0.00    +0.000 A 
ATOM     28  C   UNL     1      -5.093  11.758  17.162  0.00  0.00    +0.000 A 
ATOM     29  C   UNL     1      -3.819  11.187  17.037  0.00  0.00    +0.000 A 
ATOM     30  C   UNL     1      -2.897  11.362  18.080  0.00  0.00    +0.000 A 
ATOM     31  C   UNL     1      -3.248  12.077  19.231  0.00  0.00    +0.000 A 
BRANCH  29  32
ATOM     32  C   UNL     1      -3.441  10.375  15.821  0.00  0.00    +0.000 C 
ATOM     33  F   UNL     1      -3.113   9.083  16.105  0.00  0.00    +0.000 F 
ATOM     34  F   UNL     1      -4.444  10.313  14.903  0.00  0.00    +0.000 F 
ATOM     35  F   UNL     1      -2.367  10.896  15.164  0.00  0.00    +0.000 F 
ENDBRANCH  29  32
ENDBRANCH  24  26
ENDBRANCH  21  22
ENDBRANCH   5  21
TORSDOF 6
ENDMDL
MODEL 3
REMARK VINA RESULT:      -7.5      0.445      1.154
REMARK  Name = 
REMARK  7 active torsions:
REMARK  status: ('A' for Active; 'I' for Inactive)
REMARK    1  A    between atoms: C_1  and  O_2
REMARK    2  A    between atoms: O_2  and  C_3
REMARK    3  A    between atoms: C_6  and  C_7
REMARK    4  A    between atoms: N_11  and  C_12
REMARK    5  A    between atoms: C_12  and  C_13
REMARK    6  A    between atoms: N_15  and  C_16
REMARK    7  A    between atoms: C_19  and  C_20
REMARK                            x       y       z     vdW  Elec       q    Type
REMARK                         _______ _______ _______ _____ _____    ______ ____
ROOT
ATOM      1  C   UNL     1      -1.799  12.758  23.056  0.00  0.00    +0.000 C 
ATOM      2  C   UNL     1      -3.208  12.207  23.292  0.00  0.00    +0.000 C 
ATOM      3  C   UNL     1      -3.935  13.254  24.051  0.00  0.00    +0.000 C 
ATOM      4  O   UNL     1      -3.648  13.522  25.217  0.00  0.00    +0.000 OA
ATOM      5  N   UNL     1      -4.680  14.067  23.229  0.00  0.00    +0.000 N 
ATOM      6  C   UNL     1      -4.243  15.394  23.120  0.00  0.00    +0.000 A 
ATOM      7  C   UNL     1      -5.167  16.433  23.352  0.00  0.00    +0.000 A 
ATOM      8  C   UNL     1      -4.773  17.756  23.240  0.00  0.00    +0.000 A 
ATOM      9  C   UNL     1      -3.464  18.039  22.863  0.00  0.00    +0.000 A 
ATOM     10  C   UNL     1      -2.548  17.001  22.602  0.00  0.00    +0.000 A 
ATOM     11  C   UNL     1      -2.909  15.641  22.747  0.00  0.00    +0.000 A 
ATOM     12  S   UNL     1      -1.734  14.384  22.044  0.00  0.00    +0.000 S 
ENDROOT
BRANCH   1  16
ATOM     13  C   UNL     1       0.440   9.278  21.523  0.00  0.00    +0.000 A 
ATOM     14  C   UNL     1       0.374  10.448  20.767  0.00  0.00    +0.000 A 
ATOM     15  C   UNL     1      -0.310  11.591  21.236  0.00  0.00    +0.000 A 
ATOM     16  C   UNL     1      -0.955  11.588  22.480  0.00  0.00    +0.000 A 
ATOM     17  C   UNL     1      -0.911  10.372  23.204  0.00  0.00    +0.000 A 
ATOM     18  C   UNL     1      -0.231   9.230  22.734  0.00  0.00    +0.000 A 
BRANCH  13  20
ATOM     19  C   UNL     1       1.690   8.477  19.668  0.00  0.00    +0.000 C 
ATOM     20  O   UNL     1       1.141   8.239  20.962  0.00  0.00    +0.000 OA
ENDBRANCH  13  20
ENDBRANCH   1  16
BRANCH   5  21
ATOM     21  C   UNL     1      -5.876  13.619  22.532  0.00  0.00    +0.000 C 
BRANCH  21  22
ATOM     22  C   UNL     1      -5.689  12.688  21.319  0.00  0.00    +0.000 C 
ATOM     23  O   UNL     1      -6.247  11.588  21.315  0.00  0.00    +0.000 OA
ATOM     24  N   UNL     1      -4.763  13.087  20.369  0.00  0.00    +0.000 N 
ATOM     25  H   UNL     1      -4.146  13.856  20.598  0.00  0.00    +0.000 HD
BRANCH  24  26
ATOM     26  C   UNL     1      -4.429  12.324  19.234  0.00  0.00    +0.000 A 
ATOM     27  C   UNL     1      -3.216  11.640  19.134  0.00  0.00    +0.000 A 
ATOM     28  C   UNL     1      -2.887  10.950  17.964  0.00  0.00    +0.000 A 
ATOM     29  C   UNL     1      -3.757  10.957  16.865  0.00  0.00    +0.000 A 
ATOM     30  C   UNL     1      -4.991  11.616  16.987  0.00  0.00    +0.000 A 
ATOM     31  C   UNL     1      -5.338  12.266  18.176  0.00  0.00    +0.000 A 
BRANCH  29  32
ATOM     32  C   UNL     1      -3.377  10.299  15.561  0.00  0.00    +0.000 C 
ATOM     33  F   UNL     1      -2.696   9.128  15.715  0.00  0.00    +0.000 F 
ATOM     34  F   UNL     1      -4.459  10.003  14.791  0.00  0.00    +0.000 F 
ATOM     35  F   UNL     1      -2.580  11.093  14.793  0.00  0.00    +0.000 F 
ENDBRANCH  29  32
ENDBRANCH  24  26
ENDBRANCH  21  22
ENDBRANCH   5  21
TORSDOF 6
ENDMDL
MODEL 4
REMARK VINA RESULT:      -7.3      1.169      1.424
REMARK  Name = 
REMARK  7 active torsions:
REMARK  status: ('A' for Active; 'I' for Inactive)
REMARK    1  A    between atoms: C_1  and  O_2
REMARK    2  A    between atoms: O_2  and  C_3
REMARK    3  A    between atoms: C_6  and  C_7
REMARK    4  A    between atoms: N_11  and  C_12
REMARK    5  A    between atoms: C_12  and  C_13
REMARK    6  A    between atoms: N_15  and  C_16
REMARK    7  A    between atoms: C_19  and  C_20
REMARK                            x       y       z     vdW  Elec       q    Type
REMARK                         _______ _______ _______ _____ _____    ______ ____
ROOT
ATOM      1  C   UNL     1      -1.891  12.478  23.570  0.00  0.00    +0.000 C 
ATOM      2  C   UNL     1      -3.355  12.210  23.206  0.00  0.00    +0.000 C 
ATOM      3  C   UNL     1      -4.165  13.015  24.153  0.00  0.00    +0.000 C 
ATOM      4  O   UNL     1      -4.222  12.736  25.351  0.00  0.00    +0.000 OA
ATOM      5  N   UNL     1      -4.533  14.228  23.621  0.00  0.00    +0.000 N 
ATOM      6  C   UNL     1      -3.947  15.357  24.208  0.00  0.00    +0.000 A 
ATOM      7  C   UNL     1      -4.783  16.403  24.648  0.00  0.00    +0.000 A 
ATOM      8  C   UNL     1      -4.237  17.540  25.220  0.00  0.00    +0.000 A 
ATOM      9  C   UNL     1      -2.854  17.645  25.321  0.00  0.00    +0.000 A 
ATOM     10  C   UNL     1      -2.016  16.613  24.854  0.00  0.00    +0.000 A 
ATOM     11  C   UNL     1      -2.545  15.423  24.301  0.00  0.00    +0.000 A 
ATOM     12  S   UNL     1      -1.350  14.309  23.416  0.00  0.00    +0.000 S 
ENDROOT
BRANCH   1  16
ATOM     13  C   UNL     1       0.677   9.792  21.189  0.00  0.00    +0.000 A 
ATOM     14  C   UNL     1       0.062   9.318  22.347  0.00  0.00    +0.000 A 
ATOM     15  C   UNL     1      -0.787  10.139  23.121  0.00  0.00    +0.000 A 
ATOM     16  C   UNL     1      -1.039  11.467  22.754  0.00  0.00    +0.000 A 
ATOM     17  C   UNL     1      -0.365  11.936  21.600  0.00  0.00    +0.000 A 
ATOM     18  C   UNL     1       0.485  11.116  20.830  0.00  0.00    +0.000 A 
BRANCH  13  20
ATOM     19  C   UNL     1       1.406   7.542  20.965  0.00  0.00    +0.000 C 
ATOM     20  O   UNL     1       1.472   8.895  20.519  0.00  0.00    +0.000 OA
ENDBRANCH  13  20
ENDBRANCH   1  16
BRANCH   5  21
ATOM     21  C   UNL     1      -5.498  14.367  22.541  0.00  0.00    +0.000 C 
BRANCH  21  22
ATOM     22  C   UNL     1      -5.024  14.040  21.112  0.00  0.00    +0.000 C 
ATOM     23  O   UNL     1      -4.858  14.960  20.309  0.00  0.00    +0.000 OA
ATOM     24  N   UNL     1      -4.971  12.699  20.770  0.00  0.00    +0.000 N 
ATOM     25  H   UNL     1      -5.401  12.028  21.397  0.00  0.00    +0.000 HD
BRANCH  24  26
ATOM     26  C   UNL     1      -4.620  12.231  19.490  0.00  0.00    +0.000 A 
ATOM     27  C   UNL     1      -5.579  11.968  18.509  0.00  0.00    +0.000 A 
ATOM     28  C   UNL     1      -5.199  11.440  17.272  0.00  0.00    +0.000 A 
ATOM     29  C   UNL     1      -3.856  11.139  17.009  0.00  0.00    +0.000 A 
ATOM     30  C   UNL     1      -2.894  11.440  17.985  0.00  0.00    +0.000 A 
ATOM     31  C   UNL     1      -3.270  12.014  19.205  0.00  0.00    +0.000 A 
BRANCH  29  32
ATOM     32  C   UNL     1      -3.441  10.478  15.717  0.00  0.00    +0.000 C 
ATOM     33  F   UNL     1      -4.459  10.334  14.822  0.00  0.00    +0.000 F 
ATOM     34  F   UNL     1      -2.467  11.171  15.066  0.00  0.00    +0.000 F 
ATOM     35  F   UNL     1      -2.940   9.226  15.913  0.00  0.00    +0.000 F 
ENDBRANCH  29  32
ENDBRANCH  24  26
ENDBRANCH  21  22
ENDBRANCH   5  21
TORSDOF 6
ENDMDL
MODEL 5
REMARK VINA RESULT:      -7.2      4.241      7.935
REMARK  Name = 
REMARK  7 active torsions:
REMARK  status: ('A' for Active; 'I' for Inactive)
REMARK    1  A    between atoms: C_1  and  O_2
REMARK    2  A    between atoms: O_2  and  C_3
REMARK    3  A    between atoms: C_6  and  C_7
REMARK    4  A    between atoms: N_11  and  C_12
REMARK    5  A    between atoms: C_12  and  C_13
REMARK    6  A    between atoms: N_15  and  C_16
REMARK    7  A    between atoms: C_19  and  C_20
REMARK                            x       y       z     vdW  Elec       q    Type
REMARK                         _______ _______ _______ _____ _____    ______ ____
ROOT
ATOM      1  C   UNL     1      -2.339  13.417  20.252  0.00  0.00    +0.000 C 
ATOM      2  C   UNL     1      -1.954  11.937  20.159  0.00  0.00    +0.000 C 
ATOM      3  C   UNL     1      -0.982  11.837  19.043  0.00  0.00    +0.000 C 
ATOM      4  O   UNL     1      -1.323  12.009  17.873  0.00  0.00    +0.000 OA
ATOM      5  N   UNL     1       0.320  11.872  19.484  0.00  0.00    +0.000 N 
ATOM      6  C   UNL     1       1.055  13.012  19.135  0.00  0.00    +0.000 A 
ATOM      7  C   UNL     1       2.304  12.847  18.504  0.00  0.00    +0.000 A 
ATOM      8  C   UNL     1       3.063  13.952  18.158  0.00  0.00    +0.000 A 
ATOM      9  C   UNL     1       2.588  15.222  18.473  0.00  0.00    +0.000 A 
ATOM     10  C   UNL     1       1.353  15.386  19.131  0.00  0.00    +0.000 A 
ATOM     11  C   UNL     1       0.537  14.279  19.462  0.00  0.00    +0.000 A 
ATOM     12  S   UNL     1      -0.879  14.601  20.622  0.00  0.00    +0.000 S 
ENDROOT
BRANCH   1  16
ATOM     13  C   UNL     1      -5.556  13.642  23.265  0.00  0.00    +0.000 A 
ATOM     14  C   UNL     1      -5.665  14.366  22.078  0.00  0.00    +0.000 A 
ATOM     15  C   UNL     1      -4.669  14.298  21.078  0.00  0.00    +0.000 A 
ATOM     16  C   UNL     1      -3.528  13.504  21.248  0.00  0.00    +0.000 A 
ATOM     17  C   UNL     1      -3.421  12.817  22.482  0.00  0.00    +0.000 A 
ATOM     18  C   UNL     1      -4.414  12.888  23.480  0.00  0.00    +0.000 A 
BRANCH  13  20
ATOM     19  C   UNL     1      -7.836  13.205  23.766  0.00  0.00    +0.000 C 
ATOM     20  O   UNL     1      -6.592  13.785  24.154  0.00  0.00    +0.000 OA
ENDBRANCH  13  20
ENDBRANCH   1  16
BRANCH   5  21
ATOM     21  C   UNL     1       0.939  10.790  20.235  0.00  0.00    +0.000 C 
BRANCH  21  22
ATOM     22  C   UNL     1       1.198   9.463  19.496  0.00  0.00    +0.000 C 
ATOM     23  O   UNL     1       0.777   9.325  18.345  0.00  0.00    +0.000 OA
ATOM     24  N   UNL     1       1.755   8.438  20.242  0.00  0.00    +0.000 N 
ATOM     25  H   UNL     1       1.800   8.549  21.248  0.00  0.00    +0.000 HD
BRANCH  24  26
ATOM     26  C   UNL     1       1.998   7.147  19.737  0.00  0.00    +0.000 A 
ATOM     27  C   UNL     1       2.600   6.940  18.494  0.00  0.00    +0.000 A 
ATOM     28  C   UNL     1       2.763   5.645  17.993  0.00  0.00    +0.000 A 
ATOM     29  C   UNL     1       2.301   4.539  18.719  0.00  0.00    +0.000 A 
ATOM     30  C   UNL     1       1.731   4.752  19.983  0.00  0.00    +0.000 A 
ATOM     31  C   UNL     1       1.612   6.045  20.503  0.00  0.00    +0.000 A 
BRANCH  29  32
ATOM     32  C   UNL     1       2.382   3.142  18.151  0.00  0.00    +0.000 C 
ATOM     33  F   UNL     1       3.415   2.406  18.648  0.00  0.00    +0.000 F 
ATOM     34  F   UNL     1       1.256   2.415  18.392  0.00  0.00    +0.000 F 
ATOM     35  F   UNL     1       2.542   3.141  16.798  0.00  0.00    +0.000 F 
ENDBRANCH  29  32
ENDBRANCH  24  26
ENDBRANCH  21  22
ENDBRANCH   5  21
TORSDOF 6
ENDMDL
MODEL 6
REMARK VINA RESULT:      -7.1      4.261      8.079
REMARK  Name = 
REMARK  7 active torsions:
REMARK  status: ('A' for Active; 'I' for Inactive)
REMARK    1  A    between atoms: C_1  and  O_2
REMARK    2  A    between atoms: O_2  and  C_3
REMARK    3  A    between atoms: C_6  and  C_7
REMARK    4  A    between atoms: N_11  and  C_12
REMARK    5  A    between atoms: C_12  and  C_13
REMARK    6  A    between atoms: N_15  and  C_16
REMARK    7  A    between atoms: C_19  and  C_20
REMARK                            x       y       z     vdW  Elec       q    Type
REMARK                         _______ _______ _______ _____ _____    ______ ____
ROOT
ATOM      1  C   UNL     1      -2.826  12.983  19.812  0.00  0.00    +0.000 C 
ATOM      2  C   UNL     1      -2.322  11.544  19.668  0.00  0.00    +0.000 C 
ATOM      3  C   UNL     1      -1.229  11.593  18.666  0.00  0.00    +0.000 C 
ATOM      4  O   UNL     1      -1.452  11.826  17.478  0.00  0.00    +0.000 OA
ATOM      5  N   UNL     1       0.011  11.685  19.254  0.00  0.00    +0.000 N 
ATOM      6  C   UNL     1       0.690  12.896  19.066  0.00  0.00    +0.000 A 
ATOM      7  C   UNL     1       2.009  12.864  18.572  0.00  0.00    +0.000 A 
ATOM      8  C   UNL     1       2.715  14.041  18.387  0.00  0.00    +0.000 A 
ATOM      9  C   UNL     1       2.112  15.248  18.727  0.00  0.00    +0.000 A 
ATOM     10  C   UNL     1       0.804  15.279  19.249  0.00  0.00    +0.000 A 
ATOM     11  C   UNL     1       0.044  14.098  19.412  0.00  0.00    +0.000 A 
ATOM     12  S   UNL     1      -1.510  14.235  20.421  0.00  0.00    +0.000 S 
ENDROOT
BRANCH   1  16
ATOM     13  C   UNL     1      -6.455  13.020  22.324  0.00  0.00    +0.000 A 
ATOM     14  C   UNL     1      -6.453  12.320  21.118  0.00  0.00    +0.000 A 
ATOM     15  C   UNL     1      -5.303  12.263  20.300  0.00  0.00    +0.000 A 
ATOM     16  C   UNL     1      -4.120  12.916  20.669  0.00  0.00    +0.000 A 
ATOM     17  C   UNL     1      -4.165  13.658  21.875  0.00  0.00    +0.000 A 
ATOM     18  C   UNL     1      -5.314  13.717  22.690  0.00  0.00    +0.000 A 
BRANCH  13  20
ATOM     19  C   UNL     1      -7.594  13.586  24.330  0.00  0.00    +0.000 C 
ATOM     20  O   UNL     1      -7.630  12.994  23.033  0.00  0.00    +0.000 OA
ENDBRANCH  13  20
ENDBRANCH   1  16
BRANCH   5  21
ATOM     21  C   UNL     1       0.625  10.597  19.999  0.00  0.00    +0.000 C 
BRANCH  21  22
ATOM     22  C   UNL     1       1.182   9.406  19.196  0.00  0.00    +0.000 C 
ATOM     23  O   UNL     1       0.950   9.336  17.988  0.00  0.00    +0.000 OA
ATOM     24  N   UNL     1       1.780   8.393  19.927  0.00  0.00    +0.000 N 
ATOM     25  H   UNL     1       1.667   8.399  20.934  0.00  0.00    +0.000 HD
BRANCH  24  26
ATOM     26  C   UNL     1       2.284   7.209  19.356  0.00  0.00    +0.000 A 
ATOM     27  C   UNL     1       3.047   7.219  18.187  0.00  0.00    +0.000 A 
ATOM     28  C   UNL     1       3.473   6.019  17.609  0.00  0.00    +0.000 A 
ATOM     29  C   UNL     1       3.116   4.790  18.179  0.00  0.00    +0.000 A 
ATOM     30  C   UNL     1       2.380   4.789  19.374  0.00  0.00    +0.000 A 
ATOM     31  C   UNL     1       1.996   5.992  19.976  0.00  0.00    +0.000 A 
BRANCH  29  32
ATOM     32  C   UNL     1       3.485   3.484  17.517  0.00  0.00    +0.000 C 
ATOM     33  F   UNL     1       3.644   2.451  18.391  0.00  0.00    +0.000 F 
ATOM     34  F   UNL     1       2.548   3.072  16.619  0.00  0.00    +0.000 F 
ATOM     35  F   UNL     1       4.654   3.567  16.823  0.00  0.00    +0.000 F 
ENDBRANCH  29  32
ENDBRANCH  24  26
ENDBRANCH  21  22
ENDBRANCH   5  21
TORSDOF 6
ENDMDL
MODEL 7
REMARK VINA RESULT:      -7.0      8.064     13.208
REMARK  Name = 
REMARK  7 active torsions:
REMARK  status: ('A' for Active; 'I' for Inactive)
REMARK    1  A    between atoms: C_1  and  O_2
REMARK    2  A    between atoms: O_2  and  C_3
REMARK    3  A    between atoms: C_6  and  C_7
REMARK    4  A    between atoms: N_11  and  C_12
REMARK    5  A    between atoms: C_12  and  C_13
REMARK    6  A    between atoms: N_15  and  C_16
REMARK    7  A    between atoms: C_19  and  C_20
REMARK                            x       y       z     vdW  Elec       q    Type
REMARK                         _______ _______ _______ _____ _____    ______ ____
ROOT
ATOM      1  C   UNL     1       3.490   6.277  18.531  0.00  0.00    +0.000 C 
ATOM      2  C   UNL     1       4.693   6.059  19.454  0.00  0.00    +0.000 C 
ATOM      3  C   UNL     1       5.468   4.943  18.858  0.00  0.00    +0.000 C 
ATOM      4  O   UNL     1       5.036   3.791  18.848  0.00  0.00    +0.000 OA
ATOM      5  N   UNL     1       6.498   5.393  18.064  0.00  0.00    +0.000 N 
ATOM      6  C   UNL     1       6.365   5.146  16.691  0.00  0.00    +0.000 A 
ATOM      7  C   UNL     1       7.422   4.509  16.012  0.00  0.00    +0.000 A 
ATOM      8  C   UNL     1       7.330   4.263  14.652  0.00  0.00    +0.000 A 
ATOM      9  C   UNL     1       6.195   4.683  13.966  0.00  0.00    +0.000 A 
ATOM     10  C   UNL     1       5.151   5.347  14.639  0.00  0.00    +0.000 A 
ATOM     11  C   UNL     1       5.197   5.577  16.034  0.00  0.00    +0.000 A 
ATOM     12  S   UNL     1       3.939   6.754  16.731  0.00  0.00    +0.000 S 
ENDROOT
BRANCH   1  16
ATOM     13  C   UNL     1       0.707   9.156  20.387  0.00  0.00    +0.000 A 
ATOM     14  C   UNL     1       1.085   8.008  21.084  0.00  0.00    +0.000 A 
ATOM     15  C   UNL     1       1.994   7.078  20.534  0.00  0.00    +0.000 A 
ATOM     16  C   UNL     1       2.545   7.271  19.261  0.00  0.00    +0.000 A 
ATOM     17  C   UNL     1       2.108   8.420  18.557  0.00  0.00    +0.000 A 
ATOM     18  C   UNL     1       1.198   9.347  19.106  0.00  0.00    +0.000 A 
BRANCH  13  20
ATOM     19  C   UNL     1      -0.717  11.052  20.252  0.00  0.00    +0.000 C 
ATOM     20  O   UNL     1      -0.176   9.987  21.031  0.00  0.00    +0.000 OA
ENDBRANCH  13  20
ENDBRANCH   1  16
BRANCH   5  21
ATOM     21  C   UNL     1       7.683   6.051  18.590  0.00  0.00    +0.000 C 
BRANCH  21  22
ATOM     22  C   UNL     1       7.883   7.540  18.251  0.00  0.00    +0.000 C 
ATOM     23  O   UNL     1       7.514   7.961  17.153  0.00  0.00    +0.000 OA
ATOM     24  N   UNL     1       8.623   8.286  19.154  0.00  0.00    +0.000 N 
ATOM     25  H   UNL     1       9.130   7.793  19.880  0.00  0.00    +0.000 HD
BRANCH  24  26
ATOM     26  C   UNL     1       8.950   9.642  18.966  0.00  0.00    +0.000 A 
ATOM     27  C   UNL     1       8.520  10.359  17.847  0.00  0.00    +0.000 A 
ATOM     28  C   UNL     1       8.921  11.684  17.658  0.00  0.00    +0.000 A 
ATOM     29  C   UNL     1       9.783  12.304  18.573  0.00  0.00    +0.000 A 
ATOM     30  C   UNL     1      10.181  11.590  19.714  0.00  0.00    +0.000 A 
ATOM     31  C   UNL     1       9.739  10.279  19.925  0.00  0.00    +0.000 A 
BRANCH  29  32
ATOM     32  C   UNL     1      10.304  13.701  18.335  0.00  0.00    +0.000 C 
ATOM     33  F   UNL     1      11.509  13.945  18.922  0.00  0.00    +0.000 F 
ATOM     34  F   UNL     1      10.469  13.978  17.012  0.00  0.00    +0.000 F 
ATOM     35  F   UNL     1       9.458  14.657  18.812  0.00  0.00    +0.000 F 
ENDBRANCH  29  32
ENDBRANCH  24  26
ENDBRANCH  21  22
ENDBRANCH   5  21
TORSDOF 6
ENDMDL
MODEL 8
REMARK VINA RESULT:      -7.0      3.543      6.455
REMARK  Name = 
REMARK  7 active torsions:
REMARK  status: ('A' for Active; 'I' for Inactive)
REMARK    1  A    between atoms: C_1  and  O_2
REMARK    2  A    between atoms: O_2  and  C_3
REMARK    3  A    between atoms: C_6  and  C_7
REMARK    4  A    between atoms: N_11  and  C_12
REMARK    5  A    between atoms: C_12  and  C_13
REMARK    6  A    between atoms: N_15  and  C_16
REMARK    7  A    between atoms: C_19  and  C_20
REMARK                            x       y       z     vdW  Elec       q    Type
REMARK                         _______ _______ _______ _____ _____    ______ ____
ROOT
ATOM      1  C   UNL     1      -2.880  12.236  18.938  0.00  0.00    +0.000 C 
ATOM      2  C   UNL     1      -1.543  11.794  19.542  0.00  0.00    +0.000 C 
ATOM      3  C   UNL     1      -1.333  12.649  20.736  0.00  0.00    +0.000 C 
ATOM      4  O   UNL     1      -1.097  13.853  20.634  0.00  0.00    +0.000 OA
ATOM      5  N   UNL     1      -1.754  12.037  21.894  0.00  0.00    +0.000 N 
ATOM      6  C   UNL     1      -2.875  12.604  22.514  0.00  0.00    +0.000 A 
ATOM      7  C   UNL     1      -2.796  12.940  23.880  0.00  0.00    +0.000 A 
ATOM      8  C   UNL     1      -3.889  13.489  24.529  0.00  0.00    +0.000 A 
ATOM      9  C   UNL     1      -5.072  13.672  23.819  0.00  0.00    +0.000 A 
ATOM     10  C   UNL     1      -5.161  13.308  22.461  0.00  0.00    +0.000 A 
ATOM     11  C   UNL     1      -4.050  12.782  21.760  0.00  0.00    +0.000 A 
ATOM     12  S   UNL     1      -4.390  12.027  20.097  0.00  0.00    +0.000 S 
ENDROOT
BRANCH   1  16
ATOM     13  C   UNL     1      -3.126  10.014  15.132  0.00  0.00    +0.000 A 
ATOM     14  C   UNL     1      -4.100  10.960  15.447  0.00  0.00    +0.000 A 
ATOM     15  C   UNL     1      -4.041  11.710  16.643  0.00  0.00    +0.000 A 
ATOM     16  C   UNL     1      -3.000  11.524  17.562  0.00  0.00    +0.000 A 
ATOM     17  C   UNL     1      -2.051  10.524  17.238  0.00  0.00    +0.000 A 
ATOM     18  C   UNL     1      -2.112   9.774  16.046  0.00  0.00    +0.000 A 
BRANCH  13  20
ATOM     19  C   UNL     1      -4.367   9.804  13.117  0.00  0.00    +0.000 C 
ATOM     20  O   UNL     1      -3.289   9.356  13.938  0.00  0.00    +0.000 OA
ENDBRANCH  13  20
ENDBRANCH   1  16
BRANCH   5  21
ATOM     21  C   UNL     1      -1.076  10.894  22.485  0.00  0.00    +0.000 C 
BRANCH  21  22
ATOM     22  C   UNL     1       0.161  10.339  21.753  0.00  0.00    +0.000 C 
ATOM     23  O   UNL     1       1.221  10.967  21.805  0.00  0.00    +0.000 OA
ATOM     24  N   UNL     1      -0.044   9.239  20.937  0.00  0.00    +0.000 N 
ATOM     25  H   UNL     1      -0.998   8.969  20.730  0.00  0.00    +0.000 HD
BRANCH  24  26
ATOM     26  C   UNL     1       0.964   8.648  20.152  0.00  0.00    +0.000 A 
ATOM     27  C   UNL     1       1.373   9.198  18.936  0.00  0.00    +0.000 A 
ATOM     28  C   UNL     1       2.328   8.547  18.150  0.00  0.00    +0.000 A 
ATOM     29  C   UNL     1       2.867   7.319  18.557  0.00  0.00    +0.000 A 
ATOM     30  C   UNL     1       2.479   6.791  19.798  0.00  0.00    +0.000 A 
ATOM     31  C   UNL     1       1.559   7.468  20.606  0.00  0.00    +0.000 A 
BRANCH  29  32
ATOM     32  C   UNL     1       3.826   6.556  17.676  0.00  0.00    +0.000 C 
ATOM     33  F   UNL     1       4.165   7.215  16.533  0.00  0.00    +0.000 F 
ATOM     34  F   UNL     1       4.999   6.271  18.305  0.00  0.00    +0.000 F 
ATOM     35  F   UNL     1       3.318   5.357  17.275  0.00  0.00    +0.000 F 
ENDBRANCH  29  32
ENDBRANCH  24  26
ENDBRANCH  21  22
ENDBRANCH   5  21
TORSDOF 6
ENDMDL
MODEL 9
REMARK VINA RESULT:      -7.0      3.493      6.396
REMARK  Name = 
REMARK  7 active torsions:
REMARK  status: ('A' for Active; 'I' for Inactive)
REMARK    1  A    between atoms: C_1  and  O_2
REMARK    2  A    between atoms: O_2  and  C_3
REMARK    3  A    between atoms: C_6  and  C_7
REMARK    4  A    between atoms: N_11  and  C_12
REMARK    5  A    between atoms: C_12  and  C_13
REMARK    6  A    between atoms: N_15  and  C_16
REMARK    7  A    between atoms: C_19  and  C_20
REMARK                            x       y       z     vdW  Elec       q    Type
REMARK                         _______ _______ _______ _____ _____    ______ ____
ROOT
ATOM      1  C   UNL     1      -2.975  12.189  18.979  0.00  0.00    +0.000 C 
ATOM      2  C   UNL     1      -1.619  11.853  19.608  0.00  0.00    +0.000 C 
ATOM      3  C   UNL     1      -1.474  12.762  20.772  0.00  0.00    +0.000 C 
ATOM      4  O   UNL     1      -1.312  13.974  20.628  0.00  0.00    +0.000 OA
ATOM      5  N   UNL     1      -1.867  12.167  21.948  0.00  0.00    +0.000 N 
ATOM      6  C   UNL     1      -3.027  12.685  22.539  0.00  0.00    +0.000 A 
ATOM      7  C   UNL     1      -2.982  13.074  23.893  0.00  0.00    +0.000 A 
ATOM      8  C   UNL     1      -4.113  13.577  24.513  0.00  0.00    +0.000 A 
ATOM      9  C   UNL     1      -5.298  13.659  23.788  0.00  0.00    +0.000 A 
ATOM     10  C   UNL     1      -5.352  13.242  22.444  0.00  0.00    +0.000 A 
ATOM     11  C   UNL     1      -4.204  12.761  21.771  0.00  0.00    +0.000 A 
ATOM     12  S   UNL     1      -4.480  11.928  20.134  0.00  0.00    +0.000 S 
ENDROOT
BRANCH   1  16
ATOM     13  C   UNL     1      -3.249  10.212  15.042  0.00  0.00    +0.000 A 
ATOM     14  C   UNL     1      -2.203   9.893  15.907  0.00  0.00    +0.000 A 
ATOM     15  C   UNL     1      -2.096  10.484  17.185  0.00  0.00    +0.000 A 
ATOM     16  C   UNL     1      -3.038  11.422  17.629  0.00  0.00    +0.000 A 
ATOM     17  C   UNL     1      -4.063  11.761  16.712  0.00  0.00    +0.000 A 
ATOM     18  C   UNL     1      -4.166  11.173  15.435  0.00  0.00    +0.000 A 
BRANCH  13  20
ATOM     19  C   UNL     1      -4.420   9.721  13.034  0.00  0.00    +0.000 C 
ATOM     20  O   UNL     1      -3.247   9.565  13.831  0.00  0.00    +0.000 OA
ENDBRANCH  13  20
ENDBRANCH   1  16
BRANCH   5  21
ATOM     21  C   UNL     1      -1.125  11.090  22.585  0.00  0.00    +0.000 C 
BRANCH  21  22
ATOM     22  C   UNL     1       0.083  10.507  21.826  0.00  0.00    +0.000 C 
ATOM     23  O   UNL     1       1.137  11.146  21.794  0.00  0.00    +0.000 OA
ATOM     24  N   UNL     1      -0.149   9.362  21.083  0.00  0.00    +0.000 N 
ATOM     25  H   UNL     1      -1.109   9.073  20.936  0.00  0.00    +0.000 HD
BRANCH  24  26
ATOM     26  C   UNL     1       0.828   8.738  20.283  0.00  0.00    +0.000 A 
ATOM     27  C   UNL     1       1.170   9.222  19.019  0.00  0.00    +0.000 A 
ATOM     28  C   UNL     1       2.094   8.537  18.225  0.00  0.00    +0.000 A 
ATOM     29  C   UNL     1       2.668   7.340  18.674  0.00  0.00    +0.000 A 
ATOM     30  C   UNL     1       2.347   6.879  19.960  0.00  0.00    +0.000 A 
ATOM     31  C   UNL     1       1.459   7.592  20.772  0.00  0.00    +0.000 A 
BRANCH  29  32
ATOM     32  C   UNL     1       3.593   6.537  17.791  0.00  0.00    +0.000 C 
ATOM     33  F   UNL     1       3.055   5.362  17.357  0.00  0.00    +0.000 F 
ATOM     34  F   UNL     1       3.962   7.215  16.669  0.00  0.00    +0.000 F 
ATOM     35  F   UNL     1       4.752   6.204  18.423  0.00  0.00    +0.000 F 
ENDBRANCH  29  32
ENDBRANCH  24  26
ENDBRANCH  21  22
ENDBRANCH   5  21
TORSDOF 6
ENDMDL
