MODEL 1
REMARK VINA RESULT:      -8.6      0.000      0.000
REMARK  Name = 
REMARK  12 active torsions:
REMARK  status: ('A' for Active; 'I' for Inactive)
REMARK    1  A    between atoms: C_1  and  C_2
REMARK    2  A    between atoms: C_8  and  C_9
REMARK    3  A    between atoms: C_12  and  N_13
REMARK    4  A    between atoms: C_14  and  C_16
REMARK    5  A    between atoms: C_16  and  C_17
REMARK    6  A    between atoms: C_17  and  N_18
REMARK    7  A    between atoms: N_18  and  C_19
REMARK    8  A    between atoms: C_19  and  C_20
REMARK    9  A    between atoms: C_20  and  O_21
REMARK   10  A    between atoms: C_20  and  C_22
REMARK   11  A    between atoms: C_22  and  O_23
REMARK   12  A    between atoms: O_23  and  C_24
REMARK                            x       y       z     vdW  Elec       q    Type
REMARK                         _______ _______ _______ _____ _____    ______ ____
ROOT
ATOM      1  C   UNL     1       2.263   4.976  20.679  0.00  0.00    +0.000 C 
ENDROOT
BRANCH   1   3
ATOM      2  N   UNL     1       1.403   7.289  21.051  0.00  0.00    +0.000 N 
ATOM      3  C   UNL     1       2.123   6.413  20.280  0.00  0.00    +0.000 C 
ATOM      4  O   UNL     1       2.689   6.770  19.258  0.00  0.00    +0.000 OA
ATOM      5  H   UNL     1       1.025   6.936  21.942  0.00  0.00    +0.000 HD
BRANCH   2   9
ATOM      6  C   UNL     1       0.680  11.375  20.027  0.00  0.00    +0.000 A 
ATOM      7  C   UNL     1       0.630  10.947  21.360  0.00  0.00    +0.000 A 
ATOM      8  C   UNL     1       0.847   9.628  21.704  0.00  0.00    +0.000 A 
ATOM      9  C   UNL     1       1.131   8.659  20.725  0.00  0.00    +0.000 A 
ATOM     10  C   UNL     1       1.196   9.075  19.379  0.00  0.00    +0.000 A 
ATOM     11  C   UNL     1       0.973  10.416  19.033  0.00  0.00    +0.000 A 
BRANCH   6  19
ATOM     12  C   UNL     1       2.796  13.722  20.315  0.00  0.00    +0.000 C 
ATOM     13  C   UNL     1       1.674  13.684  19.251  0.00  0.00    +0.000 C 
ATOM     14  C   UNL     1       1.307  15.144  18.888  0.00  0.00    +0.000 C 
ATOM     15  C   UNL     1      -0.158  15.413  18.776  0.00  0.00    +0.000 C 
ATOM     16  O   UNL     1      -0.530  16.504  18.373  0.00  0.00    +0.000 OA
ATOM     17  N   UNL     1      -1.074  14.501  19.180  0.00  0.00    +0.000 N 
ATOM     18  N   UNL     1      -0.722  13.259  19.654  0.00  0.00    +0.000 NA
ATOM     19  C   UNL     1       0.493  12.819  19.696  0.00  0.00    +0.000 C 
ATOM     20  H   UNL     1      -2.074  14.734  19.123  0.00  0.00    +0.000 HD
ENDBRANCH   6  19
ENDBRANCH   2   9
ENDBRANCH   1   3
BRANCH   1  21
ATOM     21  C   UNL     1       1.024   4.192  20.266  0.00  0.00    +0.000 C 
BRANCH  21  22
ATOM     22  N   UNL     1       1.343   3.285  19.160  0.00  0.00    +0.000 NA
ATOM     23  H   UNL     1       1.804   3.840  18.400  0.00  0.00    +0.000 HD
BRANCH  22  24
ATOM     24  C   UNL     1       2.263   2.249  19.630  0.00  0.00    +0.000 C 
BRANCH  24  25
ATOM     25  C   UNL     1       3.480   2.118  18.701  0.00  0.00    +0.000 C 
BRANCH  25  26
ATOM     26  O   UNL     1       3.790   0.767  18.453  0.00  0.00    +0.000 OA
ATOM     27  H   UNL     1       3.354   0.507  17.599  0.00  0.00    +0.000 HD
ENDBRANCH  25  26
BRANCH  25  28
ATOM     28  C   UNL     1       3.192   2.855  17.391  0.00  0.00    +0.000 C 
BRANCH  28  29
ATOM     29  O   UNL     1       3.589   4.168  17.477  0.00  0.00    +0.000 OA
BRANCH  29  30
ATOM     30  C   UNL     1       4.868   4.627  17.488  0.00  0.00    +0.000 A 
ATOM     31  C   UNL     1       5.407   5.010  18.731  0.00  0.00    +0.000 A 
ATOM     32  C   UNL     1       6.723   5.497  18.837  0.00  0.00    +0.000 A 
ATOM     33  C   UNL     1       7.532   5.610  17.698  0.00  0.00    +0.000 A 
ATOM     34  C   UNL     1       6.993   5.229  16.473  0.00  0.00    +0.000 A 
ATOM     35  N   UNL     1       7.613   5.266  15.283  0.00  0.00    +0.000 N 
ATOM     36  C   UNL     1       6.724   4.810  14.378  0.00  0.00    +0.000 A 
ATOM     37  C   UNL     1       5.528   4.478  14.999  0.00  0.00    +0.000 A 
ATOM     38  C   UNL     1       5.707   4.751  16.352  0.00  0.00    +0.000 A 
ATOM     39  H   UNL     1       8.588   5.586  15.089  0.00  0.00    +0.000 HD
ENDBRANCH  29  30
ENDBRANCH  28  29
ENDBRANCH  25  28
ENDBRANCH  24  25
ENDBRANCH  22  24
ENDBRANCH  21  22
ENDBRANCH   1  21
TORSDOF 11
ENDMDL
MODEL 2
REMARK VINA RESULT:      -8.1      2.822      3.339
REMARK  Name = 
REMARK  12 active torsions:
REMARK  status: ('A' for Active; 'I' for Inactive)
REMARK    1  A    between atoms: C_1  and  C_2
REMARK    2  A    between atoms: C_8  and  C_9
REMARK    3  A    between atoms: C_12  and  N_13
REMARK    4  A    between atoms: C_14  and  C_16
REMARK    5  A    between atoms: C_16  and  C_17
REMARK    6  A    between atoms: C_17  and  N_18
REMARK    7  A    between atoms: N_18  and  C_19
REMARK    8  A    between atoms: C_19  and  C_20
REMARK    9  A    between atoms: C_20  and  O_21
REMARK   10  A    between atoms: C_20  and  C_22
REMARK   11  A    between atoms: C_22  and  O_23
REMARK   12  A    between atoms: O_23  and  C_24
REMARK                            x       y       z     vdW  Elec       q    Type
REMARK                         _______ _______ _______ _____ _____    ______ ____
ROOT
ATOM      1  C   UNL     1       2.601   7.026  19.041  0.00  0.00    +0.000 C 
ENDROOT
BRANCH   1   3
ATOM      2  N   UNL     1       1.510   8.378  20.833  0.00  0.00    +0.000 N 
ATOM      3  C   UNL     1       1.848   8.232  19.512  0.00  0.00    +0.000 C 
ATOM      4  O   UNL     1       1.570   9.082  18.679  0.00  0.00    +0.000 OA
ATOM      5  H   UNL     1       1.853   7.663  21.491  0.00  0.00    +0.000 HD
BRANCH   2   9
ATOM      6  C   UNL     1      -0.761  11.605  22.474  0.00  0.00    +0.000 A 
ATOM      7  C   UNL     1      -0.847  10.316  23.016  0.00  0.00    +0.000 A 
ATOM      8  C   UNL     1      -0.131   9.261  22.486  0.00  0.00    +0.000 A 
ATOM      9  C   UNL     1       0.720   9.442  21.380  0.00  0.00    +0.000 A 
ATOM     10  C   UNL     1       0.827  10.736  20.831  0.00  0.00    +0.000 A 
ATOM     11  C   UNL     1       0.097  11.805  21.370  0.00  0.00    +0.000 A 
BRANCH   6  19
ATOM     12  C   UNL     1      -3.764  12.482  21.943  0.00  0.00    +0.000 C 
ATOM     13  C   UNL     1      -3.026  12.667  23.289  0.00  0.00    +0.000 C 
ATOM     14  C   UNL     1      -3.645  13.889  24.013  0.00  0.00    +0.000 C 
ATOM     15  C   UNL     1      -2.654  14.811  24.644  0.00  0.00    +0.000 C 
ATOM     16  O   UNL     1      -3.060  15.730  25.339  0.00  0.00    +0.000 OA
ATOM     17  N   UNL     1      -1.327  14.691  24.402  0.00  0.00    +0.000 N 
ATOM     18  N   UNL     1      -0.805  13.687  23.621  0.00  0.00    +0.000 NA
ATOM     19  C   UNL     1      -1.508  12.733  23.105  0.00  0.00    +0.000 C 
ATOM     20  H   UNL     1      -0.677  15.367  24.825  0.00  0.00    +0.000 HD
ENDBRANCH   6  19
ENDBRANCH   2   9
ENDBRANCH   1   3
BRANCH   1  21
ATOM     21  C   UNL     1       1.739   6.206  18.090  0.00  0.00    +0.000 C 
BRANCH  21  22
ATOM     22  N   UNL     1       2.405   4.941  17.765  0.00  0.00    +0.000 NA
ATOM     23  H   UNL     1       3.311   4.901  18.288  0.00  0.00    +0.000 HD
BRANCH  22  24
ATOM     24  C   UNL     1       1.556   3.824  18.181  0.00  0.00    +0.000 C 
BRANCH  24  25
ATOM     25  C   UNL     1       2.386   2.693  18.807  0.00  0.00    +0.000 C 
BRANCH  25  26
ATOM     26  O   UNL     1       2.660   1.681  17.868  0.00  0.00    +0.000 OA
ATOM     27  H   UNL     1       3.482   1.208  18.162  0.00  0.00    +0.000 HD
ENDBRANCH  25  26
BRANCH  25  28
ATOM     28  C   UNL     1       3.685   3.276  19.368  0.00  0.00    +0.000 C 
BRANCH  28  29
ATOM     29  O   UNL     1       4.697   3.179  18.444  0.00  0.00    +0.000 OA
BRANCH  29  30
ATOM     30  C   UNL     1       5.586   4.152  18.112  0.00  0.00    +0.000 A 
ATOM     31  C   UNL     1       6.042   4.991  19.146  0.00  0.00    +0.000 A 
ATOM     32  C   UNL     1       6.963   6.025  18.894  0.00  0.00    +0.000 A 
ATOM     33  C   UNL     1       7.450   6.242  17.597  0.00  0.00    +0.000 A 
ATOM     34  C   UNL     1       6.995   5.408  16.580  0.00  0.00    +0.000 A 
ATOM     35  N   UNL     1       7.347   5.463  15.286  0.00  0.00    +0.000 N 
ATOM     36  C   UNL     1       6.670   4.478  14.666  0.00  0.00    +0.000 A 
ATOM     37  C   UNL     1       5.880   3.787  15.575  0.00  0.00    +0.000 A 
ATOM     38  C   UNL     1       6.094   4.392  16.809  0.00  0.00    +0.000 A 
ATOM     39  H   UNL     1       8.011   6.136  14.842  0.00  0.00    +0.000 HD
ENDBRANCH  29  30
ENDBRANCH  28  29
ENDBRANCH  25  28
ENDBRANCH  24  25
ENDBRANCH  22  24
ENDBRANCH  21  22
ENDBRANCH   1  21
TORSDOF 11
ENDMDL
MODEL 3
REMARK VINA RESULT:      -8.1      2.746      3.542
REMARK  Name = 
REMARK  12 active torsions:
REMARK  status: ('A' for Active; 'I' for Inactive)
REMARK    1  A    between atoms: C_1  and  C_2
REMARK    2  A    between atoms: C_8  and  C_9
REMARK    3  A    between atoms: C_12  and  N_13
REMARK    4  A    between atoms: C_14  and  C_16
REMARK    5  A    between atoms: C_16  and  C_17
REMARK    6  A    between atoms: C_17  and  N_18
REMARK    7  A    between atoms: N_18  and  C_19
REMARK    8  A    between atoms: C_19  and  C_20
REMARK    9  A    between atoms: C_20  and  O_21
REMARK   10  A    between atoms: C_20  and  C_22
REMARK   11  A    between atoms: C_22  and  O_23
REMARK   12  A    between atoms: O_23  and  C_24
REMARK                            x       y       z     vdW  Elec       q    Type
REMARK                         _______ _______ _______ _____ _____    ______ ____
ROOT
ATOM      1  C   UNL     1       2.461   6.507  19.899  0.00  0.00    +0.000 C 
ENDROOT
BRANCH   1   3
ATOM      2  N   UNL     1       1.515   8.183  21.487  0.00  0.00    +0.000 N 
ATOM      3  C   UNL     1       1.768   7.801  20.195  0.00  0.00    +0.000 C 
ATOM      4  O   UNL     1       1.461   8.504  19.244  0.00  0.00    +0.000 OA
ATOM      5  H   UNL     1       1.879   7.581  22.239  0.00  0.00    +0.000 HD
BRANCH   2   9
ATOM      6  C   UNL     1      -0.746  11.615  22.659  0.00  0.00    +0.000 A 
ATOM      7  C   UNL     1       0.197  11.693  21.626  0.00  0.00    +0.000 A 
ATOM      8  C   UNL     1       0.945  10.597  21.247  0.00  0.00    +0.000 A 
ATOM      9  C   UNL     1       0.786   9.352  21.884  0.00  0.00    +0.000 A 
ATOM     10  C   UNL     1      -0.168   9.254  22.918  0.00  0.00    +0.000 A 
ATOM     11  C   UNL     1      -0.925  10.371  23.302  0.00  0.00    +0.000 A 
BRANCH   6  19
ATOM     12  C   UNL     1      -3.326  12.691  21.156  0.00  0.00    +0.000 C 
ATOM     13  C   UNL     1      -3.068  12.853  22.673  0.00  0.00    +0.000 C 
ATOM     14  C   UNL     1      -3.801  14.131  23.151  0.00  0.00    +0.000 C 
ATOM     15  C   UNL     1      -3.012  14.994  24.081  0.00  0.00    +0.000 C 
ATOM     16  O   UNL     1      -3.558  15.954  24.602  0.00  0.00    +0.000 OA
ATOM     17  N   UNL     1      -1.693  14.775  24.296  0.00  0.00    +0.000 N 
ATOM     18  N   UNL     1      -1.016  13.720  23.732  0.00  0.00    +0.000 NA
ATOM     19  C   UNL     1      -1.576  12.807  23.007  0.00  0.00    +0.000 C 
ATOM     20  H   UNL     1      -1.173  15.412  24.915  0.00  0.00    +0.000 HD
ENDBRANCH   6  19
ENDBRANCH   2   9
ENDBRANCH   1   3
BRANCH   1  21
ATOM     21  C   UNL     1       2.473   6.247  18.399  0.00  0.00    +0.000 C 
BRANCH  21  22
ATOM     22  N   UNL     1       2.039   4.875  18.117  0.00  0.00    +0.000 NA
ATOM     23  H   UNL     1       2.646   4.486  17.357  0.00  0.00    +0.000 HD
BRANCH  22  24
ATOM     24  C   UNL     1       2.190   4.060  19.322  0.00  0.00    +0.000 C 
BRANCH  24  25
ATOM     25  C   UNL     1       2.656   2.636  18.982  0.00  0.00    +0.000 C 
BRANCH  25  26
ATOM     26  O   UNL     1       1.561   1.772  18.794  0.00  0.00    +0.000 OA
ATOM     27  H   UNL     1       0.847   2.044  19.428  0.00  0.00    +0.000 HD
ENDBRANCH  25  26
BRANCH  25  28
ATOM     28  C   UNL     1       3.529   2.683  17.725  0.00  0.00    +0.000 C 
BRANCH  28  29
ATOM     29  O   UNL     1       4.642   3.460  17.938  0.00  0.00    +0.000 OA
BRANCH  29  30
ATOM     30  C   UNL     1       5.424   4.033  16.985  0.00  0.00    +0.000 A 
ATOM     31  C   UNL     1       5.401   3.459  15.700  0.00  0.00    +0.000 A 
ATOM     32  C   UNL     1       6.179   3.986  14.652  0.00  0.00    +0.000 A 
ATOM     33  C   UNL     1       6.998   5.103  14.868  0.00  0.00    +0.000 A 
ATOM     34  C   UNL     1       7.014   5.665  16.140  0.00  0.00    +0.000 A 
ATOM     35  N   UNL     1       7.731   6.730  16.533  0.00  0.00    +0.000 N 
ATOM     36  C   UNL     1       7.444   6.922  17.835  0.00  0.00    +0.000 A 
ATOM     37  C   UNL     1       6.534   5.971  18.276  0.00  0.00    +0.000 A 
ATOM     38  C   UNL     1       6.260   5.162  17.177  0.00  0.00    +0.000 A 
ATOM     39  H   UNL     1       8.386   7.298  15.950  0.00  0.00    +0.000 HD
ENDBRANCH  29  30
ENDBRANCH  28  29
ENDBRANCH  25  28
ENDBRANCH  24  25
ENDBRANCH  22  24
ENDBRANCH  21  22
ENDBRANCH   1  21
TORSDOF 11
ENDMDL
MODEL 4
REMARK VINA RESULT:      -8.1      5.039      7.152
REMARK  Name = 
REMARK  12 active torsions:
REMARK  status: ('A' for Active; 'I' for Inactive)
REMARK    1  A    between atoms: C_1  and  C_2
REMARK    2  A    between atoms: C_8  and  C_9
REMARK    3  A    between atoms: C_12  and  N_13
REMARK    4  A    between atoms: C_14  and  C_16
REMARK    5  A    between atoms: C_16  and  C_17
REMARK    6  A    between atoms: C_17  and  N_18
REMARK    7  A    between atoms: N_18  and  C_19
REMARK    8  A    between atoms: C_19  and  C_20
REMARK    9  A    between atoms: C_20  and  O_21
REMARK   10  A    between atoms: C_20  and  C_22
REMARK   11  A    between atoms: C_22  and  O_23
REMARK   12  A    between atoms: O_23  and  C_24
REMARK                            x       y       z     vdW  Elec       q    Type
REMARK                         _______ _______ _______ _____ _____    ______ ____
ROOT
ATOM      1  C   UNL     1       8.251   6.447  18.930  0.00  0.00    +0.000 C 
ENDROOT
BRANCH   1   3
ATOM      2  N   UNL     1       9.013   8.803  19.244  0.00  0.00    +0.000 N 
ATOM      3  C   UNL     1       8.263   7.894  18.543  0.00  0.00    +0.000 C 
ATOM      4  O   UNL     1       7.599   8.221  17.571  0.00  0.00    +0.000 OA
ATOM      5  H   UNL     1       9.614   8.440  19.998  0.00  0.00    +0.000 HD
BRANCH   2   9
ATOM      6  C   UNL     1       9.007  13.035  18.650  0.00  0.00    +0.000 A 
ATOM      7  C   UNL     1       8.758  12.158  17.585  0.00  0.00    +0.000 A 
ATOM      8  C   UNL     1       8.772  10.790  17.760  0.00  0.00    +0.000 A 
ATOM      9  C   UNL     1       9.034  10.219  19.019  0.00  0.00    +0.000 A 
ATOM     10  C   UNL     1       9.275  11.088  20.103  0.00  0.00    +0.000 A 
ATOM     11  C   UNL     1       9.262  12.479  19.922  0.00  0.00    +0.000 A 
BRANCH   6  19
ATOM     12  C   UNL     1       6.420  14.788  18.097  0.00  0.00    +0.000 C 
ATOM     13  C   UNL     1       7.682  15.301  18.830  0.00  0.00    +0.000 C 
ATOM     14  C   UNL     1       7.782  16.829  18.601  0.00  0.00    +0.000 C 
ATOM     15  C   UNL     1       9.154  17.327  18.283  0.00  0.00    +0.000 C 
ATOM     16  O   UNL     1       9.344  18.531  18.210  0.00  0.00    +0.000 OA
ATOM     17  N   UNL     1      10.165  16.471  18.002  0.00  0.00    +0.000 N 
ATOM     18  N   UNL     1      10.015  15.105  18.055  0.00  0.00    +0.000 NA
ATOM     19  C   UNL     1       8.932  14.511  18.437  0.00  0.00    +0.000 C 
ATOM     20  H   UNL     1      11.088  16.850  17.751  0.00  0.00    +0.000 HD
ENDBRANCH   6  19
ENDBRANCH   2   9
ENDBRANCH   1   3
BRANCH   1  21
ATOM     21  C   UNL     1       6.922   5.811  18.545  0.00  0.00    +0.000 C 
BRANCH  21  22
ATOM     22  N   UNL     1       7.132   4.435  18.085  0.00  0.00    +0.000 NA
ATOM     23  H   UNL     1       6.399   3.826  18.520  0.00  0.00    +0.000 HD
BRANCH  22  24
ATOM     24  C   UNL     1       7.003   4.383  16.629  0.00  0.00    +0.000 C 
BRANCH  24  25
ATOM     25  C   UNL     1       5.802   5.210  16.144  0.00  0.00    +0.000 C 
BRANCH  25  26
ATOM     26  O   UNL     1       6.055   5.787  14.885  0.00  0.00    +0.000 OA
ATOM     27  H   UNL     1       7.018   5.662  14.681  0.00  0.00    +0.000 HD
ENDBRANCH  25  26
BRANCH  25  28
ATOM     28  C   UNL     1       4.565   4.309  16.086  0.00  0.00    +0.000 C 
BRANCH  28  29
ATOM     29  O   UNL     1       4.441   3.584  17.246  0.00  0.00    +0.000 OA
BRANCH  29  30
ATOM     30  C   UNL     1       3.332   3.490  18.027  0.00  0.00    +0.000 A 
ATOM     31  C   UNL     1       2.602   2.288  17.971  0.00  0.00    +0.000 A 
ATOM     32  C   UNL     1       1.442   2.103  18.745  0.00  0.00    +0.000 A 
ATOM     33  C   UNL     1       0.985   3.120  19.595  0.00  0.00    +0.000 A 
ATOM     34  C   UNL     1       1.712   4.305  19.645  0.00  0.00    +0.000 A 
ATOM     35  N   UNL     1       1.431   5.382  20.396  0.00  0.00    +0.000 N 
ATOM     36  C   UNL     1       2.390   6.290  20.131  0.00  0.00    +0.000 A 
ATOM     37  C   UNL     1       3.293   5.785  19.205  0.00  0.00    +0.000 A 
ATOM     38  C   UNL     1       2.850   4.503  18.895  0.00  0.00    +0.000 A 
ATOM     39  H   UNL     1       0.628   5.501  21.052  0.00  0.00    +0.000 HD
ENDBRANCH  29  30
ENDBRANCH  28  29
ENDBRANCH  25  28
ENDBRANCH  24  25
ENDBRANCH  22  24
ENDBRANCH  21  22
ENDBRANCH   1  21
TORSDOF 11
ENDMDL
MODEL 5
REMARK VINA RESULT:      -8.1      1.732      2.491
REMARK  Name = 
REMARK  12 active torsions:
REMARK  status: ('A' for Active; 'I' for Inactive)
REMARK    1  A    between atoms: C_1  and  C_2
REMARK    2  A    between atoms: C_8  and  C_9
REMARK    3  A    between atoms: C_12  and  N_13
REMARK    4  A    between atoms: C_14  and  C_16
REMARK    5  A    between atoms: C_16  and  C_17
REMARK    6  A    between atoms: C_17  and  N_18
REMARK    7  A    between atoms: N_18  and  C_19
REMARK    8  A    between atoms: C_19  and  C_20
REMARK    9  A    between atoms: C_20  and  O_21
REMARK   10  A    between atoms: C_20  and  C_22
REMARK   11  A    between atoms: C_22  and  O_23
REMARK   12  A    between atoms: O_23  and  C_24
REMARK                            x       y       z     vdW  Elec       q    Type
REMARK                         _______ _______ _______ _____ _____    ______ ____
ROOT
ATOM      1  C   UNL     1       2.728   2.728  20.979  0.00  0.00    +0.000 C 
ENDROOT
BRANCH   1   3
ATOM      2  N   UNL     1       2.825   5.162  20.432  0.00  0.00    +0.000 N 
ATOM      3  C   UNL     1       2.073   4.047  20.703  0.00  0.00    +0.000 C 
ATOM      4  O   UNL     1       0.853   4.080  20.709  0.00  0.00    +0.000 OA
ATOM      5  H   UNL     1       3.845   5.039  20.359  0.00  0.00    +0.000 HD
BRANCH   2   9
ATOM      6  C   UNL     1       1.206   9.078  19.885  0.00  0.00    +0.000 A 
ATOM      7  C   UNL     1       1.943   8.456  18.869  0.00  0.00    +0.000 A 
ATOM      8  C   UNL     1       2.484   7.198  19.037  0.00  0.00    +0.000 A 
ATOM      9  C   UNL     1       2.313   6.487  20.239  0.00  0.00    +0.000 A 
ATOM     10  C   UNL     1       1.564   7.094  21.268  0.00  0.00    +0.000 A 
ATOM     11  C   UNL     1       1.017   8.375  21.094  0.00  0.00    +0.000 A 
BRANCH   6  19
ATOM     12  C   UNL     1      -0.461  10.837  21.935  0.00  0.00    +0.000 C 
ATOM     13  C   UNL     1       0.411  11.416  20.796  0.00  0.00    +0.000 C 
ATOM     14  C   UNL     1      -0.188  12.782  20.379  0.00  0.00    +0.000 C 
ATOM     15  C   UNL     1      -0.256  13.012  18.905  0.00  0.00    +0.000 C 
ATOM     16  O   UNL     1      -0.600  14.110  18.493  0.00  0.00    +0.000 OA
ATOM     17  N   UNL     1      -0.019  12.011  18.024  0.00  0.00    +0.000 N 
ATOM     18  N   UNL     1       0.360  10.750  18.421  0.00  0.00    +0.000 NA
ATOM     19  C   UNL     1       0.590  10.418  19.649  0.00  0.00    +0.000 C 
ATOM     20  H   UNL     1      -0.111  12.197  17.016  0.00  0.00    +0.000 HD
ENDBRANCH   6  19
ENDBRANCH   2   9
ENDBRANCH   1   3
BRANCH   1  21
ATOM     21  C   UNL     1       4.195   2.774  20.572  0.00  0.00    +0.000 C 
BRANCH  21  22
ATOM     22  N   UNL     1       4.340   2.427  19.155  0.00  0.00    +0.000 NA
ATOM     23  H   UNL     1       5.258   1.939  19.028  0.00  0.00    +0.000 HD
BRANCH  22  24
ATOM     24  C   UNL     1       3.256   1.528  18.761  0.00  0.00    +0.000 C 
BRANCH  24  25
ATOM     25  C   UNL     1       2.422   2.122  17.615  0.00  0.00    +0.000 C 
BRANCH  25  26
ATOM     26  O   UNL     1       1.044   2.037  17.889  0.00  0.00    +0.000 OA
ATOM     27  H   UNL     1       0.830   1.086  18.078  0.00  0.00    +0.000 HD
ENDBRANCH  25  26
BRANCH  25  28
ATOM     28  C   UNL     1       2.840   3.579  17.396  0.00  0.00    +0.000 C 
BRANCH  28  29
ATOM     29  O   UNL     1       3.838   3.658  16.454  0.00  0.00    +0.000 OA
BRANCH  29  30
ATOM     30  C   UNL     1       4.940   4.451  16.508  0.00  0.00    +0.000 A 
ATOM     31  C   UNL     1       5.172   5.154  17.705  0.00  0.00    +0.000 A 
ATOM     32  C   UNL     1       6.289   5.998  17.850  0.00  0.00    +0.000 A 
ATOM     33  C   UNL     1       7.201   6.157  16.797  0.00  0.00    +0.000 A 
ATOM     34  C   UNL     1       6.965   5.459  15.617  0.00  0.00    +0.000 A 
ATOM     35  N   UNL     1       7.723   5.485  14.509  0.00  0.00    +0.000 N 
ATOM     36  C   UNL     1       7.124   4.668  13.621  0.00  0.00    +0.000 A 
ATOM     37  C   UNL     1       5.975   4.115  14.169  0.00  0.00    +0.000 A 
ATOM     38  C   UNL     1       5.877   4.629  15.459  0.00  0.00    +0.000 A 
ATOM     39  H   UNL     1       8.600   6.031  14.359  0.00  0.00    +0.000 HD
ENDBRANCH  29  30
ENDBRANCH  28  29
ENDBRANCH  25  28
ENDBRANCH  24  25
ENDBRANCH  22  24
ENDBRANCH  21  22
ENDBRANCH   1  21
TORSDOF 11
ENDMDL
MODEL 6
REMARK VINA RESULT:      -8.1      2.230      2.473
REMARK  Name = 
REMARK  12 active torsions:
REMARK  status: ('A' for Active; 'I' for Inactive)
REMARK    1  A    between atoms: C_1  and  C_2
REMARK    2  A    between atoms: C_8  and  C_9
REMARK    3  A    between atoms: C_12  and  N_13
REMARK    4  A    between atoms: C_14  and  C_16
REMARK    5  A    between atoms: C_16  and  C_17
REMARK    6  A    between atoms: C_17  and  N_18
REMARK    7  A    between atoms: N_18  and  C_19
REMARK    8  A    between atoms: C_19  and  C_20
REMARK    9  A    between atoms: C_20  and  O_21
REMARK   10  A    between atoms: C_20  and  C_22
REMARK   11  A    between atoms: C_22  and  O_23
REMARK   12  A    between atoms: O_23  and  C_24
REMARK                            x       y       z     vdW  Elec       q    Type
REMARK                         _______ _______ _______ _____ _____    ______ ____
ROOT
ATOM      1  C   UNL     1       2.859   6.233  19.998  0.00  0.00    +0.000 C 
ENDROOT
BRANCH   1   3
ATOM      2  N   UNL     1       1.499   7.852  21.324  0.00  0.00    +0.000 N 
ATOM      3  C   UNL     1       2.039   7.480  20.120  0.00  0.00    +0.000 C 
ATOM      4  O   UNL     1       1.893   8.157  19.113  0.00  0.00    +0.000 OA
ATOM      5  H   UNL     1       1.736   7.278  22.147  0.00  0.00    +0.000 HD
BRANCH   2   9
ATOM      6  C   UNL     1      -1.020  11.252  21.918  0.00  0.00    +0.000 A 
ATOM      7  C   UNL     1      -0.631  10.448  22.997  0.00  0.00    +0.000 A 
ATOM      8  C   UNL     1       0.170   9.338  22.818  0.00  0.00    +0.000 A 
ATOM      9  C   UNL     1       0.631   8.973  21.540  0.00  0.00    +0.000 A 
ATOM     10  C   UNL     1       0.258   9.778  20.445  0.00  0.00    +0.000 A 
ATOM     11  C   UNL     1      -0.558  10.905  20.631  0.00  0.00    +0.000 A 
BRANCH   6  19
ATOM     12  C   UNL     1      -0.007  14.242  22.241  0.00  0.00    +0.000 C 
ATOM     13  C   UNL     1      -1.382  13.845  21.653  0.00  0.00    +0.000 C 
ATOM     14  C   UNL     1      -2.373  15.003  21.925  0.00  0.00    +0.000 C 
ATOM     15  C   UNL     1      -3.725  14.574  22.394  0.00  0.00    +0.000 C 
ATOM     16  O   UNL     1      -4.604  15.413  22.513  0.00  0.00    +0.000 OA
ATOM     17  N   UNL     1      -3.969  13.293  22.758  0.00  0.00    +0.000 N 
ATOM     18  N   UNL     1      -3.021  12.301  22.659  0.00  0.00    +0.000 NA
ATOM     19  C   UNL     1      -1.844  12.475  22.155  0.00  0.00    +0.000 C 
ATOM     20  H   UNL     1      -4.902  13.040  23.110  0.00  0.00    +0.000 HD
ENDBRANCH   6  19
ENDBRANCH   2   9
ENDBRANCH   1   3
BRANCH   1  21
ATOM     21  C   UNL     1       2.198   5.093  20.763  0.00  0.00    +0.000 C 
BRANCH  21  22
ATOM     22  N   UNL     1       1.162   4.463  19.940  0.00  0.00    +0.000 NA
ATOM     23  H   UNL     1       0.543   5.216  19.556  0.00  0.00    +0.000 HD
BRANCH  22  24
ATOM     24  C   UNL     1       1.791   3.742  18.833  0.00  0.00    +0.000 C 
BRANCH  24  25
ATOM     25  C   UNL     1       2.456   2.444  19.315  0.00  0.00    +0.000 C 
BRANCH  25  26
ATOM     26  O   UNL     1       1.874   1.316  18.707  0.00  0.00    +0.000 OA
ATOM     27  H   UNL     1       0.922   1.529  18.519  0.00  0.00    +0.000 HD
ENDBRANCH  25  26
BRANCH  25  28
ATOM     28  C   UNL     1       3.955   2.507  19.014  0.00  0.00    +0.000 C 
BRANCH  28  29
ATOM     29  O   UNL     1       4.199   3.343  17.951  0.00  0.00    +0.000 OA
BRANCH  29  30
ATOM     30  C   UNL     1       5.266   4.171  17.802  0.00  0.00    +0.000 A 
ATOM     31  C   UNL     1       5.756   4.808  18.958  0.00  0.00    +0.000 A 
ATOM     32  C   UNL     1       6.858   5.683  18.897  0.00  0.00    +0.000 A 
ATOM     33  C   UNL     1       7.495   5.939  17.675  0.00  0.00    +0.000 A 
ATOM     34  C   UNL     1       7.005   5.305  16.537  0.00  0.00    +0.000 A 
ATOM     35  N   UNL     1       7.482   5.426  15.288  0.00  0.00    +0.000 N 
ATOM     36  C   UNL     1       6.711   4.643  14.509  0.00  0.00    +0.000 A 
ATOM     37  C   UNL     1       5.734   4.016  15.270  0.00  0.00    +0.000 A 
ATOM     38  C   UNL     1       5.929   4.447  16.578  0.00  0.00    +0.000 A 
ATOM     39  H   UNL     1       8.289   6.012  14.976  0.00  0.00    +0.000 HD
ENDBRANCH  29  30
ENDBRANCH  28  29
ENDBRANCH  25  28
ENDBRANCH  24  25
ENDBRANCH  22  24
ENDBRANCH  21  22
ENDBRANCH   1  21
TORSDOF 11
ENDMDL
MODEL 7
REMARK VINA RESULT:      -8.0      2.881      3.608
REMARK  Name = 
REMARK  12 active torsions:
REMARK  status: ('A' for Active; 'I' for Inactive)
REMARK    1  A    between atoms: C_1  and  C_2
REMARK    2  A    between atoms: C_8  and  C_9
REMARK    3  A    between atoms: C_12  and  N_13
REMARK    4  A    between atoms: C_14  and  C_16
REMARK    5  A    between atoms: C_16  and  C_17
REMARK    6  A    between atoms: C_17  and  N_18
REMARK    7  A    between atoms: N_18  and  C_19
REMARK    8  A    between atoms: C_19  and  C_20
REMARK    9  A    between atoms: C_20  and  O_21
REMARK   10  A    between atoms: C_20  and  C_22
REMARK   11  A    between atoms: C_22  and  O_23
REMARK   12  A    between atoms: O_23  and  C_24
REMARK                            x       y       z     vdW  Elec       q    Type
REMARK                         _______ _______ _______ _____ _____    ______ ____
ROOT
ATOM      1  C   UNL     1       2.343   8.051  17.694  0.00  0.00    +0.000 C 
ENDROOT
BRANCH   1   3
ATOM      2  N   UNL     1       1.147   8.959  19.688  0.00  0.00    +0.000 N 
ATOM      3  C   UNL     1       1.827   9.190  18.520  0.00  0.00    +0.000 C 
ATOM      4  O   UNL     1       2.054  10.321  18.120  0.00  0.00    +0.000 OA
ATOM      5  H   UNL     1       1.068   7.982  20.005  0.00  0.00    +0.000 HD
BRANCH   2   9
ATOM      6  C   UNL     1      -0.751  11.882  22.161  0.00  0.00    +0.000 A 
ATOM      7  C   UNL     1      -0.419  12.171  20.831  0.00  0.00    +0.000 A 
ATOM      8  C   UNL     1       0.208  11.241  20.026  0.00  0.00    +0.000 A 
ATOM      9  C   UNL     1       0.536   9.962  20.510  0.00  0.00    +0.000 A 
ATOM     10  C   UNL     1       0.197   9.651  21.843  0.00  0.00    +0.000 A 
ATOM     11  C   UNL     1      -0.439  10.599  22.659  0.00  0.00    +0.000 A 
BRANCH   6  19
ATOM     12  C   UNL     1      -3.845  12.586  22.093  0.00  0.00    +0.000 C 
ATOM     13  C   UNL     1      -2.951  12.701  23.350  0.00  0.00    +0.000 C 
ATOM     14  C   UNL     1      -3.543  13.805  24.261  0.00  0.00    +0.000 C 
ATOM     15  C   UNL     1      -2.535  14.735  24.854  0.00  0.00    +0.000 C 
ATOM     16  O   UNL     1      -2.902  15.555  25.680  0.00  0.00    +0.000 OA
ATOM     17  N   UNL     1      -1.246  14.733  24.440  0.00  0.00    +0.000 N 
ATOM     18  N   UNL     1      -0.770  13.843  23.505  0.00  0.00    +0.000 NA
ATOM     19  C   UNL     1      -1.477  12.892  22.987  0.00  0.00    +0.000 C 
ATOM     20  H   UNL     1      -0.588  15.412  24.844  0.00  0.00    +0.000 HD
ENDBRANCH   6  19
ENDBRANCH   2   9
ENDBRANCH   1   3
BRANCH   1  21
ATOM     21  C   UNL     1       2.799   6.912  18.597  0.00  0.00    +0.000 C 
BRANCH  21  22
ATOM     22  N   UNL     1       1.673   6.023  18.898  0.00  0.00    +0.000 NA
ATOM     23  H   UNL     1       1.224   5.741  17.995  0.00  0.00    +0.000 HD
BRANCH  22  24
ATOM     24  C   UNL     1       2.167   4.829  19.586  0.00  0.00    +0.000 C 
BRANCH  24  25
ATOM     25  C   UNL     1       2.020   3.576  18.709  0.00  0.00    +0.000 C 
BRANCH  25  26
ATOM     26  O   UNL     1       1.561   3.906  17.420  0.00  0.00    +0.000 OA
ATOM     27  H   UNL     1       0.694   4.380  17.517  0.00  0.00    +0.000 HD
ENDBRANCH  25  26
BRANCH  25  28
ATOM     28  C   UNL     1       3.369   2.856  18.635  0.00  0.00    +0.000 C 
BRANCH  28  29
ATOM     29  O   UNL     1       4.071   3.260  17.525  0.00  0.00    +0.000 OA
BRANCH  29  30
ATOM     30  C   UNL     1       5.161   4.072  17.508  0.00  0.00    +0.000 A 
ATOM     31  C   UNL     1       5.600   4.590  18.741  0.00  0.00    +0.000 A 
ATOM     32  C   UNL     1       6.720   5.438  18.819  0.00  0.00    +0.000 A 
ATOM     33  C   UNL     1       7.428   5.787  17.660  0.00  0.00    +0.000 A 
ATOM     34  C   UNL     1       6.989   5.271  16.446  0.00  0.00    +0.000 A 
ATOM     35  N   UNL     1       7.536   5.491  15.240  0.00  0.00    +0.000 N 
ATOM     36  C   UNL     1       6.793   4.801  14.353  0.00  0.00    +0.000 A 
ATOM     37  C   UNL     1       5.764   4.132  15.001  0.00  0.00    +0.000 A 
ATOM     38  C   UNL     1       5.895   4.439  16.352  0.00  0.00    +0.000 A 
ATOM     39  H   UNL     1       8.370   6.083  15.025  0.00  0.00    +0.000 HD
ENDBRANCH  29  30
ENDBRANCH  28  29
ENDBRANCH  25  28
ENDBRANCH  24  25
ENDBRANCH  22  24
ENDBRANCH  21  22
ENDBRANCH   1  21
TORSDOF 11
ENDMDL
MODEL 8
REMARK VINA RESULT:      -8.0      2.710      3.502
REMARK  Name = 
REMARK  12 active torsions:
REMARK  status: ('A' for Active; 'I' for Inactive)
REMARK    1  A    between atoms: C_1  and  C_2
REMARK    2  A    between atoms: C_8  and  C_9
REMARK    3  A    between atoms: C_12  and  N_13
REMARK    4  A    between atoms: C_14  and  C_16
REMARK    5  A    between atoms: C_16  and  C_17
REMARK    6  A    between atoms: C_17  and  N_18
REMARK    7  A    between atoms: N_18  and  C_19
REMARK    8  A    between atoms: C_19  and  C_20
REMARK    9  A    between atoms: C_20  and  O_21
REMARK   10  A    between atoms: C_20  and  C_22
REMARK   11  A    between atoms: C_22  and  O_23
REMARK   12  A    between atoms: O_23  and  C_24
REMARK                            x       y       z     vdW  Elec       q    Type
REMARK                         _______ _______ _______ _____ _____    ______ ____
ROOT
ATOM      1  C   UNL     1       2.958   7.159  17.893  0.00  0.00    +0.000 C 
ENDROOT
BRANCH   1   3
ATOM      2  N   UNL     1       1.862   8.385  19.771  0.00  0.00    +0.000 N 
ATOM      3  C   UNL     1       2.214   8.336  18.446  0.00  0.00    +0.000 C 
ATOM      4  O   UNL     1       1.955   9.249  17.677  0.00  0.00    +0.000 OA
ATOM      5  H   UNL     1       2.189   7.618  20.376  0.00  0.00    +0.000 HD
BRANCH   2   9
ATOM      6  C   UNL     1      -0.561  11.396  21.594  0.00  0.00    +0.000 A 
ATOM      7  C   UNL     1       0.320  11.714  20.552  0.00  0.00    +0.000 A 
ATOM      8  C   UNL     1       1.119  10.755  19.964  0.00  0.00    +0.000 A 
ATOM      9  C   UNL     1       1.077   9.414  20.388  0.00  0.00    +0.000 A 
ATOM     10  C   UNL     1       0.188   9.075  21.428  0.00  0.00    +0.000 A 
ATOM     11  C   UNL     1      -0.622  10.053  22.024  0.00  0.00    +0.000 A 
BRANCH   6  19
ATOM     12  C   UNL     1      -3.220  12.594  20.341  0.00  0.00    +0.000 C 
ATOM     13  C   UNL     1      -2.948  12.472  21.859  0.00  0.00    +0.000 C 
ATOM     14  C   UNL     1      -3.742  13.589  22.580  0.00  0.00    +0.000 C 
ATOM     15  C   UNL     1      -2.988  14.299  23.656  0.00  0.00    +0.000 C 
ATOM     16  O   UNL     1      -3.578  15.108  24.357  0.00  0.00    +0.000 OA
ATOM     17  N   UNL     1      -1.656  14.119  23.819  0.00  0.00    +0.000 N 
ATOM     18  N   UNL     1      -0.930  13.234  23.057  0.00  0.00    +0.000 NA
ATOM     19  C   UNL     1      -1.450  12.449  22.171  0.00  0.00    +0.000 C 
ATOM     20  H   UNL     1      -1.163  14.652  24.547  0.00  0.00    +0.000 HD
ENDBRANCH   6  19
ENDBRANCH   2   9
ENDBRANCH   1   3
BRANCH   1  21
ATOM     21  C   UNL     1       2.157   5.882  18.107  0.00  0.00    +0.000 C 
BRANCH  21  22
ATOM     22  N   UNL     1       2.183   5.497  19.522  0.00  0.00    +0.000 NA
ATOM     23  H   UNL     1       1.369   5.950  20.001  0.00  0.00    +0.000 HD
BRANCH  22  24
ATOM     24  C   UNL     1       2.064   4.044  19.633  0.00  0.00    +0.000 C 
BRANCH  24  25
ATOM     25  C   UNL     1       3.172   3.456  20.520  0.00  0.00    +0.000 C 
BRANCH  25  26
ATOM     26  O   UNL     1       2.644   2.570  21.477  0.00  0.00    +0.000 OA
ATOM     27  H   UNL     1       2.574   1.674  21.056  0.00  0.00    +0.000 HD
ENDBRANCH  25  26
BRANCH  25  28
ATOM     28  C   UNL     1       4.198   2.745  19.634  0.00  0.00    +0.000 C 
BRANCH  28  29
ATOM     29  O   UNL     1       5.260   3.574  19.363  0.00  0.00    +0.000 OA
BRANCH  29  30
ATOM     30  C   UNL     1       5.511   4.210  18.189  0.00  0.00    +0.000 A 
ATOM     31  C   UNL     1       4.814   3.763  17.050  0.00  0.00    +0.000 A 
ATOM     32  C   UNL     1       5.011   4.364  15.793  0.00  0.00    +0.000 A 
ATOM     33  C   UNL     1       5.912   5.429  15.647  0.00  0.00    +0.000 A 
ATOM     34  C   UNL     1       6.596   5.865  16.777  0.00  0.00    +0.000 A 
ATOM     35  N   UNL     1       7.491   6.864  16.832  0.00  0.00    +0.000 N 
ATOM     36  C   UNL     1       7.899   6.939  18.113  0.00  0.00    +0.000 A 
ATOM     37  C   UNL     1       7.256   5.979  18.883  0.00  0.00    +0.000 A 
ATOM     38  C   UNL     1       6.416   5.288  18.015  0.00  0.00    +0.000 A 
ATOM     39  H   UNL     1       7.814   7.465  16.041  0.00  0.00    +0.000 HD
ENDBRANCH  29  30
ENDBRANCH  28  29
ENDBRANCH  25  28
ENDBRANCH  24  25
ENDBRANCH  22  24
ENDBRANCH  21  22
ENDBRANCH   1  21
TORSDOF 11
ENDMDL
MODEL 9
REMARK VINA RESULT:      -8.0      2.849      3.224
REMARK  Name = 
REMARK  12 active torsions:
REMARK  status: ('A' for Active; 'I' for Inactive)
REMARK    1  A    between atoms: C_1  and  C_2
REMARK    2  A    between atoms: C_8  and  C_9
REMARK    3  A    between atoms: C_12  and  N_13
REMARK    4  A    between atoms: C_14  and  C_16
REMARK    5  A    between atoms: C_16  and  C_17
REMARK    6  A    between atoms: C_17  and  N_18
REMARK    7  A    between atoms: N_18  and  C_19
REMARK    8  A    between atoms: C_19  and  C_20
REMARK    9  A    between atoms: C_20  and  O_21
REMARK   10  A    between atoms: C_20  and  C_22
REMARK   11  A    between atoms: C_22  and  O_23
REMARK   12  A    between atoms: O_23  and  C_24
REMARK                            x       y       z     vdW  Elec       q    Type
REMARK                         _______ _______ _______ _____ _____    ______ ____
ROOT
ATOM      1  C   UNL     1       2.729   7.934  18.019  0.00  0.00    +0.000 C 
ENDROOT
BRANCH   1   3
ATOM      2  N   UNL     1       1.287   8.755  19.883  0.00  0.00    +0.000 N 
ATOM      3  C   UNL     1       1.893   8.989  18.675  0.00  0.00    +0.000 C 
ATOM      4  O   UNL     1       1.793  10.064  18.103  0.00  0.00    +0.000 OA
ATOM      5  H   UNL     1       1.486   7.856  20.346  0.00  0.00    +0.000 HD
BRANCH   2   9
ATOM      6  C   UNL     1      -1.319  11.513  21.848  0.00  0.00    +0.000 A 
ATOM      7  C   UNL     1      -0.532  10.618  22.584  0.00  0.00    +0.000 A 
ATOM      8  C   UNL     1       0.303   9.712  21.962  0.00  0.00    +0.000 A 
ATOM      9  C   UNL     1       0.398   9.654  20.559  0.00  0.00    +0.000 A 
ATOM     10  C   UNL     1      -0.378  10.557  19.804  0.00  0.00    +0.000 A 
ATOM     11  C   UNL     1      -1.227  11.476  20.440  0.00  0.00    +0.000 A 
BRANCH   6  19
ATOM     12  C   UNL     1      -0.521  14.451  22.745  0.00  0.00    +0.000 C 
ATOM     13  C   UNL     1      -1.953  14.018  22.351  0.00  0.00    +0.000 C 
ATOM     14  C   UNL     1      -2.954  14.926  23.106  0.00  0.00    +0.000 C 
ATOM     15  C   UNL     1      -4.124  14.211  23.698  0.00  0.00    +0.000 C 
ATOM     16  O   UNL     1      -5.024  14.866  24.203  0.00  0.00    +0.000 OA
ATOM     17  N   UNL     1      -4.170  12.859  23.752  0.00  0.00    +0.000 N 
ATOM     18  N   UNL     1      -3.186  12.063  23.213  0.00  0.00    +0.000 NA
ATOM     19  C   UNL     1      -2.171  12.517  22.554  0.00  0.00    +0.000 C 
ATOM     20  H   UNL     1      -4.975  12.401  24.200  0.00  0.00    +0.000 HD
ENDBRANCH   6  19
ENDBRANCH   2   9
ENDBRANCH   1   3
BRANCH   1  21
ATOM     21  C   UNL     1       2.821   6.704  18.912  0.00  0.00    +0.000 C 
BRANCH  21  22
ATOM     22  N   UNL     1       2.109   5.578  18.300  0.00  0.00    +0.000 NA
ATOM     23  H   UNL     1       2.699   5.198  17.522  0.00  0.00    +0.000 HD
BRANCH  22  24
ATOM     24  C   UNL     1       1.898   4.533  19.302  0.00  0.00    +0.000 C 
BRANCH  24  25
ATOM     25  C   UNL     1       2.110   3.133  18.706  0.00  0.00    +0.000 C 
BRANCH  25  26
ATOM     26  O   UNL     1       0.921   2.633  18.143  0.00  0.00    +0.000 OA
ATOM     27  H   UNL     1       0.885   1.657  18.327  0.00  0.00    +0.000 HD
ENDBRANCH  25  26
BRANCH  25  28
ATOM     28  C   UNL     1       3.219   3.201  17.652  0.00  0.00    +0.000 C 
BRANCH  28  29
ATOM     29  O   UNL     1       4.452   3.284  18.253  0.00  0.00    +0.000 OA
BRANCH  29  30
ATOM     30  C   UNL     1       5.426   4.190  17.978  0.00  0.00    +0.000 A 
ATOM     31  C   UNL     1       5.910   4.963  19.050  0.00  0.00    +0.000 A 
ATOM     32  C   UNL     1       6.919   5.926  18.857  0.00  0.00    +0.000 A 
ATOM     33  C   UNL     1       7.468   6.135  17.585  0.00  0.00    +0.000 A 
ATOM     34  C   UNL     1       6.984   5.367  16.530  0.00  0.00    +0.000 A 
ATOM     35  N   UNL     1       7.386   5.426  15.250  0.00  0.00    +0.000 N 
ATOM     36  C   UNL     1       6.654   4.514  14.581  0.00  0.00    +0.000 A 
ATOM     37  C   UNL     1       5.780   3.866  15.443  0.00  0.00    +0.000 A 
ATOM     38  C   UNL     1       5.998   4.421  16.701  0.00  0.00    +0.000 A 
ATOM     39  H   UNL     1       8.116   6.054  14.847  0.00  0.00    +0.000 HD
ENDBRANCH  29  30
ENDBRANCH  28  29
ENDBRANCH  25  28
ENDBRANCH  24  25
ENDBRANCH  22  24
ENDBRANCH  21  22
ENDBRANCH   1  21
TORSDOF 11
ENDMDL
