MODEL 1
REMARK VINA RESULT:      -8.6      0.000      0.000
REMARK  Name = 
REMARK  8 active torsions:
REMARK  status: ('A' for Active; 'I' for Inactive)
REMARK    1  A    between atoms: C_1  and  C_2
REMARK    2  A    between atoms: C_6  and  C_8
REMARK    3  A    between atoms: C_8  and  S_9
REMARK    4  A    between atoms: S_9  and  C_10
REMARK    5  A    between atoms: N_14  and  C_15
REMARK    6  A    between atoms: C_18  and  C_19
REMARK    7  A    between atoms: C_19  and  C_20
REMARK    8  A    between atoms: C_19  and  C_21
REMARK                            x       y       z     vdW  Elec       q    Type
REMARK                         _______ _______ _______ _____ _____    ______ ____
ROOT
ATOM      1  C   UNL     1       3.624   3.831  18.316  0.00  0.00    +0.000 A 
ATOM      2  N   UNL     1       3.416   2.876  17.437  0.00  0.00    +0.000 NA
ATOM      3  N   UNL     1       2.169   3.097  16.923  0.00  0.00    +0.000 NA
ATOM      4  N   UNL     1       1.594   4.144  17.495  0.00  0.00    +0.000 NA
ATOM      5  N   UNL     1       2.523   4.684  18.329  0.00  0.00    +0.000 N 
ENDROOT
BRANCH   5   6
ATOM      6  C   UNL     1       2.253   5.878  19.043  0.00  0.00    +0.000 A 
ATOM      7  C   UNL     1       2.385   7.117  18.398  0.00  0.00    +0.000 A 
ATOM      8  C   UNL     1       1.979   8.292  19.045  0.00  0.00    +0.000 A 
ATOM      9  C   UNL     1       1.464   8.249  20.349  0.00  0.00    +0.000 A 
ATOM     10  C   UNL     1       1.450   7.019  21.019  0.00  0.00    +0.000 A 
ATOM     11  C   UNL     1       1.840   5.845  20.375  0.00  0.00    +0.000 A 
BRANCH   9  12
ATOM     12  C   UNL     1       0.891   9.498  20.994  0.00  0.00    +0.000 C 
ATOM     13  C   UNL     1      -0.237  10.080  20.132  0.00  0.00    +0.000 C 
ATOM     14  C   UNL     1       0.399   9.243  22.419  0.00  0.00    +0.000 C 
ENDBRANCH   9  12
ENDBRANCH   5   6
BRANCH   1  15
ATOM     15  S   UNL     1       5.024   3.893  19.339  0.00  0.00    +0.000 S 
BRANCH  15  16
ATOM     16  C   UNL     1       5.575   5.610  19.102  0.00  0.00    +0.000 C 
BRANCH  16  22
ATOM     17  C   UNL     1       6.769   3.686  12.020  0.00  0.00    +0.000 C 
ATOM     18  C   UNL     1       6.690   4.202  13.397  0.00  0.00    +0.000 A 
ATOM     19  C   UNL     1       5.907   3.940  14.495  0.00  0.00    +0.000 A 
ATOM     20  C   UNL     1       6.386   4.817  15.505  0.00  0.00    +0.000 A 
ATOM     21  N   UNL     1       5.870   4.879  16.791  0.00  0.00    +0.000 N 
ATOM     22  C   UNL     1       6.306   5.756  17.769  0.00  0.00    +0.000 C 
ATOM     23  O   UNL     1       7.223   6.568  17.662  0.00  0.00    +0.000 OA
ATOM     24  N   UNL     1       7.397   5.551  15.038  0.00  0.00    +0.000 NA
ATOM     25  O   UNL     1       7.586   5.172  13.723  0.00  0.00    +0.000 OA
ATOM     26  H   UNL     1       5.080   4.281  16.990  0.00  0.00    +0.000 HD
ENDBRANCH  16  22
ENDBRANCH  15  16
ENDBRANCH   1  15
TORSDOF 5
ENDMDL
MODEL 2
REMARK VINA RESULT:      -8.5      1.640      2.145
REMARK  Name = 
REMARK  8 active torsions:
REMARK  status: ('A' for Active; 'I' for Inactive)
REMARK    1  A    between atoms: C_1  and  C_2
REMARK    2  A    between atoms: C_6  and  C_8
REMARK    3  A    between atoms: C_8  and  S_9
REMARK    4  A    between atoms: S_9  and  C_10
REMARK    5  A    between atoms: N_14  and  C_15
REMARK    6  A    between atoms: C_18  and  C_19
REMARK    7  A    between atoms: C_19  and  C_20
REMARK    8  A    between atoms: C_19  and  C_21
REMARK                            x       y       z     vdW  Elec       q    Type
REMARK                         _______ _______ _______ _____ _____    ______ ____
ROOT
ATOM      1  C   UNL     1       3.246   3.473  19.981  0.00  0.00    +0.000 A 
ATOM      2  N   UNL     1       3.046   2.500  20.843  0.00  0.00    +0.000 NA
ATOM      3  N   UNL     1       2.258   3.023  21.830  0.00  0.00    +0.000 NA
ATOM      4  N   UNL     1       2.003   4.304  21.611  0.00  0.00    +0.000 NA
ATOM      5  N   UNL     1       2.549   4.602  20.401  0.00  0.00    +0.000 N 
ENDROOT
BRANCH   5   6
ATOM      6  C   UNL     1       2.384   5.887  19.827  0.00  0.00    +0.000 A 
ATOM      7  C   UNL     1       2.655   6.078  18.463  0.00  0.00    +0.000 A 
ATOM      8  C   UNL     1       2.356   7.303  17.852  0.00  0.00    +0.000 A 
ATOM      9  C   UNL     1       1.810   8.359  18.597  0.00  0.00    +0.000 A 
ATOM     10  C   UNL     1       1.658   8.190  19.979  0.00  0.00    +0.000 A 
ATOM     11  C   UNL     1       1.941   6.968  20.590  0.00  0.00    +0.000 A 
BRANCH   9  12
ATOM     12  C   UNL     1       1.352   9.633  17.910  0.00  0.00    +0.000 C 
ATOM     13  C   UNL     1      -0.076   9.993  18.340  0.00  0.00    +0.000 C 
ATOM     14  C   UNL     1       2.300  10.805  18.165  0.00  0.00    +0.000 C 
ENDBRANCH   9  12
ENDBRANCH   5   6
BRANCH   1  15
ATOM     15  S   UNL     1       4.310   3.330  18.618  0.00  0.00    +0.000 S 
BRANCH  15  16
ATOM     16  C   UNL     1       5.687   4.409  19.116  0.00  0.00    +0.000 C 
BRANCH  16  22
ATOM     17  C   UNL     1       7.194   4.314  11.835  0.00  0.00    +0.000 C 
ATOM     18  C   UNL     1       7.042   4.481  13.290  0.00  0.00    +0.000 A 
ATOM     19  C   UNL     1       6.256   3.912  14.262  0.00  0.00    +0.000 A 
ATOM     20  C   UNL     1       6.643   4.554  15.469  0.00  0.00    +0.000 A 
ATOM     21  N   UNL     1       6.093   4.272  16.711  0.00  0.00    +0.000 N 
ATOM     22  C   UNL     1       6.437   4.918  17.886  0.00  0.00    +0.000 C 
ATOM     23  O   UNL     1       7.292   5.793  18.012  0.00  0.00    +0.000 OA
ATOM     24  N   UNL     1       7.605   5.445  15.232  0.00  0.00    +0.000 NA
ATOM     25  O   UNL     1       7.854   5.404  13.873  0.00  0.00    +0.000 OA
ATOM     26  H   UNL     1       5.346   3.591  16.731  0.00  0.00    +0.000 HD
ENDBRANCH  16  22
ENDBRANCH  15  16
ENDBRANCH   1  15
TORSDOF 5
ENDMDL
MODEL 3
REMARK VINA RESULT:      -8.3      4.699      6.597
REMARK  Name = 
REMARK  8 active torsions:
REMARK  status: ('A' for Active; 'I' for Inactive)
REMARK    1  A    between atoms: C_1  and  C_2
REMARK    2  A    between atoms: C_6  and  C_8
REMARK    3  A    between atoms: C_8  and  S_9
REMARK    4  A    between atoms: S_9  and  C_10
REMARK    5  A    between atoms: N_14  and  C_15
REMARK    6  A    between atoms: C_18  and  C_19
REMARK    7  A    between atoms: C_19  and  C_20
REMARK    8  A    between atoms: C_19  and  C_21
REMARK                            x       y       z     vdW  Elec       q    Type
REMARK                         _______ _______ _______ _____ _____    ______ ____
ROOT
ATOM      1  C   UNL     1       6.988   5.957  16.766  0.00  0.00    +0.000 A 
ATOM      2  N   UNL     1       7.584   5.888  15.597  0.00  0.00    +0.000 NA
ATOM      3  N   UNL     1       6.851   5.008  14.848  0.00  0.00    +0.000 NA
ATOM      4  N   UNL     1       5.843   4.510  15.547  0.00  0.00    +0.000 NA
ATOM      5  N   UNL     1       5.851   5.154  16.746  0.00  0.00    +0.000 N 
ENDROOT
BRANCH   5   6
ATOM      6  C   UNL     1       4.841   4.909  17.709  0.00  0.00    +0.000 A 
ATOM      7  C   UNL     1       3.646   5.641  17.663  0.00  0.00    +0.000 A 
ATOM      8  C   UNL     1       2.584   5.307  18.514  0.00  0.00    +0.000 A 
ATOM      9  C   UNL     1       2.712   4.260  19.439  0.00  0.00    +0.000 A 
ATOM     10  C   UNL     1       3.952   3.619  19.552  0.00  0.00    +0.000 A 
ATOM     11  C   UNL     1       5.007   3.939  18.698  0.00  0.00    +0.000 A 
BRANCH   9  12
ATOM     12  C   UNL     1       1.518   3.804  20.259  0.00  0.00    +0.000 C 
ATOM     13  C   UNL     1       0.656   2.822  19.454  0.00  0.00    +0.000 C 
ATOM     14  C   UNL     1       1.931   3.184  21.594  0.00  0.00    +0.000 C 
ENDBRANCH   9  12
ENDBRANCH   5   6
BRANCH   1  15
ATOM     15  S   UNL     1       7.634   6.846  18.110  0.00  0.00    +0.000 S 
BRANCH  15  16
ATOM     16  C   UNL     1       7.557   8.554  17.488  0.00  0.00    +0.000 C 
BRANCH  16  22
ATOM     17  C   UNL     1      10.864  15.085  18.787  0.00  0.00    +0.000 C 
ATOM     18  C   UNL     1      10.322  13.720  18.690  0.00  0.00    +0.000 A 
ATOM     19  C   UNL     1       9.417  13.084  17.876  0.00  0.00    +0.000 A 
ATOM     20  C   UNL     1       9.374  11.745  18.350  0.00  0.00    +0.000 A 
ATOM     21  N   UNL     1       8.579  10.750  17.801  0.00  0.00    +0.000 N 
ATOM     22  C   UNL     1       8.503   9.453  18.281  0.00  0.00    +0.000 C 
ATOM     23  O   UNL     1       9.144   8.986  19.220  0.00  0.00    +0.000 OA
ATOM     24  N   UNL     1      10.207  11.592  19.380  0.00  0.00    +0.000 NA
ATOM     25  O   UNL     1      10.798  12.823  19.596  0.00  0.00    +0.000 OA
ATOM     26  H   UNL     1       7.972  11.024  17.041  0.00  0.00    +0.000 HD
ENDBRANCH  16  22
ENDBRANCH  15  16
ENDBRANCH   1  15
TORSDOF 5
ENDMDL
MODEL 4
REMARK VINA RESULT:      -8.2      0.729      1.224
REMARK  Name = 
REMARK  8 active torsions:
REMARK  status: ('A' for Active; 'I' for Inactive)
REMARK    1  A    between atoms: C_1  and  C_2
REMARK    2  A    between atoms: C_6  and  C_8
REMARK    3  A    between atoms: C_8  and  S_9
REMARK    4  A    between atoms: S_9  and  C_10
REMARK    5  A    between atoms: N_14  and  C_15
REMARK    6  A    between atoms: C_18  and  C_19
REMARK    7  A    between atoms: C_19  and  C_20
REMARK    8  A    between atoms: C_19  and  C_21
REMARK                            x       y       z     vdW  Elec       q    Type
REMARK                         _______ _______ _______ _____ _____    ______ ____
ROOT
ATOM      1  C   UNL     1       4.266   4.400  18.327  0.00  0.00    +0.000 A 
ATOM      2  N   UNL     1       4.300   3.303  17.604  0.00  0.00    +0.000 NA
ATOM      3  N   UNL     1       3.003   3.033  17.262  0.00  0.00    +0.000 NA
ATOM      4  N   UNL     1       2.175   3.920  17.791  0.00  0.00    +0.000 NA
ATOM      5  N   UNL     1       2.952   4.851  18.408  0.00  0.00    +0.000 N 
ENDROOT
BRANCH   5   6
ATOM      6  C   UNL     1       2.374   5.994  19.015  0.00  0.00    +0.000 A 
ATOM      7  C   UNL     1       1.833   5.896  20.305  0.00  0.00    +0.000 A 
ATOM      8  C   UNL     1       1.394   7.048  20.972  0.00  0.00    +0.000 A 
ATOM      9  C   UNL     1       1.465   8.304  20.352  0.00  0.00    +0.000 A 
ATOM     10  C   UNL     1       1.898   8.366  19.021  0.00  0.00    +0.000 A 
ATOM     11  C   UNL     1       2.348   7.225  18.358  0.00  0.00    +0.000 A 
BRANCH   9  12
ATOM     12  C   UNL     1       1.127   9.567  21.124  0.00  0.00    +0.000 C 
ATOM     13  C   UNL     1       0.006  10.344  20.421  0.00  0.00    +0.000 C 
ATOM     14  C   UNL     1       0.749   9.277  22.577  0.00  0.00    +0.000 C 
ENDBRANCH   9  12
ENDBRANCH   5   6
BRANCH   1  15
ATOM     15  S   UNL     1       5.665   5.061  19.114  0.00  0.00    +0.000 S 
BRANCH  15  16
ATOM     16  C   UNL     1       5.908   6.607  18.186  0.00  0.00    +0.000 C 
BRANCH  16  22
ATOM     17  C   UNL     1       6.397   3.032  11.685  0.00  0.00    +0.000 C 
ATOM     18  C   UNL     1       6.478   3.834  12.917  0.00  0.00    +0.000 A 
ATOM     19  C   UNL     1       5.713   3.965  14.050  0.00  0.00    +0.000 A 
ATOM     20  C   UNL     1       6.392   4.929  14.843  0.00  0.00    +0.000 A 
ATOM     21  N   UNL     1       5.956   5.359  16.088  0.00  0.00    +0.000 N 
ATOM     22  C   UNL     1       6.592   6.325  16.850  0.00  0.00    +0.000 C 
ATOM     23  O   UNL     1       7.636   6.906  16.564  0.00  0.00    +0.000 OA
ATOM     24  N   UNL     1       7.497   5.342  14.223  0.00  0.00    +0.000 NA
ATOM     25  O   UNL     1       7.552   4.664  13.020  0.00  0.00    +0.000 OA
ATOM     26  H   UNL     1       5.080   4.979  16.416  0.00  0.00    +0.000 HD
ENDBRANCH  16  22
ENDBRANCH  15  16
ENDBRANCH   1  15
TORSDOF 5
ENDMDL
MODEL 5
REMARK VINA RESULT:      -8.2      3.638      5.862
REMARK  Name = 
REMARK  8 active torsions:
REMARK  status: ('A' for Active; 'I' for Inactive)
REMARK    1  A    between atoms: C_1  and  C_2
REMARK    2  A    between atoms: C_6  and  C_8
REMARK    3  A    between atoms: C_8  and  S_9
REMARK    4  A    between atoms: S_9  and  C_10
REMARK    5  A    between atoms: N_14  and  C_15
REMARK    6  A    between atoms: C_18  and  C_19
REMARK    7  A    between atoms: C_19  and  C_20
REMARK    8  A    between atoms: C_19  and  C_21
REMARK                            x       y       z     vdW  Elec       q    Type
REMARK                         _______ _______ _______ _____ _____    ______ ____
ROOT
ATOM      1  C   UNL     1       7.021   4.955  16.253  0.00  0.00    +0.000 A 
ATOM      2  N   UNL     1       7.550   5.211  15.078  0.00  0.00    +0.000 NA
ATOM      3  N   UNL     1       6.525   5.143  14.176  0.00  0.00    +0.000 NA
ATOM      4  N   UNL     1       5.387   4.815  14.769  0.00  0.00    +0.000 NA
ATOM      5  N   UNL     1       5.650   4.767  16.104  0.00  0.00    +0.000 N 
ENDROOT
BRANCH   5   6
ATOM      6  C   UNL     1       4.615   4.517  17.039  0.00  0.00    +0.000 A 
ATOM      7  C   UNL     1       3.753   5.558  17.415  0.00  0.00    +0.000 A 
ATOM      8  C   UNL     1       2.639   5.290  18.222  0.00  0.00    +0.000 A 
ATOM      9  C   UNL     1       2.388   3.991  18.686  0.00  0.00    +0.000 A 
ATOM     10  C   UNL     1       3.323   2.989  18.399  0.00  0.00    +0.000 A 
ATOM     11  C   UNL     1       4.426   3.247  17.584  0.00  0.00    +0.000 A 
BRANCH   9  12
ATOM     12  C   UNL     1       1.107   3.673  19.437  0.00  0.00    +0.000 C 
ATOM     13  C   UNL     1       0.478   2.379  18.904  0.00  0.00    +0.000 C 
ATOM     14  C   UNL     1       1.326   3.580  20.947  0.00  0.00    +0.000 C 
ENDBRANCH   9  12
ENDBRANCH   5   6
BRANCH   1  15
ATOM     15  S   UNL     1       7.961   4.788  17.703  0.00  0.00    +0.000 S 
BRANCH  15  16
ATOM     16  C   UNL     1       7.347   6.180  18.699  0.00  0.00    +0.000 C 
BRANCH  16  22
ATOM     17  C   UNL     1      10.738  12.739  19.573  0.00  0.00    +0.000 C 
ATOM     18  C   UNL     1      10.045  11.495  19.200  0.00  0.00    +0.000 A 
ATOM     19  C   UNL     1       9.650  10.359  19.864  0.00  0.00    +0.000 A 
ATOM     20  C   UNL     1       9.022   9.556  18.876  0.00  0.00    +0.000 A 
ATOM     21  N   UNL     1       8.468   8.308  19.123  0.00  0.00    +0.000 N 
ATOM     22  C   UNL     1       7.888   7.502  18.158  0.00  0.00    +0.000 C 
ATOM     23  O   UNL     1       7.741   7.780  16.970  0.00  0.00    +0.000 OA
ATOM     24  N   UNL     1       9.036  10.177  17.696  0.00  0.00    +0.000 NA
ATOM     25  O   UNL     1       9.677  11.386  17.895  0.00  0.00    +0.000 OA
ATOM     26  H   UNL     1       8.561   7.951  20.064  0.00  0.00    +0.000 HD
ENDBRANCH  16  22
ENDBRANCH  15  16
ENDBRANCH   1  15
TORSDOF 5
ENDMDL
MODEL 6
REMARK VINA RESULT:      -8.2      2.630      3.516
REMARK  Name = 
REMARK  8 active torsions:
REMARK  status: ('A' for Active; 'I' for Inactive)
REMARK    1  A    between atoms: C_1  and  C_2
REMARK    2  A    between atoms: C_6  and  C_8
REMARK    3  A    between atoms: C_8  and  S_9
REMARK    4  A    between atoms: S_9  and  C_10
REMARK    5  A    between atoms: N_14  and  C_15
REMARK    6  A    between atoms: C_18  and  C_19
REMARK    7  A    between atoms: C_19  and  C_20
REMARK    8  A    between atoms: C_19  and  C_21
REMARK                            x       y       z     vdW  Elec       q    Type
REMARK                         _______ _______ _______ _____ _____    ______ ____
ROOT
ATOM      1  C   UNL     1       1.771   3.310  20.004  0.00  0.00    +0.000 A 
ATOM      2  N   UNL     1       1.844   2.263  20.795  0.00  0.00    +0.000 NA
ATOM      3  N   UNL     1       2.099   2.749  22.047  0.00  0.00    +0.000 NA
ATOM      4  N   UNL     1       2.221   4.068  22.033  0.00  0.00    +0.000 NA
ATOM      5  N   UNL     1       1.937   4.465  20.763  0.00  0.00    +0.000 N 
ENDROOT
BRANCH   5   6
ATOM      6  C   UNL     1       1.899   5.841  20.423  0.00  0.00    +0.000 A 
ATOM      7  C   UNL     1       2.515   6.281  19.241  0.00  0.00    +0.000 A 
ATOM      8  C   UNL     1       2.357   7.608  18.820  0.00  0.00    +0.000 A 
ATOM      9  C   UNL     1       1.610   8.516  19.583  0.00  0.00    +0.000 A 
ATOM     10  C   UNL     1       1.103   8.091  20.817  0.00  0.00    +0.000 A 
ATOM     11  C   UNL     1       1.245   6.767  21.235  0.00  0.00    +0.000 A 
BRANCH   9  12
ATOM     12  C   UNL     1       1.318   9.911  19.057  0.00  0.00    +0.000 C 
ATOM     13  C   UNL     1       0.269   9.856  17.939  0.00  0.00    +0.000 C 
ATOM     14  C   UNL     1       0.874  10.869  20.162  0.00  0.00    +0.000 C 
ENDBRANCH   9  12
ENDBRANCH   5   6
BRANCH   1  15
ATOM     15  S   UNL     1       1.600   3.188  18.281  0.00  0.00    +0.000 S 
BRANCH  15  16
ATOM     16  C   UNL     1       3.168   2.393  17.814  0.00  0.00    +0.000 C 
BRANCH  16  22
ATOM     17  C   UNL     1       7.960   8.074  17.623  0.00  0.00    +0.000 C 
ATOM     18  C   UNL     1       7.117   6.885  17.829  0.00  0.00    +0.000 A 
ATOM     19  C   UNL     1       6.031   6.336  17.193  0.00  0.00    +0.000 A 
ATOM     20  C   UNL     1       5.722   5.166  17.938  0.00  0.00    +0.000 A 
ATOM     21  N   UNL     1       4.682   4.300  17.633  0.00  0.00    +0.000 N 
ATOM     22  C   UNL     1       4.352   3.179  18.375  0.00  0.00    +0.000 C 
ATOM     23  O   UNL     1       4.941   2.767  19.371  0.00  0.00    +0.000 OA
ATOM     24  N   UNL     1       6.577   5.024  18.952  0.00  0.00    +0.000 NA
ATOM     25  O   UNL     1       7.445   6.097  18.889  0.00  0.00    +0.000 OA
ATOM     26  H   UNL     1       4.097   4.556  16.850  0.00  0.00    +0.000 HD
ENDBRANCH  16  22
ENDBRANCH  15  16
ENDBRANCH   1  15
TORSDOF 5
ENDMDL
MODEL 7
REMARK VINA RESULT:      -8.1      2.823      8.556
REMARK  Name = 
REMARK  8 active torsions:
REMARK  status: ('A' for Active; 'I' for Inactive)
REMARK    1  A    between atoms: C_1  and  C_2
REMARK    2  A    between atoms: C_6  and  C_8
REMARK    3  A    between atoms: C_8  and  S_9
REMARK    4  A    between atoms: S_9  and  C_10
REMARK    5  A    between atoms: N_14  and  C_15
REMARK    6  A    between atoms: C_18  and  C_19
REMARK    7  A    between atoms: C_19  and  C_20
REMARK    8  A    between atoms: C_19  and  C_21
REMARK                            x       y       z     vdW  Elec       q    Type
REMARK                         _______ _______ _______ _____ _____    ______ ____
ROOT
ATOM      1  C   UNL     1       5.283   5.143  18.607  0.00  0.00    +0.000 A 
ATOM      2  N   UNL     1       5.777   5.465  19.781  0.00  0.00    +0.000 NA
ATOM      3  N   UNL     1       7.131   5.308  19.680  0.00  0.00    +0.000 NA
ATOM      4  N   UNL     1       7.472   4.862  18.481  0.00  0.00    +0.000 NA
ATOM      5  N   UNL     1       6.328   4.823  17.746  0.00  0.00    +0.000 N 
ENDROOT
BRANCH   5   6
ATOM      6  C   UNL     1       6.356   4.460  16.376  0.00  0.00    +0.000 A 
ATOM      7  C   UNL     1       5.428   3.530  15.885  0.00  0.00    +0.000 A 
ATOM      8  C   UNL     1       5.348   3.276  14.509  0.00  0.00    +0.000 A 
ATOM      9  C   UNL     1       6.210   3.924  13.612  0.00  0.00    +0.000 A 
ATOM     10  C   UNL     1       7.207   4.759  14.131  0.00  0.00    +0.000 A 
ATOM     11  C   UNL     1       7.282   5.025  15.498  0.00  0.00    +0.000 A 
BRANCH   9  12
ATOM     12  C   UNL     1       6.029   3.760  12.113  0.00  0.00    +0.000 C 
ATOM     13  C   UNL     1       7.057   2.769  11.552  0.00  0.00    +0.000 C 
ATOM     14  C   UNL     1       4.610   3.328  11.741  0.00  0.00    +0.000 C 
ENDBRANCH   9  12
ENDBRANCH   5   6
BRANCH   1  15
ATOM     15  S   UNL     1       3.579   5.050  18.287  0.00  0.00    +0.000 S 
BRANCH  15  16
ATOM     16  C   UNL     1       2.879   5.555  19.888  0.00  0.00    +0.000 C 
BRANCH  16  22
ATOM     17  C   UNL     1      -0.883  11.310  22.718  0.00  0.00    +0.000 C 
ATOM     18  C   UNL     1      -0.120  10.286  21.985  0.00  0.00    +0.000 A 
ATOM     19  C   UNL     1       0.335   9.021  22.263  0.00  0.00    +0.000 A 
ATOM     20  C   UNL     1       1.005   8.603  21.083  0.00  0.00    +0.000 A 
ATOM     21  N   UNL     1       1.619   7.368  20.931  0.00  0.00    +0.000 N 
ATOM     22  C   UNL     1       2.306   6.968  19.798  0.00  0.00    +0.000 C 
ATOM     23  O   UNL     1       2.440   7.615  18.761  0.00  0.00    +0.000 OA
ATOM     24  N   UNL     1       0.947   9.559  20.154  0.00  0.00    +0.000 NA
ATOM     25  O   UNL     1       0.248  10.611  20.716  0.00  0.00    +0.000 OA
ATOM     26  H   UNL     1       1.609   6.757  21.735  0.00  0.00    +0.000 HD
ENDBRANCH  16  22
ENDBRANCH  15  16
ENDBRANCH   1  15
TORSDOF 5
ENDMDL
MODEL 8
REMARK VINA RESULT:      -8.1      2.542      8.091
REMARK  Name = 
REMARK  8 active torsions:
REMARK  status: ('A' for Active; 'I' for Inactive)
REMARK    1  A    between atoms: C_1  and  C_2
REMARK    2  A    between atoms: C_6  and  C_8
REMARK    3  A    between atoms: C_8  and  S_9
REMARK    4  A    between atoms: S_9  and  C_10
REMARK    5  A    between atoms: N_14  and  C_15
REMARK    6  A    between atoms: C_18  and  C_19
REMARK    7  A    between atoms: C_19  and  C_20
REMARK    8  A    between atoms: C_19  and  C_21
REMARK                            x       y       z     vdW  Elec       q    Type
REMARK                         _______ _______ _______ _____ _____    ______ ____
ROOT
ATOM      1  C   UNL     1       5.658   4.562  18.692  0.00  0.00    +0.000 A 
ATOM      2  N   UNL     1       6.281   4.937  19.787  0.00  0.00    +0.000 NA
ATOM      3  N   UNL     1       7.511   5.385  19.391  0.00  0.00    +0.000 NA
ATOM      4  N   UNL     1       7.667   5.257  18.082  0.00  0.00    +0.000 NA
ATOM      5  N   UNL     1       6.477   4.812  17.595  0.00  0.00    +0.000 N 
ENDROOT
BRANCH   5   6
ATOM      6  C   UNL     1       6.279   4.644  16.202  0.00  0.00    +0.000 A 
ATOM      7  C   UNL     1       7.329   4.921  15.313  0.00  0.00    +0.000 A 
ATOM      8  C   UNL     1       7.195   4.618  13.952  0.00  0.00    +0.000 A 
ATOM      9  C   UNL     1       6.006   4.064  13.456  0.00  0.00    +0.000 A 
ATOM     10  C   UNL     1       4.928   3.906  14.336  0.00  0.00    +0.000 A 
ATOM     11  C   UNL     1       5.061   4.192  15.695  0.00  0.00    +0.000 A 
BRANCH   9  12
ATOM     12  C   UNL     1       5.911   3.603  12.012  0.00  0.00    +0.000 C 
ATOM     13  C   UNL     1       6.863   2.427  11.760  0.00  0.00    +0.000 C 
ATOM     14  C   UNL     1       4.483   3.232  11.612  0.00  0.00    +0.000 C 
ENDBRANCH   9  12
ENDBRANCH   5   6
BRANCH   1  15
ATOM     15  S   UNL     1       4.105   3.787  18.701  0.00  0.00    +0.000 S 
BRANCH  15  16
ATOM     16  C   UNL     1       3.282   4.634  20.084  0.00  0.00    +0.000 C 
BRANCH  16  22
ATOM     17  C   UNL     1       0.017  11.178  21.424  0.00  0.00    +0.000 C 
ATOM     18  C   UNL     1       0.667   9.942  20.959  0.00  0.00    +0.000 A 
ATOM     19  C   UNL     1       1.111   8.787  21.555  0.00  0.00    +0.000 A 
ATOM     20  C   UNL     1       1.639   8.005  20.494  0.00  0.00    +0.000 A 
ATOM     21  N   UNL     1       2.195   6.745  20.657  0.00  0.00    +0.000 N 
ATOM     22  C   UNL     1       2.746   5.991  19.634  0.00  0.00    +0.000 C 
ATOM     23  O   UNL     1       2.788   6.300  18.445  0.00  0.00    +0.000 OA
ATOM     24  N   UNL     1       1.511   8.651  19.334  0.00  0.00    +0.000 NA
ATOM     25  O   UNL     1       0.908   9.861  19.622  0.00  0.00    +0.000 OA
ATOM     26  H   UNL     1       2.253   6.395  21.604  0.00  0.00    +0.000 HD
ENDBRANCH  16  22
ENDBRANCH  15  16
ENDBRANCH   1  15
TORSDOF 5
ENDMDL
MODEL 9
REMARK VINA RESULT:      -8.0      3.095      6.997
REMARK  Name = 
REMARK  8 active torsions:
REMARK  status: ('A' for Active; 'I' for Inactive)
REMARK    1  A    between atoms: C_1  and  C_2
REMARK    2  A    between atoms: C_6  and  C_8
REMARK    3  A    between atoms: C_8  and  S_9
REMARK    4  A    between atoms: S_9  and  C_10
REMARK    5  A    between atoms: N_14  and  C_15
REMARK    6  A    between atoms: C_18  and  C_19
REMARK    7  A    between atoms: C_19  and  C_20
REMARK    8  A    between atoms: C_19  and  C_21
REMARK                            x       y       z     vdW  Elec       q    Type
REMARK                         _______ _______ _______ _____ _____    ______ ____
ROOT
ATOM      1  C   UNL     1       6.161   6.059  16.817  0.00  0.00    +0.000 A 
ATOM      2  N   UNL     1       7.182   6.226  16.007  0.00  0.00    +0.000 NA
ATOM      3  N   UNL     1       7.609   4.971  15.670  0.00  0.00    +0.000 NA
ATOM      4  N   UNL     1       6.894   4.042  16.285  0.00  0.00    +0.000 NA
ATOM      5  N   UNL     1       5.912   4.697  16.961  0.00  0.00    +0.000 N 
ENDROOT
BRANCH   5   6
ATOM      6  C   UNL     1       4.914   3.982  17.668  0.00  0.00    +0.000 A 
ATOM      7  C   UNL     1       4.980   3.899  19.067  0.00  0.00    +0.000 A 
ATOM      8  C   UNL     1       3.924   3.324  19.787  0.00  0.00    +0.000 A 
ATOM      9  C   UNL     1       2.807   2.801  19.122  0.00  0.00    +0.000 A 
ATOM     10  C   UNL     1       2.812   2.785  17.721  0.00  0.00    +0.000 A 
ATOM     11  C   UNL     1       3.854   3.369  17.000  0.00  0.00    +0.000 A 
BRANCH   9  12
ATOM     12  C   UNL     1       1.601   2.310  19.904  0.00  0.00    +0.000 C 
ATOM     13  C   UNL     1       1.342   3.215  21.116  0.00  0.00    +0.000 C 
ATOM     14  C   UNL     1       0.347   2.205  19.036  0.00  0.00    +0.000 C 
ENDBRANCH   9  12
ENDBRANCH   5   6
BRANCH   1  15
ATOM     15  S   UNL     1       5.367   7.373  17.628  0.00  0.00    +0.000 S 
BRANCH  15  16
ATOM     16  C   UNL     1       3.617   6.991  17.314  0.00  0.00    +0.000 C 
BRANCH  16  22
ATOM     17  C   UNL     1      -0.467   9.549  22.976  0.00  0.00    +0.000 C 
ATOM     18  C   UNL     1       0.281   9.214  21.753  0.00  0.00    +0.000 A 
ATOM     19  C   UNL     1       1.089   8.177  21.355  0.00  0.00    +0.000 A 
ATOM     20  C   UNL     1       1.478   8.504  20.028  0.00  0.00    +0.000 A 
ATOM     21  N   UNL     1       2.303   7.713  19.242  0.00  0.00    +0.000 N 
ATOM     22  C   UNL     1       2.717   8.041  17.962  0.00  0.00    +0.000 C 
ATOM     23  O   UNL     1       2.392   9.041  17.327  0.00  0.00    +0.000 OA
ATOM     24  N   UNL     1       0.930   9.661  19.656  0.00  0.00    +0.000 NA
ATOM     25  O   UNL     1       0.186  10.108  20.732  0.00  0.00    +0.000 OA
ATOM     26  H   UNL     1       2.670   6.875  19.672  0.00  0.00    +0.000 HD
ENDBRANCH  16  22
ENDBRANCH  15  16
ENDBRANCH   1  15
TORSDOF 5
ENDMDL
