MODEL 1
REMARK VINA RESULT:      -7.9      0.000      0.000
REMARK  Name = 
REMARK  4 active torsions:
REMARK  status: ('A' for Active; 'I' for Inactive)
REMARK    1  A    between atoms: C_1  and  C_2
REMARK    2  A    between atoms: N_8  and  C_9
REMARK    3  A    between atoms: C_9  and  C_10
REMARK    4  A    between atoms: C_20  and  C_21
REMARK                            x       y       z     vdW  Elec       q    Type
REMARK                         _______ _______ _______ _____ _____    ______ ____
ROOT
ATOM      1  C   UNL     1       7.418   4.457  11.838  0.00  0.00    +0.000 C 
ATOM      2  C   UNL     1       6.811   4.410  13.216  0.00  0.00    +0.000 A 
ATOM      3  C   UNL     1       7.591   4.818  14.315  0.00  0.00    +0.000 A 
ATOM      4  C   UNL     1       7.060   4.743  15.612  0.00  0.00    +0.000 A 
ATOM      5  N   UNL     1       7.644   5.048  16.814  0.00  0.00    +0.000 NA
ATOM      6  C   UNL     1       6.749   4.759  17.725  0.00  0.00    +0.000 A 
ATOM      7  N   UNL     1       6.926   4.863  19.054  0.00  0.00    +0.000 N 
ATOM      8  N   UNL     1       5.586   4.296  17.158  0.00  0.00    +0.000 N 
ATOM      9  C   UNL     1       5.763   4.280  15.789  0.00  0.00    +0.000 A 
ATOM     10  C   UNL     1       4.948   3.892  14.718  0.00  0.00    +0.000 A 
ATOM     11  C   UNL     1       5.495   3.942  13.420  0.00  0.00    +0.000 A 
ATOM     12  C   UNL     1       4.652   3.466  12.265  0.00  0.00    +0.000 C 
ATOM     13  H   UNL     1       7.772   5.361  19.322  0.00  0.00    +0.000 HD
ATOM     14  H   UNL     1       6.143   5.085  19.656  0.00  0.00    +0.000 HD
ENDROOT
BRANCH   8  15
ATOM     15  C   UNL     1       4.467   3.696  17.867  0.00  0.00    +0.000 C 
BRANCH  15  16
ATOM     16  C   UNL     1       3.671   4.656  18.727  0.00  0.00    +0.000 A 
ATOM     17  C   UNL     1       3.110   4.177  19.926  0.00  0.00    +0.000 A 
ATOM     18  C   UNL     1       2.247   4.973  20.682  0.00  0.00    +0.000 A 
ATOM     19  C   UNL     1       1.932   6.254  20.247  0.00  0.00    +0.000 A 
ATOM     20  F   UNL     1       1.071   6.986  20.970  0.00  0.00    +0.000 F 
ATOM     21  C   UNL     1       2.487   6.756  19.073  0.00  0.00    +0.000 A 
ATOM     22 CL   UNL     1       2.088   8.338  18.523  0.00  0.00    +0.000 Cl
ATOM     23  C   UNL     1       3.354   5.962  18.315  0.00  0.00    +0.000 A 
ENDBRANCH  15  16
ENDBRANCH   8  15
TORSDOF 2
ENDMDL
MODEL 2
REMARK VINA RESULT:      -7.8      2.509      4.085
REMARK  Name = 
REMARK  4 active torsions:
REMARK  status: ('A' for Active; 'I' for Inactive)
REMARK    1  A    between atoms: C_1  and  C_2
REMARK    2  A    between atoms: N_8  and  C_9
REMARK    3  A    between atoms: C_9  and  C_10
REMARK    4  A    between atoms: C_20  and  C_21
REMARK                            x       y       z     vdW  Elec       q    Type
REMARK                         _______ _______ _______ _____ _____    ______ ____
ROOT
ATOM      1  C   UNL     1       7.084   4.787  14.968  0.00  0.00    +0.000 C 
ATOM      2  C   UNL     1       6.099   4.870  16.104  0.00  0.00    +0.000 A 
ATOM      3  C   UNL     1       4.947   4.061  16.064  0.00  0.00    +0.000 A 
ATOM      4  C   UNL     1       3.995   4.151  17.091  0.00  0.00    +0.000 A 
ATOM      5  N   UNL     1       2.801   3.496  17.235  0.00  0.00    +0.000 NA
ATOM      6  C   UNL     1       2.268   3.969  18.334  0.00  0.00    +0.000 A 
ATOM      7  N   UNL     1       1.063   3.631  18.826  0.00  0.00    +0.000 N 
ATOM      8  N   UNL     1       3.086   4.899  18.929  0.00  0.00    +0.000 N 
ATOM      9  C   UNL     1       4.214   5.031  18.143  0.00  0.00    +0.000 A 
ATOM     10  C   UNL     1       5.360   5.831  18.232  0.00  0.00    +0.000 A 
ATOM     11  C   UNL     1       6.299   5.757  17.184  0.00  0.00    +0.000 A 
ATOM     12  C   UNL     1       7.506   6.659  17.234  0.00  0.00    +0.000 C 
ATOM     13  H   UNL     1       0.640   2.825  18.370  0.00  0.00    +0.000 HD
ATOM     14  H   UNL     1       0.902   3.634  19.826  0.00  0.00    +0.000 HD
ENDROOT
BRANCH   8  15
ATOM     15  C   UNL     1       2.730   5.767  20.039  0.00  0.00    +0.000 C 
BRANCH  15  16
ATOM     16  C   UNL     1       2.105   7.087  19.639  0.00  0.00    +0.000 A 
ATOM     17  C   UNL     1       2.257   7.528  18.311  0.00  0.00    +0.000 A 
ATOM     18  C   UNL     1       1.830   8.801  17.924  0.00  0.00    +0.000 A 
ATOM     19  C   UNL     1       1.251   9.648  18.860  0.00  0.00    +0.000 A 
ATOM     20  F   UNL     1       0.883  10.879  18.474  0.00  0.00    +0.000 F 
ATOM     21  C   UNL     1       1.075   9.229  20.176  0.00  0.00    +0.000 A 
ATOM     22 CL   UNL     1       0.370  10.281  21.342  0.00  0.00    +0.000 Cl
ATOM     23  C   UNL     1       1.498   7.954  20.566  0.00  0.00    +0.000 A 
ENDBRANCH  15  16
ENDBRANCH   8  15
TORSDOF 2
ENDMDL
MODEL 3
REMARK VINA RESULT:      -7.7      1.560      1.899
REMARK  Name = 
REMARK  4 active torsions:
REMARK  status: ('A' for Active; 'I' for Inactive)
REMARK    1  A    between atoms: C_1  and  C_2
REMARK    2  A    between atoms: N_8  and  C_9
REMARK    3  A    between atoms: C_9  and  C_10
REMARK    4  A    between atoms: C_20  and  C_21
REMARK                            x       y       z     vdW  Elec       q    Type
REMARK                         _______ _______ _______ _____ _____    ______ ____
ROOT
ATOM      1  C   UNL     1       7.663   5.025  11.831  0.00  0.00    +0.000 C 
ATOM      2  C   UNL     1       6.998   4.701  13.143  0.00  0.00    +0.000 A 
ATOM      3  C   UNL     1       7.560   5.206  14.332  0.00  0.00    +0.000 A 
ATOM      4  C   UNL     1       6.981   4.881  15.568  0.00  0.00    +0.000 A 
ATOM      5  N   UNL     1       7.375   5.226  16.834  0.00  0.00    +0.000 NA
ATOM      6  C   UNL     1       6.532   4.632  17.641  0.00  0.00    +0.000 A 
ATOM      7  N   UNL     1       6.582   4.665  18.985  0.00  0.00    +0.000 N 
ATOM      8  N   UNL     1       5.581   3.927  16.944  0.00  0.00    +0.000 N 
ATOM      9  C   UNL     1       5.849   4.076  15.598  0.00  0.00    +0.000 A 
ATOM     10  C   UNL     1       5.247   3.578  14.436  0.00  0.00    +0.000 A 
ATOM     11  C   UNL     1       5.848   3.883  13.198  0.00  0.00    +0.000 A 
ATOM     12  C   UNL     1       5.249   3.301  11.944  0.00  0.00    +0.000 C 
ATOM     13  H   UNL     1       7.240   5.346  19.359  0.00  0.00    +0.000 HD
ATOM     14  H   UNL     1       5.728   4.618  19.527  0.00  0.00    +0.000 HD
ENDROOT
BRANCH   8  15
ATOM     15  C   UNL     1       4.622   2.992  17.510  0.00  0.00    +0.000 C 
BRANCH  15  16
ATOM     16  C   UNL     1       3.556   3.624  18.381  0.00  0.00    +0.000 A 
ATOM     17  C   UNL     1       3.061   4.892  18.024  0.00  0.00    +0.000 A 
ATOM     18  C   UNL     1       2.189   5.585  18.867  0.00  0.00    +0.000 A 
ATOM     19  C   UNL     1       1.806   5.021  20.077  0.00  0.00    +0.000 A 
ATOM     20  F   UNL     1       0.998   5.721  20.887  0.00  0.00    +0.000 F 
ATOM     21  C   UNL     1       2.270   3.761  20.446  0.00  0.00    +0.000 A 
ATOM     22 CL   UNL     1       1.809   3.064  21.951  0.00  0.00    +0.000 Cl
ATOM     23  C   UNL     1       3.141   3.063  19.602  0.00  0.00    +0.000 A 
ENDBRANCH  15  16
ENDBRANCH   8  15
TORSDOF 2
ENDMDL
MODEL 4
REMARK VINA RESULT:      -7.7      3.678      6.717
REMARK  Name = 
REMARK  4 active torsions:
REMARK  status: ('A' for Active; 'I' for Inactive)
REMARK    1  A    between atoms: C_1  and  C_2
REMARK    2  A    between atoms: N_8  and  C_9
REMARK    3  A    between atoms: C_9  and  C_10
REMARK    4  A    between atoms: C_20  and  C_21
REMARK                            x       y       z     vdW  Elec       q    Type
REMARK                         _______ _______ _______ _____ _____    ______ ____
ROOT
ATOM      1  C   UNL     1       2.129   2.502  20.954  0.00  0.00    +0.000 C 
ATOM      2  C   UNL     1       2.935   3.118  19.840  0.00  0.00    +0.000 A 
ATOM      3  C   UNL     1       4.292   3.419  20.071  0.00  0.00    +0.000 A 
ATOM      4  C   UNL     1       5.051   4.031  19.062  0.00  0.00    +0.000 A 
ATOM      5  N   UNL     1       6.358   4.441  19.079  0.00  0.00    +0.000 NA
ATOM      6  C   UNL     1       6.571   4.994  17.912  0.00  0.00    +0.000 A 
ATOM      7  N   UNL     1       7.719   5.576  17.521  0.00  0.00    +0.000 N 
ATOM      8  N   UNL     1       5.451   4.940  17.119  0.00  0.00    +0.000 N 
ATOM      9  C   UNL     1       4.453   4.317  17.841  0.00  0.00    +0.000 A 
ATOM     10  C   UNL     1       3.115   4.007  17.565  0.00  0.00    +0.000 A 
ATOM     11  C   UNL     1       2.349   3.418  18.591  0.00  0.00    +0.000 A 
ATOM     12  C   UNL     1       0.891   3.139  18.331  0.00  0.00    +0.000 C 
ATOM     13  H   UNL     1       8.503   5.407  18.146  0.00  0.00    +0.000 HD
ATOM     14  H   UNL     1       7.993   5.557  16.547  0.00  0.00    +0.000 HD
ENDROOT
BRANCH   8  15
ATOM     15  C   UNL     1       5.264   5.629  15.852  0.00  0.00    +0.000 C 
BRANCH  15  16
ATOM     16  C   UNL     1       5.905   4.951  14.659  0.00  0.00    +0.000 A 
ATOM     17  C   UNL     1       7.204   5.342  14.282  0.00  0.00    +0.000 A 
ATOM     18  C   UNL     1       7.786   4.860  13.107  0.00  0.00    +0.000 A 
ATOM     19  C   UNL     1       7.075   3.986  12.294  0.00  0.00    +0.000 A 
ATOM     20  F   UNL     1       7.639   3.565  11.152  0.00  0.00    +0.000 F 
ATOM     21  C   UNL     1       5.795   3.573  12.653  0.00  0.00    +0.000 A 
ATOM     22 CL   UNL     1       4.905   2.501  11.642  0.00  0.00    +0.000 Cl
ATOM     23  C   UNL     1       5.211   4.051  13.831  0.00  0.00    +0.000 A 
ENDBRANCH  15  16
ENDBRANCH   8  15
TORSDOF 2
ENDMDL
MODEL 5
REMARK VINA RESULT:      -7.5      2.424      3.982
REMARK  Name = 
REMARK  4 active torsions:
REMARK  status: ('A' for Active; 'I' for Inactive)
REMARK    1  A    between atoms: C_1  and  C_2
REMARK    2  A    between atoms: N_8  and  C_9
REMARK    3  A    between atoms: C_9  and  C_10
REMARK    4  A    between atoms: C_20  and  C_21
REMARK                            x       y       z     vdW  Elec       q    Type
REMARK                         _______ _______ _______ _____ _____    ______ ____
ROOT
ATOM      1  C   UNL     1       7.066   4.631  15.454  0.00  0.00    +0.000 C 
ATOM      2  C   UNL     1       6.011   4.583  16.528  0.00  0.00    +0.000 A 
ATOM      3  C   UNL     1       4.789   3.940  16.250  0.00  0.00    +0.000 A 
ATOM      4  C   UNL     1       3.776   3.920  17.221  0.00  0.00    +0.000 A 
ATOM      5  N   UNL     1       2.514   3.391  17.155  0.00  0.00    +0.000 NA
ATOM      6  C   UNL     1       1.950   3.678  18.302  0.00  0.00    +0.000 A 
ATOM      7  N   UNL     1       0.683   3.385  18.643  0.00  0.00    +0.000 N 
ATOM      8  N   UNL     1       2.811   4.359  19.128  0.00  0.00    +0.000 N 
ATOM      9  C   UNL     1       4.002   4.524  18.451  0.00  0.00    +0.000 A 
ATOM     10  C   UNL     1       5.213   5.149  18.773  0.00  0.00    +0.000 A 
ATOM     11  C   UNL     1       6.218   5.192  17.785  0.00  0.00    +0.000 A 
ATOM     12  C   UNL     1       7.502   5.917  18.094  0.00  0.00    +0.000 C 
ATOM     13  H   UNL     1       0.216   2.749  18.000  0.00  0.00    +0.000 HD
ATOM     14  H   UNL     1       0.448   3.194  19.610  0.00  0.00    +0.000 HD
ENDROOT
BRANCH   8  15
ATOM     15  C   UNL     1       2.461   5.007  20.382  0.00  0.00    +0.000 C 
BRANCH  15  16
ATOM     16  C   UNL     1       2.080   6.468  20.258  0.00  0.00    +0.000 A 
ATOM     17  C   UNL     1       1.335   7.058  21.296  0.00  0.00    +0.000 A 
ATOM     18  C   UNL     1       0.831   8.355  21.169  0.00  0.00    +0.000 A 
ATOM     19  C   UNL     1       1.063   9.074  20.003  0.00  0.00    +0.000 A 
ATOM     20  F   UNL     1       0.538  10.303  19.889  0.00  0.00    +0.000 F 
ATOM     21  C   UNL     1       1.812   8.518  18.969  0.00  0.00    +0.000 A 
ATOM     22 CL   UNL     1       2.090   9.400  17.517  0.00  0.00    +0.000 Cl
ATOM     23  C   UNL     1       2.320   7.220  19.094  0.00  0.00    +0.000 A 
ENDBRANCH  15  16
ENDBRANCH   8  15
TORSDOF 2
ENDMDL
MODEL 6
REMARK VINA RESULT:      -7.4      3.450      6.389
REMARK  Name = 
REMARK  4 active torsions:
REMARK  status: ('A' for Active; 'I' for Inactive)
REMARK    1  A    between atoms: C_1  and  C_2
REMARK    2  A    between atoms: N_8  and  C_9
REMARK    3  A    between atoms: C_9  and  C_10
REMARK    4  A    between atoms: C_20  and  C_21
REMARK                            x       y       z     vdW  Elec       q    Type
REMARK                         _______ _______ _______ _____ _____    ______ ____
ROOT
ATOM      1  C   UNL     1       1.093   9.281  20.290  0.00  0.00    +0.000 C 
ATOM      2  C   UNL     1       1.582   7.899  19.944  0.00  0.00    +0.000 A 
ATOM      3  C   UNL     1       1.527   6.893  20.929  0.00  0.00    +0.000 A 
ATOM      4  C   UNL     1       2.016   5.610  20.641  0.00  0.00    +0.000 A 
ATOM      5  N   UNL     1       2.095   4.504  21.447  0.00  0.00    +0.000 NA
ATOM      6  C   UNL     1       2.673   3.579  20.723  0.00  0.00    +0.000 A 
ATOM      7  N   UNL     1       2.990   2.342  21.145  0.00  0.00    +0.000 N 
ATOM      8  N   UNL     1       2.955   4.035  19.458  0.00  0.00    +0.000 N 
ATOM      9  C   UNL     1       2.535   5.347  19.380  0.00  0.00    +0.000 A 
ATOM     10  C   UNL     1       2.581   6.314  18.367  0.00  0.00    +0.000 A 
ATOM     11  C   UNL     1       2.115   7.609  18.669  0.00  0.00    +0.000 A 
ATOM     12  C   UNL     1       2.218   8.676  17.610  0.00  0.00    +0.000 C 
ATOM     13  H   UNL     1       2.586   2.095  22.045  0.00  0.00    +0.000 HD
ATOM     14  H   UNL     1       2.983   1.565  20.495  0.00  0.00    +0.000 HD
ENDROOT
BRANCH   8  15
ATOM     15  C   UNL     1       3.768   3.353  18.463  0.00  0.00    +0.000 C 
BRANCH  15  16
ATOM     16  C   UNL     1       4.973   4.134  17.983  0.00  0.00    +0.000 A 
ATOM     17  C   UNL     1       5.710   4.879  18.924  0.00  0.00    +0.000 A 
ATOM     18  C   UNL     1       6.738   5.732  18.516  0.00  0.00    +0.000 A 
ATOM     19  C   UNL     1       7.038   5.855  17.165  0.00  0.00    +0.000 A 
ATOM     20  F   UNL     1       8.003   6.709  16.795  0.00  0.00    +0.000 F 
ATOM     21  C   UNL     1       6.334   5.117  16.217  0.00  0.00    +0.000 A 
ATOM     22 CL   UNL     1       6.693   5.277  14.541  0.00  0.00    +0.000 Cl
ATOM     23  C   UNL     1       5.306   4.259  16.622  0.00  0.00    +0.000 A 
ENDBRANCH  15  16
ENDBRANCH   8  15
TORSDOF 2
ENDMDL
MODEL 7
REMARK VINA RESULT:      -7.2      3.338      6.487
REMARK  Name = 
REMARK  4 active torsions:
REMARK  status: ('A' for Active; 'I' for Inactive)
REMARK    1  A    between atoms: C_1  and  C_2
REMARK    2  A    between atoms: N_8  and  C_9
REMARK    3  A    between atoms: C_9  and  C_10
REMARK    4  A    between atoms: C_20  and  C_21
REMARK                            x       y       z     vdW  Elec       q    Type
REMARK                         _______ _______ _______ _____ _____    ______ ____
ROOT
ATOM      1  C   UNL     1       1.166   9.396  20.372  0.00  0.00    +0.000 C 
ATOM      2  C   UNL     1       1.594   8.009  19.970  0.00  0.00    +0.000 A 
ATOM      3  C   UNL     1       1.517   6.973  20.921  0.00  0.00    +0.000 A 
ATOM      4  C   UNL     1       1.949   5.682  20.580  0.00  0.00    +0.000 A 
ATOM      5  N   UNL     1       2.000   4.547  21.347  0.00  0.00    +0.000 NA
ATOM      6  C   UNL     1       2.526   3.625  20.580  0.00  0.00    +0.000 A 
ATOM      7  N   UNL     1       2.801   2.363  20.953  0.00  0.00    +0.000 N 
ATOM      8  N   UNL     1       2.802   4.113  19.326  0.00  0.00    +0.000 N 
ATOM      9  C   UNL     1       2.434   5.443  19.301  0.00  0.00    +0.000 A 
ATOM     10  C   UNL     1       2.499   6.441  18.320  0.00  0.00    +0.000 A 
ATOM     11  C   UNL     1       2.090   7.743  18.675  0.00  0.00    +0.000 A 
ATOM     12  C   UNL     1       2.215   8.841  17.651  0.00  0.00    +0.000 C 
ATOM     13  H   UNL     1       2.405   2.101  21.853  0.00  0.00    +0.000 HD
ATOM     14  H   UNL     1       2.752   1.610  20.278  0.00  0.00    +0.000 HD
ENDROOT
BRANCH   8  15
ATOM     15  C   UNL     1       3.569   3.435  18.293  0.00  0.00    +0.000 C 
BRANCH  15  16
ATOM     16  C   UNL     1       4.666   4.268  17.665  0.00  0.00    +0.000 A 
ATOM     17  C   UNL     1       4.780   4.284  16.262  0.00  0.00    +0.000 A 
ATOM     18  C   UNL     1       5.858   4.913  15.636  0.00  0.00    +0.000 A 
ATOM     19  C   UNL     1       6.837   5.530  16.405  0.00  0.00    +0.000 A 
ATOM     20  F   UNL     1       7.883   6.095  15.784  0.00  0.00    +0.000 F 
ATOM     21  C   UNL     1       6.739   5.541  17.794  0.00  0.00    +0.000 A 
ATOM     22 CL   UNL     1       7.958   6.292  18.751  0.00  0.00    +0.000 Cl
ATOM     23  C   UNL     1       5.659   4.914  18.424  0.00  0.00    +0.000 A 
ENDBRANCH  15  16
ENDBRANCH   8  15
TORSDOF 2
ENDMDL
MODEL 8
REMARK VINA RESULT:      -7.2      3.162      5.110
REMARK  Name = 
REMARK  4 active torsions:
REMARK  status: ('A' for Active; 'I' for Inactive)
REMARK    1  A    between atoms: C_1  and  C_2
REMARK    2  A    between atoms: N_8  and  C_9
REMARK    3  A    between atoms: C_9  and  C_10
REMARK    4  A    between atoms: C_20  and  C_21
REMARK                            x       y       z     vdW  Elec       q    Type
REMARK                         _______ _______ _______ _____ _____    ______ ____
ROOT
ATOM      1  C   UNL     1       1.780   9.468  17.854  0.00  0.00    +0.000 C 
ATOM      2  C   UNL     1       2.726   8.307  18.017  0.00  0.00    +0.000 A 
ATOM      3  C   UNL     1       3.760   8.137  17.076  0.00  0.00    +0.000 A 
ATOM      4  C   UNL     1       4.627   7.038  17.185  0.00  0.00    +0.000 A 
ATOM      5  N   UNL     1       5.665   6.661  16.374  0.00  0.00    +0.000 NA
ATOM      6  C   UNL     1       6.121   5.543  16.880  0.00  0.00    +0.000 A 
ATOM      7  N   UNL     1       7.116   4.801  16.363  0.00  0.00    +0.000 N 
ATOM      8  N   UNL     1       5.430   5.185  18.012  0.00  0.00    +0.000 N 
ATOM      9  C   UNL     1       4.459   6.141  18.232  0.00  0.00    +0.000 A 
ATOM     10  C   UNL     1       3.460   6.293  19.202  0.00  0.00    +0.000 A 
ATOM     11  C   UNL     1       2.574   7.381  19.073  0.00  0.00    +0.000 A 
ATOM     12  C   UNL     1       1.453   7.521  20.071  0.00  0.00    +0.000 C 
ATOM     13  H   UNL     1       7.634   5.262  15.618  0.00  0.00    +0.000 HD
ATOM     14  H   UNL     1       7.719   4.262  16.973  0.00  0.00    +0.000 HD
ENDROOT
BRANCH   8  15
ATOM     15  C   UNL     1       5.529   3.913  18.711  0.00  0.00    +0.000 C 
BRANCH  15  16
ATOM     16  C   UNL     1       4.218   3.171  18.869  0.00  0.00    +0.000 A 
ATOM     17  C   UNL     1       3.590   2.663  17.717  0.00  0.00    +0.000 A 
ATOM     18  C   UNL     1       2.312   2.101  17.784  0.00  0.00    +0.000 A 
ATOM     19  C   UNL     1       1.648   2.046  19.003  0.00  0.00    +0.000 A 
ATOM     20  F   UNL     1       0.407   1.537  19.037  0.00  0.00    +0.000 F 
ATOM     21  C   UNL     1       2.255   2.528  20.160  0.00  0.00    +0.000 A 
ATOM     22 CL   UNL     1       1.428   2.473  21.669  0.00  0.00    +0.000 Cl
ATOM     23  C   UNL     1       3.535   3.088  20.096  0.00  0.00    +0.000 A 
ENDBRANCH  15  16
ENDBRANCH   8  15
TORSDOF 2
ENDMDL
MODEL 9
REMARK VINA RESULT:      -7.2      6.003      8.886
REMARK  Name = 
REMARK  4 active torsions:
REMARK  status: ('A' for Active; 'I' for Inactive)
REMARK    1  A    between atoms: C_1  and  C_2
REMARK    2  A    between atoms: N_8  and  C_9
REMARK    3  A    between atoms: C_9  and  C_10
REMARK    4  A    between atoms: C_20  and  C_21
REMARK                            x       y       z     vdW  Elec       q    Type
REMARK                         _______ _______ _______ _____ _____    ______ ____
ROOT
ATOM      1  C   UNL     1      -5.025  11.408  16.962  0.00  0.00    +0.000 C 
ATOM      2  C   UNL     1      -3.626  11.139  17.451  0.00  0.00    +0.000 A 
ATOM      3  C   UNL     1      -3.197  11.747  18.647  0.00  0.00    +0.000 A 
ATOM      4  C   UNL     1      -1.884  11.544  19.099  0.00  0.00    +0.000 A 
ATOM      5  N   UNL     1      -1.250  12.058  20.200  0.00  0.00    +0.000 NA
ATOM      6  C   UNL     1      -0.023  11.604  20.146  0.00  0.00    +0.000 A 
ATOM      7  N   UNL     1       0.959  11.904  21.014  0.00  0.00    +0.000 N 
ATOM      8  N   UNL     1       0.163  10.789  19.056  0.00  0.00    +0.000 N 
ATOM      9  C   UNL     1      -1.030  10.732  18.364  0.00  0.00    +0.000 A 
ATOM     10  C   UNL     1      -1.430  10.089  17.186  0.00  0.00    +0.000 A 
ATOM     11  C   UNL     1      -2.740  10.318  16.720  0.00  0.00    +0.000 A 
ATOM     12  C   UNL     1      -3.163   9.685  15.420  0.00  0.00    +0.000 C 
ATOM     13  H   UNL     1       0.640  12.390  21.850  0.00  0.00    +0.000 HD
ATOM     14  H   UNL     1       1.684  11.226  21.217  0.00  0.00    +0.000 HD
ENDROOT
BRANCH   8  15
ATOM     15  C   UNL     1       1.437  10.280  18.574  0.00  0.00    +0.000 C 
BRANCH  15  16
ATOM     16  C   UNL     1       1.718   8.833  18.924  0.00  0.00    +0.000 A 
ATOM     17  C   UNL     1       1.378   8.374  20.210  0.00  0.00    +0.000 A 
ATOM     18  C   UNL     1       1.746   7.096  20.637  0.00  0.00    +0.000 A 
ATOM     19  C   UNL     1       2.461   6.265  19.784  0.00  0.00    +0.000 A 
ATOM     20  F   UNL     1       2.837   5.056  20.229  0.00  0.00    +0.000 F 
ATOM     21  C   UNL     1       2.796   6.690  18.501  0.00  0.00    +0.000 A 
ATOM     22 CL   UNL     1       3.694   5.667  17.447  0.00  0.00    +0.000 Cl
ATOM     23  C   UNL     1       2.426   7.968  18.070  0.00  0.00    +0.000 A 
ENDBRANCH  15  16
ENDBRANCH   8  15
TORSDOF 2
ENDMDL
