MODEL 1
REMARK VINA RESULT:      -7.0      0.000      0.000
REMARK  Name = 
REMARK  15 active torsions:
REMARK  status: ('A' for Active; 'I' for Inactive)
REMARK    1  A    between atoms: C_1  and  C_2
REMARK    2  A    between atoms: C_2  and  C_3
REMARK    3  A    between atoms: C_3  and  C_4
REMARK    4  A    between atoms: C_4  and  N_5
REMARK    5  A    between atoms: N_5  and  C_6
REMARK    6  A    between atoms: N_5  and  C_10
REMARK    7  A    between atoms: C_6  and  C_7
REMARK    8  A    between atoms: C_7  and  C_8
REMARK    9  A    between atoms: C_8  and  C_9
REMARK   10  A    between atoms: C_10  and  C_11
REMARK   11  A    between atoms: C_11  and  C_12
REMARK   12  A    between atoms: C_12  and  O_13
REMARK   13  A    between atoms: O_13  and  C_14
REMARK   14  A    between atoms: C_17  and  C_18
REMARK   15  A    between atoms: C_22  and  C_23
REMARK                            x       y       z     vdW  Elec       q    Type
REMARK                         _______ _______ _______ _____ _____    ______ ____
ROOT
ATOM      1  C   UNL     1       3.025   5.119  19.122  0.00  0.00    +0.000 A 
ATOM      2  C   UNL     1       3.182   6.394  18.575  0.00  0.00    +0.000 A 
ATOM      3  C   UNL     1       2.525   7.484  19.132  0.00  0.00    +0.000 A 
ATOM      4  C   UNL     1       1.692   7.329  20.241  0.00  0.00    +0.000 A 
ATOM      5  C   UNL     1       1.553   6.057  20.812  0.00  0.00    +0.000 A 
ATOM      6  C   UNL     1       2.214   4.956  20.247  0.00  0.00    +0.000 A 
ENDROOT
BRANCH   4   7
ATOM      7  C   UNL     1       0.967   8.470  20.760  0.00  0.00    +0.000 A 
ATOM      8  C   UNL     1       0.806   9.659  20.080  0.00  0.00    +0.000 A 
ATOM      9  N   UNL     1       0.086  10.464  20.915  0.00  0.00    +0.000 N 
ATOM     10  C   UNL     1      -0.349  11.767  20.708  0.00  0.00    +0.000 A 
ATOM     11  C   UNL     1      -1.054  12.390  21.674  0.00  0.00    +0.000 A 
ATOM     12  C   UNL     1      -1.585  13.779  21.542  0.00  0.00    +0.000 C 
ATOM     13  C   UNL     1      -1.315  11.655  22.915  0.00  0.00    +0.000 A 
ATOM     14  C   UNL     1      -0.888  10.389  23.099  0.00  0.00    +0.000 A 
ATOM     15  C   UNL     1      -0.161   9.731  22.068  0.00  0.00    +0.000 A 
ATOM     16  N   UNL     1       0.344   8.517  21.986  0.00  0.00    +0.000 NA
ENDBRANCH   4   7
BRANCH   1  17
ATOM     17  O   UNL     1       3.613   3.980  18.624  0.00  0.00    +0.000 OA
BRANCH  17  18
ATOM     18  C   UNL     1       3.323   3.724  17.245  0.00  0.00    +0.000 C 
BRANCH  18  19
ATOM     19  C   UNL     1       4.613   3.638  16.444  0.00  0.00    +0.000 C 
BRANCH  19  20
ATOM     20  C   UNL     1       4.905   4.968  15.730  0.00  0.00    +0.000 C 
BRANCH  20  21
ATOM     21  N   UNL     1       6.076   4.963  14.814  0.00  0.00    +0.000 NA
BRANCH  21  22
ATOM     22  C   UNL     1       7.305   5.264  15.589  0.00  0.00    +0.000 C 
BRANCH  22  23
ATOM     23  C   UNL     1       7.169   5.951  16.956  0.00  0.00    +0.000 C 
BRANCH  23  25
ATOM     24  C   UNL     1       6.853   5.524  19.403  0.00  0.00    +0.000 C 
ATOM     25  C   UNL     1       7.607   5.100  18.148  0.00  0.00    +0.000 C 
ENDBRANCH  23  25
ENDBRANCH  22  23
ENDBRANCH  21  22
BRANCH  21  26
ATOM     26  C   UNL     1       6.188   3.658  14.119  0.00  0.00    +0.000 C 
BRANCH  26  27
ATOM     27  C   UNL     1       6.322   3.697  12.584  0.00  0.00    +0.000 C 
BRANCH  27  28
ATOM     28  C   UNL     1       5.499   2.638  11.847  0.00  0.00    +0.000 C 
ATOM     29  C   UNL     1       4.201   3.239  11.318  0.00  0.00    +0.000 C 
ENDBRANCH  27  28
ENDBRANCH  26  27
ENDBRANCH  21  26
ENDBRANCH  20  21
ENDBRANCH  19  20
ENDBRANCH  18  19
ENDBRANCH  17  18
ENDBRANCH   1  17
TORSDOF 12
ENDMDL
MODEL 2
REMARK VINA RESULT:      -6.8      1.014      3.497
REMARK  Name = 
REMARK  15 active torsions:
REMARK  status: ('A' for Active; 'I' for Inactive)
REMARK    1  A    between atoms: C_1  and  C_2
REMARK    2  A    between atoms: C_2  and  C_3
REMARK    3  A    between atoms: C_3  and  C_4
REMARK    4  A    between atoms: C_4  and  N_5
REMARK    5  A    between atoms: N_5  and  C_6
REMARK    6  A    between atoms: N_5  and  C_10
REMARK    7  A    between atoms: C_6  and  C_7
REMARK    8  A    between atoms: C_7  and  C_8
REMARK    9  A    between atoms: C_8  and  C_9
REMARK   10  A    between atoms: C_10  and  C_11
REMARK   11  A    between atoms: C_11  and  C_12
REMARK   12  A    between atoms: C_12  and  O_13
REMARK   13  A    between atoms: O_13  and  C_14
REMARK   14  A    between atoms: C_17  and  C_18
REMARK   15  A    between atoms: C_22  and  C_23
REMARK                            x       y       z     vdW  Elec       q    Type
REMARK                         _______ _______ _______ _____ _____    ______ ____
ROOT
ATOM      1  C   UNL     1       2.677   5.638  19.350  0.00  0.00    +0.000 A 
ATOM      2  C   UNL     1       2.824   6.818  18.618  0.00  0.00    +0.000 A 
ATOM      3  C   UNL     1       2.245   7.999  19.065  0.00  0.00    +0.000 A 
ATOM      4  C   UNL     1       1.500   8.032  20.245  0.00  0.00    +0.000 A 
ATOM      5  C   UNL     1       1.374   6.857  20.999  0.00  0.00    +0.000 A 
ATOM      6  C   UNL     1       1.956   5.663  20.545  0.00  0.00    +0.000 A 
ENDROOT
BRANCH   4   7
ATOM      7  C   UNL     1       0.853   9.260  20.653  0.00  0.00    +0.000 A 
ATOM      8  C   UNL     1       0.198   9.428  21.855  0.00  0.00    +0.000 A 
ATOM      9  N   UNL     1      -0.278  10.707  21.839  0.00  0.00    +0.000 N 
ATOM     10  C   UNL     1      -1.005  11.379  22.813  0.00  0.00    +0.000 A 
ATOM     11  C   UNL     1      -1.383  12.654  22.594  0.00  0.00    +0.000 A 
ATOM     12  C   UNL     1      -2.148  13.470  23.584  0.00  0.00    +0.000 C 
ATOM     13  C   UNL     1      -1.015  13.269  21.316  0.00  0.00    +0.000 A 
ATOM     14  C   UNL     1      -0.305  12.604  20.381  0.00  0.00    +0.000 A 
ATOM     15  C   UNL     1       0.107  11.265  20.626  0.00  0.00    +0.000 A 
ATOM     16  N   UNL     1       0.809  10.414  19.905  0.00  0.00    +0.000 NA
ENDBRANCH   4   7
BRANCH   1  17
ATOM     17  O   UNL     1       3.191   4.419  18.973  0.00  0.00    +0.000 OA
BRANCH  17  18
ATOM     18  C   UNL     1       2.602   3.874  17.787  0.00  0.00    +0.000 C 
BRANCH  18  19
ATOM     19  C   UNL     1       3.622   3.842  16.661  0.00  0.00    +0.000 C 
BRANCH  19  20
ATOM     20  C   UNL     1       5.052   3.762  17.218  0.00  0.00    +0.000 C 
BRANCH  20  21
ATOM     21  N   UNL     1       6.143   3.964  16.227  0.00  0.00    +0.000 NA
BRANCH  21  22
ATOM     22  C   UNL     1       5.548   4.228  14.894  0.00  0.00    +0.000 C 
BRANCH  22  23
ATOM     23  C   UNL     1       6.483   4.416  13.689  0.00  0.00    +0.000 C 
BRANCH  23  25
ATOM     24  C   UNL     1       4.832   3.466  12.065  0.00  0.00    +0.000 C 
ATOM     25  C   UNL     1       6.275   3.415  12.554  0.00  0.00    +0.000 C 
ENDBRANCH  23  25
ENDBRANCH  22  23
ENDBRANCH  21  22
BRANCH  21  26
ATOM     26  C   UNL     1       7.028   5.075  16.647  0.00  0.00    +0.000 C 
BRANCH  26  27
ATOM     27  C   UNL     1       7.134   5.345  18.162  0.00  0.00    +0.000 C 
BRANCH  27  28
ATOM     28  C   UNL     1       7.891   6.625  18.528  0.00  0.00    +0.000 C 
ATOM     29  C   UNL     1       7.610   7.724  17.509  0.00  0.00    +0.000 C 
ENDBRANCH  27  28
ENDBRANCH  26  27
ENDBRANCH  21  26
ENDBRANCH  20  21
ENDBRANCH  19  20
ENDBRANCH  18  19
ENDBRANCH  17  18
ENDBRANCH   1  17
TORSDOF 12
ENDMDL
MODEL 3
REMARK VINA RESULT:      -6.7      4.935      8.094
REMARK  Name = 
REMARK  15 active torsions:
REMARK  status: ('A' for Active; 'I' for Inactive)
REMARK    1  A    between atoms: C_1  and  C_2
REMARK    2  A    between atoms: C_2  and  C_3
REMARK    3  A    between atoms: C_3  and  C_4
REMARK    4  A    between atoms: C_4  and  N_5
REMARK    5  A    between atoms: N_5  and  C_6
REMARK    6  A    between atoms: N_5  and  C_10
REMARK    7  A    between atoms: C_6  and  C_7
REMARK    8  A    between atoms: C_7  and  C_8
REMARK    9  A    between atoms: C_8  and  C_9
REMARK   10  A    between atoms: C_10  and  C_11
REMARK   11  A    between atoms: C_11  and  C_12
REMARK   12  A    between atoms: C_12  and  O_13
REMARK   13  A    between atoms: O_13  and  C_14
REMARK   14  A    between atoms: C_17  and  C_18
REMARK   15  A    between atoms: C_22  and  C_23
REMARK                            x       y       z     vdW  Elec       q    Type
REMARK                         _______ _______ _______ _____ _____    ______ ____
ROOT
ATOM      1  C   UNL     1       6.882   6.165  17.652  0.00  0.00    +0.000 A 
ATOM      2  C   UNL     1       6.660   7.350  16.948  0.00  0.00    +0.000 A 
ATOM      3  C   UNL     1       7.337   8.512  17.295  0.00  0.00    +0.000 A 
ATOM      4  C   UNL     1       8.244   8.524  18.356  0.00  0.00    +0.000 A 
ATOM      5  C   UNL     1       8.493   7.331  19.048  0.00  0.00    +0.000 A 
ATOM      6  C   UNL     1       7.807   6.158  18.699  0.00  0.00    +0.000 A 
ENDROOT
BRANCH   4   7
ATOM      7  C   UNL     1       8.885   9.764  18.739  0.00  0.00    +0.000 A 
ATOM      8  C   UNL     1       9.303  10.728  17.845  0.00  0.00    +0.000 A 
ATOM      9  N   UNL     1       9.862  11.715  18.604  0.00  0.00    +0.000 N 
ATOM     10  C   UNL     1      10.432  12.914  18.194  0.00  0.00    +0.000 A 
ATOM     11  C   UNL     1      10.933  13.757  19.117  0.00  0.00    +0.000 A 
ATOM     12  C   UNL     1      11.546  15.077  18.782  0.00  0.00    +0.000 C 
ATOM     13  C   UNL     1      10.865  13.355  20.524  0.00  0.00    +0.000 A 
ATOM     14  C   UNL     1      10.305  12.188  20.908  0.00  0.00    +0.000 A 
ATOM     15  C   UNL     1       9.760  11.311  19.930  0.00  0.00    +0.000 A 
ATOM     16  N   UNL     1       9.154  10.146  20.033  0.00  0.00    +0.000 NA
ENDBRANCH   4   7
BRANCH   1  17
ATOM     17  O   UNL     1       6.241   4.975  17.397  0.00  0.00    +0.000 OA
BRANCH  17  18
ATOM     18  C   UNL     1       4.860   5.115  17.046  0.00  0.00    +0.000 C 
BRANCH  18  19
ATOM     19  C   UNL     1       3.982   4.446  18.091  0.00  0.00    +0.000 C 
BRANCH  19  20
ATOM     20  C   UNL     1       4.211   5.065  19.479  0.00  0.00    +0.000 C 
BRANCH  20  21
ATOM     21  N   UNL     1       2.996   5.227  20.321  0.00  0.00    +0.000 NA
BRANCH  21  22
ATOM     22  C   UNL     1       2.007   6.062  19.596  0.00  0.00    +0.000 C 
BRANCH  22  23
ATOM     23  C   UNL     1       2.305   7.555  19.391  0.00  0.00    +0.000 C 
BRANCH  23  25
ATOM     24  C   UNL     1       1.999   9.504  17.851  0.00  0.00    +0.000 C 
ATOM     25  C   UNL     1       2.310   8.014  17.934  0.00  0.00    +0.000 C 
ENDBRANCH  23  25
ENDBRANCH  22  23
ENDBRANCH  21  22
BRANCH  21  26
ATOM     26  C   UNL     1       2.425   3.904  20.671  0.00  0.00    +0.000 C 
BRANCH  26  27
ATOM     27  C   UNL     1       0.945   3.668  20.307  0.00  0.00    +0.000 C 
BRANCH  27  28
ATOM     28  C   UNL     1       0.725   2.731  19.117  0.00  0.00    +0.000 C 
ATOM     29  C   UNL     1       1.851   1.708  19.024  0.00  0.00    +0.000 C 
ENDBRANCH  27  28
ENDBRANCH  26  27
ENDBRANCH  21  26
ENDBRANCH  20  21
ENDBRANCH  19  20
ENDBRANCH  18  19
ENDBRANCH  17  18
ENDBRANCH   1  17
TORSDOF 12
ENDMDL
MODEL 4
REMARK VINA RESULT:      -6.7      1.744      3.954
REMARK  Name = 
REMARK  15 active torsions:
REMARK  status: ('A' for Active; 'I' for Inactive)
REMARK    1  A    between atoms: C_1  and  C_2
REMARK    2  A    between atoms: C_2  and  C_3
REMARK    3  A    between atoms: C_3  and  C_4
REMARK    4  A    between atoms: C_4  and  N_5
REMARK    5  A    between atoms: N_5  and  C_6
REMARK    6  A    between atoms: N_5  and  C_10
REMARK    7  A    between atoms: C_6  and  C_7
REMARK    8  A    between atoms: C_7  and  C_8
REMARK    9  A    between atoms: C_8  and  C_9
REMARK   10  A    between atoms: C_10  and  C_11
REMARK   11  A    between atoms: C_11  and  C_12
REMARK   12  A    between atoms: C_12  and  O_13
REMARK   13  A    between atoms: O_13  and  C_14
REMARK   14  A    between atoms: C_17  and  C_18
REMARK   15  A    between atoms: C_22  and  C_23
REMARK                            x       y       z     vdW  Elec       q    Type
REMARK                         _______ _______ _______ _____ _____    ______ ____
ROOT
ATOM      1  C   UNL     1       2.955   7.040  18.319  0.00  0.00    +0.000 A 
ATOM      2  C   UNL     1       2.778   8.133  17.468  0.00  0.00    +0.000 A 
ATOM      3  C   UNL     1       2.045   9.237  17.885  0.00  0.00    +0.000 A 
ATOM      4  C   UNL     1       1.464   9.275  19.153  0.00  0.00    +0.000 A 
ATOM      5  C   UNL     1       1.663   8.194  20.022  0.00  0.00    +0.000 A 
ATOM      6  C   UNL     1       2.401   7.078  19.600  0.00  0.00    +0.000 A 
ENDROOT
BRANCH   4   7
ATOM      7  C   UNL     1       0.649  10.409  19.536  0.00  0.00    +0.000 A 
ATOM      8  C   UNL     1      -0.728  10.382  19.609  0.00  0.00    +0.000 A 
ATOM      9  N   UNL     1      -1.100  11.640  19.986  0.00  0.00    +0.000 N 
ATOM     10  C   UNL     1      -2.376  12.143  20.208  0.00  0.00    +0.000 A 
ATOM     11  C   UNL     1      -2.524  13.430  20.578  0.00  0.00    +0.000 A 
ATOM     12  C   UNL     1      -3.849  14.059  20.860  0.00  0.00    +0.000 C 
ATOM     13  C   UNL     1      -1.317  14.248  20.715  0.00  0.00    +0.000 A 
ATOM     14  C   UNL     1      -0.084  13.745  20.500  0.00  0.00    +0.000 A 
ATOM     15  C   UNL     1       0.068  12.380  20.128  0.00  0.00    +0.000 A 
ATOM     16  N   UNL     1       1.135  11.649  19.881  0.00  0.00    +0.000 NA
ENDBRANCH   4   7
BRANCH   1  17
ATOM     17  O   UNL     1       3.641   5.896  17.985  0.00  0.00    +0.000 OA
BRANCH  17  18
ATOM     18  C   UNL     1       3.752   4.946  19.050  0.00  0.00    +0.000 C 
BRANCH  18  19
ATOM     19  C   UNL     1       4.986   4.080  18.855  0.00  0.00    +0.000 C 
BRANCH  19  20
ATOM     20  C   UNL     1       5.282   3.873  17.362  0.00  0.00    +0.000 C 
BRANCH  20  21
ATOM     21  N   UNL     1       6.567   4.440  16.874  0.00  0.00    +0.000 NA
BRANCH  21  22
ATOM     22  C   UNL     1       6.339   5.127  15.578  0.00  0.00    +0.000 C 
BRANCH  22  23
ATOM     23  C   UNL     1       5.528   4.406  14.491  0.00  0.00    +0.000 C 
BRANCH  23  25
ATOM     24  C   UNL     1       5.453   3.376  12.210  0.00  0.00    +0.000 C 
ATOM     25  C   UNL     1       6.362   3.823  13.350  0.00  0.00    +0.000 C 
ENDBRANCH  23  25
ENDBRANCH  22  23
ENDBRANCH  21  22
BRANCH  21  26
ATOM     26  C   UNL     1       7.140   5.369  17.878  0.00  0.00    +0.000 C 
BRANCH  26  27
ATOM     27  C   UNL     1       7.247   6.852  17.470  0.00  0.00    +0.000 C 
BRANCH  27  28
ATOM     28  C   UNL     1       8.211   7.678  18.326  0.00  0.00    +0.000 C 
ATOM     29  C   UNL     1       8.177   9.145  17.908  0.00  0.00    +0.000 C 
ENDBRANCH  27  28
ENDBRANCH  26  27
ENDBRANCH  21  26
ENDBRANCH  20  21
ENDBRANCH  19  20
ENDBRANCH  18  19
ENDBRANCH  17  18
ENDBRANCH   1  17
TORSDOF 12
ENDMDL
MODEL 5
REMARK VINA RESULT:      -6.6      1.659      3.279
REMARK  Name = 
REMARK  15 active torsions:
REMARK  status: ('A' for Active; 'I' for Inactive)
REMARK    1  A    between atoms: C_1  and  C_2
REMARK    2  A    between atoms: C_2  and  C_3
REMARK    3  A    between atoms: C_3  and  C_4
REMARK    4  A    between atoms: C_4  and  N_5
REMARK    5  A    between atoms: N_5  and  C_6
REMARK    6  A    between atoms: N_5  and  C_10
REMARK    7  A    between atoms: C_6  and  C_7
REMARK    8  A    between atoms: C_7  and  C_8
REMARK    9  A    between atoms: C_8  and  C_9
REMARK   10  A    between atoms: C_10  and  C_11
REMARK   11  A    between atoms: C_11  and  C_12
REMARK   12  A    between atoms: C_12  and  O_13
REMARK   13  A    between atoms: O_13  and  C_14
REMARK   14  A    between atoms: C_17  and  C_18
REMARK   15  A    between atoms: C_22  and  C_23
REMARK                            x       y       z     vdW  Elec       q    Type
REMARK                         _______ _______ _______ _____ _____    ______ ____
ROOT
ATOM      1  C   UNL     1       2.582   7.591  18.501  0.00  0.00    +0.000 A 
ATOM      2  C   UNL     1       2.209   7.494  19.843  0.00  0.00    +0.000 A 
ATOM      3  C   UNL     1       1.338   8.422  20.399  0.00  0.00    +0.000 A 
ATOM      4  C   UNL     1       0.825   9.472  19.637  0.00  0.00    +0.000 A 
ATOM      5  C   UNL     1       1.173   9.558  18.282  0.00  0.00    +0.000 A 
ATOM      6  C   UNL     1       2.055   8.623  17.721  0.00  0.00    +0.000 A 
ENDROOT
BRANCH   4   7
ATOM      7  C   UNL     1      -0.027  10.463  20.259  0.00  0.00    +0.000 A 
ATOM      8  C   UNL     1      -0.045  10.728  21.613  0.00  0.00    +0.000 A 
ATOM      9  N   UNL     1      -0.985  11.703  21.783  0.00  0.00    +0.000 N 
ATOM     10  C   UNL     1      -1.388  12.330  22.956  0.00  0.00    +0.000 A 
ATOM     11  C   UNL     1      -2.345  13.278  22.904  0.00  0.00    +0.000 A 
ATOM     12  C   UNL     1      -2.833  14.024  24.102  0.00  0.00    +0.000 C 
ATOM     13  C   UNL     1      -2.928  13.592  21.597  0.00  0.00    +0.000 A 
ATOM     14  C   UNL     1      -2.523  12.978  20.466  0.00  0.00    +0.000 A 
ATOM     15  C   UNL     1      -1.500  11.991  20.526  0.00  0.00    +0.000 A 
ATOM     16  N   UNL     1      -0.919  11.268  19.590  0.00  0.00    +0.000 NA
ENDBRANCH   4   7
BRANCH   1  17
ATOM     17  O   UNL     1       3.456   6.736  17.872  0.00  0.00    +0.000 OA
BRANCH  17  18
ATOM     18  C   UNL     1       4.456   7.394  17.085  0.00  0.00    +0.000 C 
BRANCH  18  19
ATOM     19  C   UNL     1       5.771   6.636  17.166  0.00  0.00    +0.000 C 
BRANCH  19  20
ATOM     20  C   UNL     1       5.625   5.375  18.033  0.00  0.00    +0.000 C 
BRANCH  20  21
ATOM     21  N   UNL     1       5.621   4.083  17.297  0.00  0.00    +0.000 NA
BRANCH  21  22
ATOM     22  C   UNL     1       4.218   3.670  17.045  0.00  0.00    +0.000 C 
BRANCH  22  23
ATOM     23  C   UNL     1       3.688   2.396  17.721  0.00  0.00    +0.000 C 
BRANCH  23  25
ATOM     24  C   UNL     1       1.648   3.839  17.883  0.00  0.00    +0.000 C 
ATOM     25  C   UNL     1       2.205   2.435  18.089  0.00  0.00    +0.000 C 
ENDBRANCH  23  25
ENDBRANCH  22  23
ENDBRANCH  21  22
BRANCH  21  26
ATOM     26  C   UNL     1       6.378   4.204  16.029  0.00  0.00    +0.000 C 
BRANCH  26  27
ATOM     27  C   UNL     1       5.586   3.991  14.723  0.00  0.00    +0.000 C 
BRANCH  27  28
ATOM     28  C   UNL     1       6.430   4.063  13.448  0.00  0.00    +0.000 C 
ATOM     29  C   UNL     1       5.760   3.293  12.316  0.00  0.00    +0.000 C 
ENDBRANCH  27  28
ENDBRANCH  26  27
ENDBRANCH  21  26
ENDBRANCH  20  21
ENDBRANCH  19  20
ENDBRANCH  18  19
ENDBRANCH  17  18
ENDBRANCH   1  17
TORSDOF 12
ENDMDL
MODEL 6
REMARK VINA RESULT:      -6.6      1.483      2.385
REMARK  Name = 
REMARK  15 active torsions:
REMARK  status: ('A' for Active; 'I' for Inactive)
REMARK    1  A    between atoms: C_1  and  C_2
REMARK    2  A    between atoms: C_2  and  C_3
REMARK    3  A    between atoms: C_3  and  C_4
REMARK    4  A    between atoms: C_4  and  N_5
REMARK    5  A    between atoms: N_5  and  C_6
REMARK    6  A    between atoms: N_5  and  C_10
REMARK    7  A    between atoms: C_6  and  C_7
REMARK    8  A    between atoms: C_7  and  C_8
REMARK    9  A    between atoms: C_8  and  C_9
REMARK   10  A    between atoms: C_10  and  C_11
REMARK   11  A    between atoms: C_11  and  C_12
REMARK   12  A    between atoms: C_12  and  O_13
REMARK   13  A    between atoms: O_13  and  C_14
REMARK   14  A    between atoms: C_17  and  C_18
REMARK   15  A    between atoms: C_22  and  C_23
REMARK                            x       y       z     vdW  Elec       q    Type
REMARK                         _______ _______ _______ _____ _____    ______ ____
ROOT
ATOM      1  C   UNL     1       2.177   7.294  19.605  0.00  0.00    +0.000 A 
ATOM      2  C   UNL     1       2.006   8.386  18.753  0.00  0.00    +0.000 A 
ATOM      3  C   UNL     1       1.303   9.506  19.178  0.00  0.00    +0.000 A 
ATOM      4  C   UNL     1       0.746   9.561  20.457  0.00  0.00    +0.000 A 
ATOM      5  C   UNL     1       0.939   8.480  21.326  0.00  0.00    +0.000 A 
ATOM      6  C   UNL     1       1.647   7.347  20.896  0.00  0.00    +0.000 A 
ENDROOT
BRANCH   4   7
ATOM      7  C   UNL     1      -0.038  10.712  20.850  0.00  0.00    +0.000 A 
ATOM      8  C   UNL     1      -1.002  11.300  20.056  0.00  0.00    +0.000 A 
ATOM      9  N   UNL     1      -1.486  12.349  20.783  0.00  0.00    +0.000 N 
ATOM     10  C   UNL     1      -2.475  13.263  20.442  0.00  0.00    +0.000 A 
ATOM     11  C   UNL     1      -2.806  14.235  21.315  0.00  0.00    +0.000 A 
ATOM     12  C   UNL     1      -3.868  15.252  21.054  0.00  0.00    +0.000 C 
ATOM     13  C   UNL     1      -2.084  14.289  22.589  0.00  0.00    +0.000 A 
ATOM     14  C   UNL     1      -1.127  13.392  22.907  0.00  0.00    +0.000 A 
ATOM     15  C   UNL     1      -0.796  12.356  21.989  0.00  0.00    +0.000 A 
ATOM     16  N   UNL     1       0.066  11.363  22.058  0.00  0.00    +0.000 NA
ENDBRANCH   4   7
BRANCH   1  17
ATOM     17  O   UNL     1       2.834   6.135  19.263  0.00  0.00    +0.000 OA
BRANCH  17  18
ATOM     18  C   UNL     1       3.568   6.215  18.036  0.00  0.00    +0.000 C 
BRANCH  18  19
ATOM     19  C   UNL     1       3.591   4.860  17.348  0.00  0.00    +0.000 C 
BRANCH  19  20
ATOM     20  C   UNL     1       4.937   4.153  17.571  0.00  0.00    +0.000 C 
BRANCH  20  21
ATOM     21  N   UNL     1       6.067   4.640  16.736  0.00  0.00    +0.000 NA
BRANCH  21  22
ATOM     22  C   UNL     1       7.285   4.747  17.577  0.00  0.00    +0.000 C 
BRANCH  22  23
ATOM     23  C   UNL     1       7.269   5.689  18.790  0.00  0.00    +0.000 C 
BRANCH  23  25
ATOM     24  C   UNL     1       7.596   7.807  17.497  0.00  0.00    +0.000 C 
ATOM     25  C   UNL     1       8.125   6.945  18.637  0.00  0.00    +0.000 C 
ENDBRANCH  23  25
ENDBRANCH  22  23
ENDBRANCH  21  22
BRANCH  21  26
ATOM     26  C   UNL     1       6.290   3.734  15.584  0.00  0.00    +0.000 C 
BRANCH  26  27
ATOM     27  C   UNL     1       6.442   4.396  14.199  0.00  0.00    +0.000 C 
BRANCH  27  28
ATOM     28  C   UNL     1       5.513   3.834  13.121  0.00  0.00    +0.000 C 
ATOM     29  C   UNL     1       6.318   3.142  12.026  0.00  0.00    +0.000 C 
ENDBRANCH  27  28
ENDBRANCH  26  27
ENDBRANCH  21  26
ENDBRANCH  20  21
ENDBRANCH  19  20
ENDBRANCH  18  19
ENDBRANCH  17  18
ENDBRANCH   1  17
TORSDOF 12
ENDMDL
MODEL 7
REMARK VINA RESULT:      -6.5      2.429      4.410
REMARK  Name = 
REMARK  15 active torsions:
REMARK  status: ('A' for Active; 'I' for Inactive)
REMARK    1  A    between atoms: C_1  and  C_2
REMARK    2  A    between atoms: C_2  and  C_3
REMARK    3  A    between atoms: C_3  and  C_4
REMARK    4  A    between atoms: C_4  and  N_5
REMARK    5  A    between atoms: N_5  and  C_6
REMARK    6  A    between atoms: N_5  and  C_10
REMARK    7  A    between atoms: C_6  and  C_7
REMARK    8  A    between atoms: C_7  and  C_8
REMARK    9  A    between atoms: C_8  and  C_9
REMARK   10  A    between atoms: C_10  and  C_11
REMARK   11  A    between atoms: C_11  and  C_12
REMARK   12  A    between atoms: C_12  and  O_13
REMARK   13  A    between atoms: O_13  and  C_14
REMARK   14  A    between atoms: C_17  and  C_18
REMARK   15  A    between atoms: C_22  and  C_23
REMARK                            x       y       z     vdW  Elec       q    Type
REMARK                         _______ _______ _______ _____ _____    ______ ____
ROOT
ATOM      1  C   UNL     1       2.238   8.047  18.776  0.00  0.00    +0.000 A 
ATOM      2  C   UNL     1       1.838   7.889  20.104  0.00  0.00    +0.000 A 
ATOM      3  C   UNL     1       0.916   8.760  20.670  0.00  0.00    +0.000 A 
ATOM      4  C   UNL     1       0.378   9.814  19.931  0.00  0.00    +0.000 A 
ATOM      5  C   UNL     1       0.753   9.962  18.588  0.00  0.00    +0.000 A 
ATOM      6  C   UNL     1       1.687   9.083  18.018  0.00  0.00    +0.000 A 
ENDROOT
BRANCH   4   7
ATOM      7  C   UNL     1      -0.529  10.747  20.565  0.00  0.00    +0.000 A 
ATOM      8  C   UNL     1      -0.711  10.844  21.929  0.00  0.00    +0.000 A 
ATOM      9  N   UNL     1      -1.649  11.820  22.105  0.00  0.00    +0.000 N 
ATOM     10  C   UNL     1      -2.185  12.310  23.290  0.00  0.00    +0.000 A 
ATOM     11  C   UNL     1      -3.113  13.286  23.242  0.00  0.00    +0.000 A 
ATOM     12  C   UNL     1      -3.734  13.894  24.456  0.00  0.00    +0.000 C 
ATOM     13  C   UNL     1      -3.524  13.777  21.924  0.00  0.00    +0.000 A 
ATOM     14  C   UNL     1      -2.992  13.294  20.782  0.00  0.00    +0.000 A 
ATOM     15  C   UNL     1      -1.999  12.276  20.841  0.00  0.00    +0.000 A 
ATOM     16  N   UNL     1      -1.319  11.656  19.899  0.00  0.00    +0.000 NA
ENDBRANCH   4   7
BRANCH   1  17
ATOM     17  O   UNL     1       3.161   7.252  18.139  0.00  0.00    +0.000 OA
BRANCH  17  18
ATOM     18  C   UNL     1       2.738   5.897  17.948  0.00  0.00    +0.000 C 
BRANCH  18  19
ATOM     19  C   UNL     1       3.822   5.103  17.238  0.00  0.00    +0.000 C 
BRANCH  19  20
ATOM     20  C   UNL     1       4.001   3.720  17.884  0.00  0.00    +0.000 C 
BRANCH  20  21
ATOM     21  N   UNL     1       5.100   3.610  18.879  0.00  0.00    +0.000 NA
BRANCH  21  22
ATOM     22  C   UNL     1       5.576   4.971  19.234  0.00  0.00    +0.000 C 
BRANCH  22  23
ATOM     23  C   UNL     1       6.990   5.395  18.810  0.00  0.00    +0.000 C 
BRANCH  23  25
ATOM     24  C   UNL     1       7.239   5.078  16.340  0.00  0.00    +0.000 C 
ATOM     25  C   UNL     1       7.616   4.535  17.713  0.00  0.00    +0.000 C 
ENDBRANCH  23  25
ENDBRANCH  22  23
ENDBRANCH  21  22
BRANCH  21  26
ATOM     26  C   UNL     1       4.641   2.874  20.081  0.00  0.00    +0.000 C 
BRANCH  26  27
ATOM     27  C   UNL     1       3.143   2.519  20.149  0.00  0.00    +0.000 C 
BRANCH  27  28
ATOM     28  C   UNL     1       2.383   3.183  21.300  0.00  0.00    +0.000 C 
ATOM     29  C   UNL     1       1.259   4.063  20.764  0.00  0.00    +0.000 C 
ENDBRANCH  27  28
ENDBRANCH  26  27
ENDBRANCH  21  26
ENDBRANCH  20  21
ENDBRANCH  19  20
ENDBRANCH  18  19
ENDBRANCH  17  18
ENDBRANCH   1  17
TORSDOF 12
ENDMDL
MODEL 8
REMARK VINA RESULT:      -6.5      1.758      4.028
REMARK  Name = 
REMARK  15 active torsions:
REMARK  status: ('A' for Active; 'I' for Inactive)
REMARK    1  A    between atoms: C_1  and  C_2
REMARK    2  A    between atoms: C_2  and  C_3
REMARK    3  A    between atoms: C_3  and  C_4
REMARK    4  A    between atoms: C_4  and  N_5
REMARK    5  A    between atoms: N_5  and  C_6
REMARK    6  A    between atoms: N_5  and  C_10
REMARK    7  A    between atoms: C_6  and  C_7
REMARK    8  A    between atoms: C_7  and  C_8
REMARK    9  A    between atoms: C_8  and  C_9
REMARK   10  A    between atoms: C_10  and  C_11
REMARK   11  A    between atoms: C_11  and  C_12
REMARK   12  A    between atoms: C_12  and  O_13
REMARK   13  A    between atoms: O_13  and  C_14
REMARK   14  A    between atoms: C_17  and  C_18
REMARK   15  A    between atoms: C_22  and  C_23
REMARK                            x       y       z     vdW  Elec       q    Type
REMARK                         _______ _______ _______ _____ _____    ______ ____
ROOT
ATOM      1  C   UNL     1       2.225   7.972  18.540  0.00  0.00    +0.000 A 
ATOM      2  C   UNL     1       1.648   9.029  17.834  0.00  0.00    +0.000 A 
ATOM      3  C   UNL     1       0.850   9.959  18.489  0.00  0.00    +0.000 A 
ATOM      4  C   UNL     1       0.602   9.855  19.858  0.00  0.00    +0.000 A 
ATOM      5  C   UNL     1       1.203   8.813  20.577  0.00  0.00    +0.000 A 
ATOM      6  C   UNL     1       2.006   7.871  19.915  0.00  0.00    +0.000 A 
ENDROOT
BRANCH   4   7
ATOM      7  C   UNL     1      -0.286  10.799  20.502  0.00  0.00    +0.000 A 
ATOM      8  C   UNL     1      -0.613  10.763  21.841  0.00  0.00    +0.000 A 
ATOM      9  N   UNL     1      -1.476  11.803  22.036  0.00  0.00    +0.000 N 
ATOM     10  C   UNL     1      -2.100  12.211  23.208  0.00  0.00    +0.000 A 
ATOM     11  C   UNL     1      -2.926  13.275  23.181  0.00  0.00    +0.000 A 
ATOM     12  C   UNL     1      -3.627  13.806  24.389  0.00  0.00    +0.000 C 
ATOM     13  C   UNL     1      -3.140  13.946  21.896  0.00  0.00    +0.000 A 
ATOM     14  C   UNL     1      -2.525  13.540  20.766  0.00  0.00    +0.000 A 
ATOM     15  C   UNL     1      -1.638  12.428  20.805  0.00  0.00    +0.000 A 
ATOM     16  N   UNL     1      -0.911  11.849  19.871  0.00  0.00    +0.000 NA
ENDBRANCH   4   7
BRANCH   1  17
ATOM     17  O   UNL     1       3.006   6.991  17.974  0.00  0.00    +0.000 OA
BRANCH  17  18
ATOM     18  C   UNL     1       3.590   6.087  18.918  0.00  0.00    +0.000 C 
BRANCH  18  19
ATOM     19  C   UNL     1       4.024   4.808  18.221  0.00  0.00    +0.000 C 
BRANCH  19  20
ATOM     20  C   UNL     1       5.422   4.375  18.690  0.00  0.00    +0.000 C 
BRANCH  20  21
ATOM     21  N   UNL     1       6.432   4.184  17.615  0.00  0.00    +0.000 NA
BRANCH  21  22
ATOM     22  C   UNL     1       5.900   4.731  16.342  0.00  0.00    +0.000 C 
BRANCH  22  23
ATOM     23  C   UNL     1       5.505   3.755  15.224  0.00  0.00    +0.000 C 
BRANCH  23  25
ATOM     24  C   UNL     1       7.241   5.100  14.024  0.00  0.00    +0.000 C 
ATOM     25  C   UNL     1       6.189   4.006  13.881  0.00  0.00    +0.000 C 
ENDBRANCH  23  25
ENDBRANCH  22  23
ENDBRANCH  21  22
BRANCH  21  26
ATOM     26  C   UNL     1       7.712   4.835  17.983  0.00  0.00    +0.000 C 
BRANCH  26  27
ATOM     27  C   UNL     1       7.631   6.282  18.508  0.00  0.00    +0.000 C 
BRANCH  27  28
ATOM     28  C   UNL     1       7.665   7.357  17.418  0.00  0.00    +0.000 C 
ATOM     29  C   UNL     1       8.067   8.705  18.006  0.00  0.00    +0.000 C 
ENDBRANCH  27  28
ENDBRANCH  26  27
ENDBRANCH  21  26
ENDBRANCH  20  21
ENDBRANCH  19  20
ENDBRANCH  18  19
ENDBRANCH  17  18
ENDBRANCH   1  17
TORSDOF 12
ENDMDL
MODEL 9
REMARK VINA RESULT:      -6.5      1.460      2.796
REMARK  Name = 
REMARK  15 active torsions:
REMARK  status: ('A' for Active; 'I' for Inactive)
REMARK    1  A    between atoms: C_1  and  C_2
REMARK    2  A    between atoms: C_2  and  C_3
REMARK    3  A    between atoms: C_3  and  C_4
REMARK    4  A    between atoms: C_4  and  N_5
REMARK    5  A    between atoms: N_5  and  C_6
REMARK    6  A    between atoms: N_5  and  C_10
REMARK    7  A    between atoms: C_6  and  C_7
REMARK    8  A    between atoms: C_7  and  C_8
REMARK    9  A    between atoms: C_8  and  C_9
REMARK   10  A    between atoms: C_10  and  C_11
REMARK   11  A    between atoms: C_11  and  C_12
REMARK   12  A    between atoms: C_12  and  O_13
REMARK   13  A    between atoms: O_13  and  C_14
REMARK   14  A    between atoms: C_17  and  C_18
REMARK   15  A    between atoms: C_22  and  C_23
REMARK                            x       y       z     vdW  Elec       q    Type
REMARK                         _______ _______ _______ _____ _____    ______ ____
ROOT
ATOM      1  C   UNL     1       2.919   7.201  18.696  0.00  0.00    +0.000 A 
ATOM      2  C   UNL     1       2.444   7.020  19.995  0.00  0.00    +0.000 A 
ATOM      3  C   UNL     1       1.528   7.911  20.540  0.00  0.00    +0.000 A 
ATOM      4  C   UNL     1       1.071   9.007  19.808  0.00  0.00    +0.000 A 
ATOM      5  C   UNL     1       1.522   9.178  18.492  0.00  0.00    +0.000 A 
ATOM      6  C   UNL     1       2.450   8.280  17.943  0.00  0.00    +0.000 A 
ENDROOT
BRANCH   4   7
ATOM      7  C   UNL     1       0.168   9.957  20.423  0.00  0.00    +0.000 A 
ATOM      8  C   UNL     1      -0.696  10.771  19.720  0.00  0.00    +0.000 A 
ATOM      9  N   UNL     1      -1.346  11.515  20.661  0.00  0.00    +0.000 N 
ATOM     10  C   UNL     1      -2.325  12.485  20.482  0.00  0.00    +0.000 A 
ATOM     11  C   UNL     1      -2.841  13.109  21.559  0.00  0.00    +0.000 A 
ATOM     12  C   UNL     1      -3.910  14.149  21.476  0.00  0.00    +0.000 C 
ATOM     13  C   UNL     1      -2.327  12.738  22.880  0.00  0.00    +0.000 A 
ATOM     14  C   UNL     1      -1.379  11.791  23.038  0.00  0.00    +0.000 A 
ATOM     15  C   UNL     1      -0.851  11.123  21.899  0.00  0.00    +0.000 A 
ATOM     16  N   UNL     1       0.049  10.168  21.777  0.00  0.00    +0.000 NA
ENDBRANCH   4   7
BRANCH   1  17
ATOM     17  O   UNL     1       3.844   6.388  18.083  0.00  0.00    +0.000 OA
BRANCH  17  18
ATOM     18  C   UNL     1       4.491   6.982  16.953  0.00  0.00    +0.000 C 
BRANCH  18  19
ATOM     19  C   UNL     1       5.852   6.342  16.730  0.00  0.00    +0.000 C 
BRANCH  19  20
ATOM     20  C   UNL     1       5.853   4.878  17.197  0.00  0.00    +0.000 C 
BRANCH  20  21
ATOM     21  N   UNL     1       5.410   3.879  16.189  0.00  0.00    +0.000 NA
BRANCH  21  22
ATOM     22  C   UNL     1       4.038   3.422  16.523  0.00  0.00    +0.000 C 
BRANCH  22  23
ATOM     23  C   UNL     1       3.772   2.833  17.916  0.00  0.00    +0.000 C 
BRANCH  23  25
ATOM     24  C   UNL     1       1.468   3.803  18.058  0.00  0.00    +0.000 C 
ATOM     25  C   UNL     1       2.303   2.537  18.217  0.00  0.00    +0.000 C 
ENDBRANCH  23  25
ENDBRANCH  22  23
ENDBRANCH  21  22
BRANCH  21  26
ATOM     26  C   UNL     1       5.464   4.457  14.825  0.00  0.00    +0.000 C 
BRANCH  26  27
ATOM     27  C   UNL     1       6.273   3.675  13.770  0.00  0.00    +0.000 C 
BRANCH  27  28
ATOM     28  C   UNL     1       5.586   3.550  12.408  0.00  0.00    +0.000 C 
ATOM     29  C   UNL     1       6.023   2.271  11.702  0.00  0.00    +0.000 C 
ENDBRANCH  27  28
ENDBRANCH  26  27
ENDBRANCH  21  26
ENDBRANCH  20  21
ENDBRANCH  19  20
ENDBRANCH  18  19
ENDBRANCH  17  18
ENDBRANCH   1  17
TORSDOF 12
ENDMDL
