MODEL 1
REMARK VINA RESULT:      -7.8      0.000      0.000
REMARK  Name = 
REMARK  10 active torsions:
REMARK  status: ('A' for Active; 'I' for Inactive)
REMARK    1  A    between atoms: C_1  and  N_2
REMARK    2  A    between atoms: C_5  and  C_6
REMARK    3  A    between atoms: C_9  and  C_10
REMARK    4  A    between atoms: C_10  and  N_11
REMARK    5  A    between atoms: C_14  and  C_15
REMARK    6  A    between atoms: C_14  and  C_20
REMARK    7  A    between atoms: C_15  and  C_16
REMARK    8  A    between atoms: C_16  and  C_17
REMARK    9  A    between atoms: C_16  and  C_18
REMARK   10  A    between atoms: C_16  and  O_19
REMARK                            x       y       z     vdW  Elec       q    Type
REMARK                         _______ _______ _______ _____ _____    ______ ____
ROOT
ATOM      1  N   UNL     1      -0.762  12.091  20.613  0.00  0.00    +0.000 N 
ATOM      2  C   UNL     1      -1.768  12.612  19.712  0.00  0.00    +0.000 C 
ATOM      3  C   UNL     1      -3.152  12.619  20.335  0.00  0.00    +0.000 C 
ATOM      4  C   UNL     1      -3.141  13.309  21.704  0.00  0.00    +0.000 C 
ATOM      5  O   UNL     1      -2.089  12.649  22.482  0.00  0.00    +0.000 OA
ATOM      6  C   UNL     1      -0.965  12.056  21.990  0.00  0.00    +0.000 C 
ATOM      7  O   UNL     1      -0.178  11.527  22.771  0.00  0.00    +0.000 OA
ENDROOT
BRANCH   4   8
ATOM      8  C   UNL     1      -4.397  13.058  22.559  0.00  0.00    +0.000 A 
ATOM      9  C   UNL     1      -5.695  13.341  22.109  0.00  0.00    +0.000 A 
ATOM     10  C   UNL     1      -6.812  13.111  22.922  0.00  0.00    +0.000 A 
ATOM     11  C   UNL     1      -6.654  12.613  24.211  0.00  0.00    +0.000 A 
ATOM     12  C   UNL     1      -5.380  12.318  24.683  0.00  0.00    +0.000 A 
ATOM     13  C   UNL     1      -4.269  12.518  23.860  0.00  0.00    +0.000 A 
ENDBRANCH   4   8
BRANCH   1  14
ATOM     14  C   UNL     1       0.608  11.919  20.094  0.00  0.00    +0.000 C 
ATOM     15  C   UNL     1       1.785  12.645  20.737  0.00  0.00    +0.000 C 
ATOM     16  C   UNL     1       1.291  13.090  19.401  0.00  0.00    +0.000 C 
BRANCH  14  20
ATOM     17  C   UNL     1       1.915   8.072  18.554  0.00  0.00    +0.000 A 
ATOM     18  C   UNL     1       1.708   8.244  19.924  0.00  0.00    +0.000 A 
ATOM     19  C   UNL     1       1.169   9.439  20.410  0.00  0.00    +0.000 A 
ATOM     20  C   UNL     1       0.842  10.502  19.548  0.00  0.00    +0.000 A 
ATOM     21  C   UNL     1       0.911  10.247  18.167  0.00  0.00    +0.000 A 
ATOM     22  C   UNL     1       1.449   9.052  17.671  0.00  0.00    +0.000 A 
BRANCH  17  27
ATOM     23  C   UNL     1       5.169   3.838  16.519  0.00  0.00    +0.000 C 
ATOM     24  N   UNL     1       4.392   4.924  17.094  0.00  0.00    +0.000 N 
ATOM     25  C   UNL     1       3.268   4.639  17.836  0.00  0.00    +0.000 A 
ATOM     26  C   UNL     1       2.508   5.621  18.336  0.00  0.00    +0.000 A 
ATOM     27  C   UNL     1       2.828   7.014  18.092  0.00  0.00    +0.000 A 
ATOM     28  C   UNL     1       3.936   7.317  17.393  0.00  0.00    +0.000 A 
ATOM     29  C   UNL     1       4.802   6.235  16.841  0.00  0.00    +0.000 A 
ATOM     30  O   UNL     1       5.805   6.532  16.196  0.00  0.00    +0.000 OA
ENDBRANCH  17  27
ENDBRANCH  14  20
ENDBRANCH   1  14
BRANCH   4  31
ATOM     31  C   UNL     1      -2.807  14.843  21.654  0.00  0.00    +0.000 C 
BRANCH  31  32
ATOM     32  C   UNL     1      -2.465  15.634  22.958  0.00  0.00    +0.000 C 
ATOM     33  C   UNL     1      -1.534  16.808  22.603  0.00  0.00    +0.000 C 
ATOM     34  C   UNL     1      -3.693  16.167  23.694  0.00  0.00    +0.000 C 
BRANCH  32  35
ATOM     35  O   UNL     1      -1.764  14.836  23.910  0.00  0.00    +0.000 OA
ATOM     36  H   UNL     1      -0.863  15.180  24.030  0.00  0.00    +0.000 HD
ENDBRANCH  32  35
ENDBRANCH  31  32
ENDBRANCH   4  31
TORSDOF 7
ENDMDL
MODEL 2
REMARK VINA RESULT:      -7.7      1.529      1.923
REMARK  Name = 
REMARK  10 active torsions:
REMARK  status: ('A' for Active; 'I' for Inactive)
REMARK    1  A    between atoms: C_1  and  N_2
REMARK    2  A    between atoms: C_5  and  C_6
REMARK    3  A    between atoms: C_9  and  C_10
REMARK    4  A    between atoms: C_10  and  N_11
REMARK    5  A    between atoms: C_14  and  C_15
REMARK    6  A    between atoms: C_14  and  C_20
REMARK    7  A    between atoms: C_15  and  C_16
REMARK    8  A    between atoms: C_16  and  C_17
REMARK    9  A    between atoms: C_16  and  C_18
REMARK   10  A    between atoms: C_16  and  O_19
REMARK                            x       y       z     vdW  Elec       q    Type
REMARK                         _______ _______ _______ _____ _____    ______ ____
ROOT
ATOM      1  N   UNL     1      -1.263  12.084  20.614  0.00  0.00    +0.000 N 
ATOM      2  C   UNL     1      -2.136  12.686  19.629  0.00  0.00    +0.000 C 
ATOM      3  C   UNL     1      -3.596  12.628  20.040  0.00  0.00    +0.000 C 
ATOM      4  C   UNL     1      -3.797  13.183  21.455  0.00  0.00    +0.000 C 
ATOM      5  O   UNL     1      -2.858  12.455  22.313  0.00  0.00    +0.000 OA
ATOM      6  C   UNL     1      -1.664  11.916  21.937  0.00  0.00    +0.000 C 
ATOM      7  O   UNL     1      -0.990  11.316  22.771  0.00  0.00    +0.000 OA
ENDROOT
BRANCH   4   8
ATOM      8  C   UNL     1      -5.160  12.847  22.089  0.00  0.00    +0.000 A 
ATOM      9  C   UNL     1      -6.252  12.379  21.344  0.00  0.00    +0.000 A 
ATOM     10  C   UNL     1      -7.481  12.097  21.955  0.00  0.00    +0.000 A 
ATOM     11  C   UNL     1      -7.649  12.295  23.322  0.00  0.00    +0.000 A 
ATOM     12  C   UNL     1      -6.582  12.752  24.086  0.00  0.00    +0.000 A 
ATOM     13  C   UNL     1      -5.349  13.003  23.481  0.00  0.00    +0.000 A 
ENDBRANCH   4   8
BRANCH   1  14
ATOM     14  C   UNL     1       0.170  11.968  20.289  0.00  0.00    +0.000 C 
ATOM     15  C   UNL     1       1.219  12.735  21.087  0.00  0.00    +0.000 C 
ATOM     16  C   UNL     1       0.896  13.168  19.695  0.00  0.00    +0.000 C 
BRANCH  14  20
ATOM     17  C   UNL     1       1.825   8.189  18.922  0.00  0.00    +0.000 A 
ATOM     18  C   UNL     1       1.466   8.353  20.262  0.00  0.00    +0.000 A 
ATOM     19  C   UNL     1       0.819   9.519  20.680  0.00  0.00    +0.000 A 
ATOM     20  C   UNL     1       0.532  10.563  19.781  0.00  0.00    +0.000 A 
ATOM     21  C   UNL     1       0.759  10.310  18.416  0.00  0.00    +0.000 A 
ATOM     22  C   UNL     1       1.406   9.142  17.988  0.00  0.00    +0.000 A 
BRANCH  17  27
ATOM     23  C   UNL     1       6.022   4.529  17.641  0.00  0.00    +0.000 C 
ATOM     24  N   UNL     1       4.906   5.413  17.930  0.00  0.00    +0.000 N 
ATOM     25  C   UNL     1       4.733   6.559  17.186  0.00  0.00    +0.000 A 
ATOM     26  C   UNL     1       3.743   7.415  17.463  0.00  0.00    +0.000 A 
ATOM     27  C   UNL     1       2.834   7.178  18.567  0.00  0.00    +0.000 A 
ATOM     28  C   UNL     1       2.965   6.051  19.291  0.00  0.00    +0.000 A 
ATOM     29  C   UNL     1       4.055   5.080  18.987  0.00  0.00    +0.000 A 
ATOM     30  O   UNL     1       4.165   4.061  19.666  0.00  0.00    +0.000 OA
ENDBRANCH  17  27
ENDBRANCH  14  20
ENDBRANCH   1  14
BRANCH   4  31
ATOM     31  C   UNL     1      -3.486  14.716  21.601  0.00  0.00    +0.000 C 
BRANCH  31  32
ATOM     32  C   UNL     1      -4.347  15.785  20.855  0.00  0.00    +0.000 C 
ATOM     33  C   UNL     1      -5.403  16.344  21.826  0.00  0.00    +0.000 C 
ATOM     34  C   UNL     1      -3.531  16.940  20.277  0.00  0.00    +0.000 C 
BRANCH  32  35
ATOM     35  O   UNL     1      -5.064  15.232  19.752  0.00  0.00    +0.000 OA
ATOM     36  H   UNL     1      -5.856  14.768  20.073  0.00  0.00    +0.000 HD
ENDBRANCH  32  35
ENDBRANCH  31  32
ENDBRANCH   4  31
TORSDOF 7
ENDMDL
MODEL 3
REMARK VINA RESULT:      -7.7      1.139      1.574
REMARK  Name = 
REMARK  10 active torsions:
REMARK  status: ('A' for Active; 'I' for Inactive)
REMARK    1  A    between atoms: C_1  and  N_2
REMARK    2  A    between atoms: C_5  and  C_6
REMARK    3  A    between atoms: C_9  and  C_10
REMARK    4  A    between atoms: C_10  and  N_11
REMARK    5  A    between atoms: C_14  and  C_15
REMARK    6  A    between atoms: C_14  and  C_20
REMARK    7  A    between atoms: C_15  and  C_16
REMARK    8  A    between atoms: C_16  and  C_17
REMARK    9  A    between atoms: C_16  and  C_18
REMARK   10  A    between atoms: C_16  and  O_19
REMARK                            x       y       z     vdW  Elec       q    Type
REMARK                         _______ _______ _______ _____ _____    ______ ____
ROOT
ATOM      1  N   UNL     1      -1.236  12.075  20.580  0.00  0.00    +0.000 N 
ATOM      2  C   UNL     1      -2.147  12.576  19.574  0.00  0.00    +0.000 C 
ATOM      3  C   UNL     1      -3.594  12.527  20.031  0.00  0.00    +0.000 C 
ATOM      4  C   UNL     1      -3.766  13.195  21.400  0.00  0.00    +0.000 C 
ATOM      5  O   UNL     1      -2.790  12.559  22.288  0.00  0.00    +0.000 OA
ATOM      6  C   UNL     1      -1.596  12.012  21.923  0.00  0.00    +0.000 C 
ATOM      7  O   UNL     1      -0.887  11.497  22.785  0.00  0.00    +0.000 OA
ENDROOT
BRANCH   4   8
ATOM      8  C   UNL     1      -5.104  12.890  22.099  0.00  0.00    +0.000 A 
ATOM      9  C   UNL     1      -5.291  13.028  23.482  0.00  0.00    +0.000 A 
ATOM     10  C   UNL     1      -6.520  12.728  24.083  0.00  0.00    +0.000 A 
ATOM     11  C   UNL     1      -7.583  12.263  23.316  0.00  0.00    +0.000 A 
ATOM     12  C   UNL     1      -7.430  12.122  21.942  0.00  0.00    +0.000 A 
ATOM     13  C   UNL     1      -6.213  12.452  21.340  0.00  0.00    +0.000 A 
ENDBRANCH   4   8
BRANCH   1  14
ATOM     14  C   UNL     1       0.190  11.957  20.223  0.00  0.00    +0.000 C 
ATOM     15  C   UNL     1       1.255  12.743  20.981  0.00  0.00    +0.000 C 
ATOM     16  C   UNL     1       0.898  13.148  19.590  0.00  0.00    +0.000 C 
BRANCH  14  20
ATOM     17  C   UNL     1       1.827   8.153  18.907  0.00  0.00    +0.000 A 
ATOM     18  C   UNL     1       1.471   8.337  20.244  0.00  0.00    +0.000 A 
ATOM     19  C   UNL     1       0.830   9.512  20.647  0.00  0.00    +0.000 A 
ATOM     20  C   UNL     1       0.545  10.544  19.734  0.00  0.00    +0.000 A 
ATOM     21  C   UNL     1       0.769  10.271  18.373  0.00  0.00    +0.000 A 
ATOM     22  C   UNL     1       1.410   9.095  17.960  0.00  0.00    +0.000 A 
BRANCH  17  27
ATOM     23  C   UNL     1       6.006   4.458  17.669  0.00  0.00    +0.000 C 
ATOM     24  N   UNL     1       4.895   5.350  17.948  0.00  0.00    +0.000 N 
ATOM     25  C   UNL     1       4.726   6.487  17.189  0.00  0.00    +0.000 A 
ATOM     26  C   UNL     1       3.739   7.351  17.455  0.00  0.00    +0.000 A 
ATOM     27  C   UNL     1       2.831   7.133  18.563  0.00  0.00    +0.000 A 
ATOM     28  C   UNL     1       2.958   6.015  19.302  0.00  0.00    +0.000 A 
ATOM     29  C   UNL     1       4.044   5.035  19.010  0.00  0.00    +0.000 A 
ATOM     30  O   UNL     1       4.150   4.025  19.703  0.00  0.00    +0.000 OA
ENDBRANCH  17  27
ENDBRANCH  14  20
ENDBRANCH   1  14
BRANCH   4  31
ATOM     31  C   UNL     1      -3.482  14.741  21.407  0.00  0.00    +0.000 C 
BRANCH  31  32
ATOM     32  C   UNL     1      -2.597  15.389  22.520  0.00  0.00    +0.000 C 
ATOM     33  C   UNL     1      -1.147  15.492  22.011  0.00  0.00    +0.000 C 
ATOM     34  C   UNL     1      -3.076  16.771  22.960  0.00  0.00    +0.000 C 
BRANCH  32  35
ATOM     35  O   UNL     1      -2.553  14.602  23.708  0.00  0.00    +0.000 OA
ATOM     36  H   UNL     1      -3.446  14.521  24.084  0.00  0.00    +0.000 HD
ENDBRANCH  32  35
ENDBRANCH  31  32
ENDBRANCH   4  31
TORSDOF 7
ENDMDL
MODEL 4
REMARK VINA RESULT:      -7.5      2.680      4.795
REMARK  Name = 
REMARK  10 active torsions:
REMARK  status: ('A' for Active; 'I' for Inactive)
REMARK    1  A    between atoms: C_1  and  N_2
REMARK    2  A    between atoms: C_5  and  C_6
REMARK    3  A    between atoms: C_9  and  C_10
REMARK    4  A    between atoms: C_10  and  N_11
REMARK    5  A    between atoms: C_14  and  C_15
REMARK    6  A    between atoms: C_14  and  C_20
REMARK    7  A    between atoms: C_15  and  C_16
REMARK    8  A    between atoms: C_16  and  C_17
REMARK    9  A    between atoms: C_16  and  C_18
REMARK   10  A    between atoms: C_16  and  O_19
REMARK                            x       y       z     vdW  Elec       q    Type
REMARK                         _______ _______ _______ _____ _____    ______ ____
ROOT
ATOM      1  N   UNL     1       0.729  11.830  20.268  0.00  0.00    +0.000 N 
ATOM      2  C   UNL     1       1.953  12.484  20.678  0.00  0.00    +0.000 C 
ATOM      3  C   UNL     1       2.212  13.761  19.900  0.00  0.00    +0.000 C 
ATOM      4  C   UNL     1       0.988  14.684  19.924  0.00  0.00    +0.000 C 
ATOM      5  O   UNL     1      -0.142  13.870  19.466  0.00  0.00    +0.000 OA
ATOM      6  C   UNL     1      -0.281  12.522  19.605  0.00  0.00    +0.000 C 
ATOM      7  O   UNL     1      -1.284  11.975  19.153  0.00  0.00    +0.000 OA
ENDROOT
BRANCH   4   8
ATOM      8  C   UNL     1       1.022  15.823  18.888  0.00  0.00    +0.000 A 
ATOM      9  C   UNL     1       2.207  16.272  18.287  0.00  0.00    +0.000 A 
ATOM     10  C   UNL     1       2.199  17.320  17.357  0.00  0.00    +0.000 A 
ATOM     11  C   UNL     1       1.008  17.956  17.024  0.00  0.00    +0.000 A 
ATOM     12  C   UNL     1      -0.183  17.528  17.599  0.00  0.00    +0.000 A 
ATOM     13  C   UNL     1      -0.178  16.462  18.501  0.00  0.00    +0.000 A 
ENDBRANCH   4   8
BRANCH   1  14
ATOM     14  C   UNL     1       0.415  10.517  20.861  0.00  0.00    +0.000 C 
ATOM     15  C   UNL     1      -0.881  10.296  21.634  0.00  0.00    +0.000 C 
ATOM     16  C   UNL     1       0.411  10.369  22.377  0.00  0.00    +0.000 C 
BRANCH  14  20
ATOM     17  C   UNL     1       2.545   7.443  18.648  0.00  0.00    +0.000 A 
ATOM     18  C   UNL     1       2.054   7.172  19.927  0.00  0.00    +0.000 A 
ATOM     19  C   UNL     1       1.262   8.113  20.591  0.00  0.00    +0.000 A 
ATOM     20  C   UNL     1       0.956   9.357  20.010  0.00  0.00    +0.000 A 
ATOM     21  C   UNL     1       1.327   9.542  18.666  0.00  0.00    +0.000 A 
ATOM     22  C   UNL     1       2.120   8.603  17.992  0.00  0.00    +0.000 A 
BRANCH  17  27
ATOM     23  C   UNL     1       7.154   4.713  16.658  0.00  0.00    +0.000 C 
ATOM     24  N   UNL     1       5.939   5.348  17.141  0.00  0.00    +0.000 N 
ATOM     25  C   UNL     1       5.348   6.345  16.398  0.00  0.00    +0.000 A 
ATOM     26  C   UNL     1       4.257   6.979  16.843  0.00  0.00    +0.000 A 
ATOM     27  C   UNL     1       3.675   6.655  18.130  0.00  0.00    +0.000 A 
ATOM     28  C   UNL     1       4.218   5.665  18.862  0.00  0.00    +0.000 A 
ATOM     29  C   UNL     1       5.426   4.939  18.374  0.00  0.00    +0.000 A 
ATOM     30  O   UNL     1       5.914   4.044  19.062  0.00  0.00    +0.000 OA
ENDBRANCH  17  27
ENDBRANCH  14  20
ENDBRANCH   1  14
BRANCH   4  31
ATOM     31  C   UNL     1       0.627  15.245  21.346  0.00  0.00    +0.000 C 
BRANCH  31  32
ATOM     32  C   UNL     1      -0.833  15.157  21.898  0.00  0.00    +0.000 C 
ATOM     33  C   UNL     1      -0.961  13.901  22.779  0.00  0.00    +0.000 C 
ATOM     34  C   UNL     1      -1.262  16.384  22.701  0.00  0.00    +0.000 C 
BRANCH  32  35
ATOM     35  O   UNL     1      -1.799  15.021  20.858  0.00  0.00    +0.000 OA
ATOM     36  H   UNL     1      -2.117  14.103  20.820  0.00  0.00    +0.000 HD
ENDBRANCH  32  35
ENDBRANCH  31  32
ENDBRANCH   4  31
TORSDOF 7
ENDMDL
MODEL 5
REMARK VINA RESULT:      -7.5      2.482      4.558
REMARK  Name = 
REMARK  10 active torsions:
REMARK  status: ('A' for Active; 'I' for Inactive)
REMARK    1  A    between atoms: C_1  and  N_2
REMARK    2  A    between atoms: C_5  and  C_6
REMARK    3  A    between atoms: C_9  and  C_10
REMARK    4  A    between atoms: C_10  and  N_11
REMARK    5  A    between atoms: C_14  and  C_15
REMARK    6  A    between atoms: C_14  and  C_20
REMARK    7  A    between atoms: C_15  and  C_16
REMARK    8  A    between atoms: C_16  and  C_17
REMARK    9  A    between atoms: C_16  and  C_18
REMARK   10  A    between atoms: C_16  and  O_19
REMARK                            x       y       z     vdW  Elec       q    Type
REMARK                         _______ _______ _______ _____ _____    ______ ____
ROOT
ATOM      1  N   UNL     1       0.846  11.475  20.362  0.00  0.00    +0.000 N 
ATOM      2  C   UNL     1       2.021  12.194  20.806  0.00  0.00    +0.000 C 
ATOM      3  C   UNL     1       2.189  13.523  20.091  0.00  0.00    +0.000 C 
ATOM      4  C   UNL     1       0.902  14.354  20.154  0.00  0.00    +0.000 C 
ATOM      5  O   UNL     1      -0.167  13.485  19.654  0.00  0.00    +0.000 OA
ATOM      6  C   UNL     1      -0.210  12.125  19.728  0.00  0.00    +0.000 C 
ATOM      7  O   UNL     1      -1.172  11.531  19.247  0.00  0.00    +0.000 OA
ENDROOT
BRANCH   4   8
ATOM      8  C   UNL     1       0.856  15.540  19.174  0.00  0.00    +0.000 A 
ATOM      9  C   UNL     1       2.009  16.137  18.644  0.00  0.00    +0.000 A 
ATOM     10  C   UNL     1       1.926  17.225  17.764  0.00  0.00    +0.000 A 
ATOM     11  C   UNL     1       0.688  17.751  17.411  0.00  0.00    +0.000 A 
ATOM     12  C   UNL     1      -0.472  17.176  17.916  0.00  0.00    +0.000 A 
ATOM     13  C   UNL     1      -0.389  16.072  18.768  0.00  0.00    +0.000 A 
ENDBRANCH   4   8
BRANCH   1  14
ATOM     14  C   UNL     1       0.626  10.116  20.890  0.00  0.00    +0.000 C 
ATOM     15  C   UNL     1      -0.608   9.791  21.726  0.00  0.00    +0.000 C 
ATOM     16  C   UNL     1       0.725   9.879  22.391  0.00  0.00    +0.000 C 
BRANCH  14  20
ATOM     17  C   UNL     1       2.738   7.260  18.387  0.00  0.00    +0.000 A 
ATOM     18  C   UNL     1       2.291   6.883  19.655  0.00  0.00    +0.000 A 
ATOM     19  C   UNL     1       1.504   7.756  20.412  0.00  0.00    +0.000 A 
ATOM     20  C   UNL     1       1.160   9.035  19.937  0.00  0.00    +0.000 A 
ATOM     21  C   UNL     1       1.487   9.329  18.601  0.00  0.00    +0.000 A 
ATOM     22  C   UNL     1       2.274   8.458  17.834  0.00  0.00    +0.000 A 
BRANCH  17  27
ATOM     23  C   UNL     1       6.889   4.403  15.693  0.00  0.00    +0.000 C 
ATOM     24  N   UNL     1       5.872   5.119  16.444  0.00  0.00    +0.000 N 
ATOM     25  C   UNL     1       4.693   4.487  16.769  0.00  0.00    +0.000 A 
ATOM     26  C   UNL     1       3.721   5.139  17.418  0.00  0.00    +0.000 A 
ATOM     27  C   UNL     1       3.865   6.535  17.778  0.00  0.00    +0.000 A 
ATOM     28  C   UNL     1       5.018   7.167  17.495  0.00  0.00    +0.000 A 
ATOM     29  C   UNL     1       6.118   6.451  16.785  0.00  0.00    +0.000 A 
ATOM     30  O   UNL     1       7.161   7.048  16.527  0.00  0.00    +0.000 OA
ENDBRANCH  17  27
ENDBRANCH  14  20
ENDBRANCH   1  14
BRANCH   4  31
ATOM     31  C   UNL     1       0.502  14.819  21.601  0.00  0.00    +0.000 C 
BRANCH  31  32
ATOM     32  C   UNL     1      -0.964  14.662  22.118  0.00  0.00    +0.000 C 
ATOM     33  C   UNL     1      -1.082  13.341  22.899  0.00  0.00    +0.000 C 
ATOM     34  C   UNL     1      -1.431  15.816  23.004  0.00  0.00    +0.000 C 
BRANCH  32  35
ATOM     35  O   UNL     1      -1.911  14.589  21.054  0.00  0.00    +0.000 OA
ATOM     36  H   UNL     1      -1.449  14.462  20.208  0.00  0.00    +0.000 HD
ENDBRANCH  32  35
ENDBRANCH  31  32
ENDBRANCH   4  31
TORSDOF 7
ENDMDL
MODEL 6
REMARK VINA RESULT:      -7.4      2.988      4.972
REMARK  Name = 
REMARK  10 active torsions:
REMARK  status: ('A' for Active; 'I' for Inactive)
REMARK    1  A    between atoms: C_1  and  N_2
REMARK    2  A    between atoms: C_5  and  C_6
REMARK    3  A    between atoms: C_9  and  C_10
REMARK    4  A    between atoms: C_10  and  N_11
REMARK    5  A    between atoms: C_14  and  C_15
REMARK    6  A    between atoms: C_14  and  C_20
REMARK    7  A    between atoms: C_15  and  C_16
REMARK    8  A    between atoms: C_16  and  C_17
REMARK    9  A    between atoms: C_16  and  C_18
REMARK   10  A    between atoms: C_16  and  O_19
REMARK                            x       y       z     vdW  Elec       q    Type
REMARK                         _______ _______ _______ _____ _____    ______ ____
ROOT
ATOM      1  N   UNL     1       0.462  12.362  20.118  0.00  0.00    +0.000 N 
ATOM      2  C   UNL     1       1.685  13.000  20.554  0.00  0.00    +0.000 C 
ATOM      3  C   UNL     1       2.024  14.225  19.724  0.00  0.00    +0.000 C 
ATOM      4  C   UNL     1       0.831  15.184  19.636  0.00  0.00    +0.000 C 
ATOM      5  O   UNL     1      -0.301  14.381  19.165  0.00  0.00    +0.000 OA
ATOM      6  C   UNL     1      -0.491  13.047  19.367  0.00  0.00    +0.000 C 
ATOM      7  O   UNL     1      -1.487  12.506  18.893  0.00  0.00    +0.000 OA
ENDROOT
BRANCH   4   8
ATOM      8  C   UNL     1       0.954  16.263  18.545  0.00  0.00    +0.000 A 
ATOM      9  C   UNL     1       2.173  16.598  17.938  0.00  0.00    +0.000 A 
ATOM     10  C   UNL     1       2.246  17.596  16.956  0.00  0.00    +0.000 A 
ATOM     11  C   UNL     1       1.105  18.294  16.576  0.00  0.00    +0.000 A 
ATOM     12  C   UNL     1      -0.118  17.979  17.156  0.00  0.00    +0.000 A 
ATOM     13  C   UNL     1      -0.196  16.963  18.111  0.00  0.00    +0.000 A 
ENDBRANCH   4   8
BRANCH   1  14
ATOM     14  C   UNL     1       0.076  11.093  20.762  0.00  0.00    +0.000 C 
ATOM     15  C   UNL     1      -1.260  10.955  21.483  0.00  0.00    +0.000 C 
ATOM     16  C   UNL     1      -0.002  11.026  22.282  0.00  0.00    +0.000 C 
BRANCH  14  20
ATOM     17  C   UNL     1       2.202   7.891  18.735  0.00  0.00    +0.000 A 
ATOM     18  C   UNL     1       1.805   7.736  20.065  0.00  0.00    +0.000 A 
ATOM     19  C   UNL     1       1.015   8.709  20.681  0.00  0.00    +0.000 A 
ATOM     20  C   UNL     1       0.615   9.873  19.998  0.00  0.00    +0.000 A 
ATOM     21  C   UNL     1       0.892   9.931  18.621  0.00  0.00    +0.000 A 
ATOM     22  C   UNL     1       1.684   8.958  17.994  0.00  0.00    +0.000 A 
BRANCH  17  27
ATOM     23  C   UNL     1       6.341   4.504  16.722  0.00  0.00    +0.000 C 
ATOM     24  N   UNL     1       5.343   5.415  17.255  0.00  0.00    +0.000 N 
ATOM     25  C   UNL     1       4.771   5.158  18.481  0.00  0.00    +0.000 A 
ATOM     26  C   UNL     1       3.814   5.954  18.973  0.00  0.00    +0.000 A 
ATOM     27  C   UNL     1       3.332   7.098  18.225  0.00  0.00    +0.000 A 
ATOM     28  C   UNL     1       3.896   7.386  17.037  0.00  0.00    +0.000 A 
ATOM     29  C   UNL     1       4.972   6.517  16.480  0.00  0.00    +0.000 A 
ATOM     30  O   UNL     1       5.468   6.790  15.389  0.00  0.00    +0.000 OA
ENDBRANCH  17  27
ENDBRANCH  14  20
ENDBRANCH   1  14
BRANCH   4  31
ATOM     31  C   UNL     1       0.417  15.832  21.007  0.00  0.00    +0.000 C 
BRANCH  31  32
ATOM     32  C   UNL     1       1.369  16.831  21.742  0.00  0.00    +0.000 C 
ATOM     33  C   UNL     1       1.030  18.265  21.297  0.00  0.00    +0.000 C 
ATOM     34  C   UNL     1       1.294  16.743  23.265  0.00  0.00    +0.000 C 
BRANCH  32  35
ATOM     35  O   UNL     1       2.740  16.618  21.412  0.00  0.00    +0.000 OA
ATOM     36  H   UNL     1       3.244  17.437  21.552  0.00  0.00    +0.000 HD
ENDBRANCH  32  35
ENDBRANCH  31  32
ENDBRANCH   4  31
TORSDOF 7
ENDMDL
MODEL 7
REMARK VINA RESULT:      -7.4      3.209      5.177
REMARK  Name = 
REMARK  10 active torsions:
REMARK  status: ('A' for Active; 'I' for Inactive)
REMARK    1  A    between atoms: C_1  and  N_2
REMARK    2  A    between atoms: C_5  and  C_6
REMARK    3  A    between atoms: C_9  and  C_10
REMARK    4  A    between atoms: C_10  and  N_11
REMARK    5  A    between atoms: C_14  and  C_15
REMARK    6  A    between atoms: C_14  and  C_20
REMARK    7  A    between atoms: C_15  and  C_16
REMARK    8  A    between atoms: C_16  and  C_17
REMARK    9  A    between atoms: C_16  and  C_18
REMARK   10  A    between atoms: C_16  and  O_19
REMARK                            x       y       z     vdW  Elec       q    Type
REMARK                         _______ _______ _______ _____ _____    ______ ____
ROOT
ATOM      1  N   UNL     1       0.676  12.102  20.098  0.00  0.00    +0.000 N 
ATOM      2  C   UNL     1       1.906  12.714  20.554  0.00  0.00    +0.000 C 
ATOM      3  C   UNL     1       2.264  13.954  19.753  0.00  0.00    +0.000 C 
ATOM      4  C   UNL     1       1.084  14.930  19.684  0.00  0.00    +0.000 C 
ATOM      5  O   UNL     1      -0.056  14.153  19.190  0.00  0.00    +0.000 OA
ATOM      6  C   UNL     1      -0.264  12.817  19.361  0.00  0.00    +0.000 C 
ATOM      7  O   UNL     1      -1.267  12.301  18.872  0.00  0.00    +0.000 OA
ENDROOT
BRANCH   4   8
ATOM      8  C   UNL     1       1.225  16.032  18.618  0.00  0.00    +0.000 A 
ATOM      9  C   UNL     1       2.439  16.325  17.979  0.00  0.00    +0.000 A 
ATOM     10  C   UNL     1       2.530  17.345  17.023  0.00  0.00    +0.000 A 
ATOM     11  C   UNL     1       1.413  18.108  16.700  0.00  0.00    +0.000 A 
ATOM     12  C   UNL     1       0.195  17.837  17.312  0.00  0.00    +0.000 A 
ATOM     13  C   UNL     1       0.098  16.799  18.242  0.00  0.00    +0.000 A 
ENDBRANCH   4   8
BRANCH   1  14
ATOM     14  C   UNL     1       0.272  10.824  20.712  0.00  0.00    +0.000 C 
ATOM     15  C   UNL     1      -1.081  10.680  21.400  0.00  0.00    +0.000 C 
ATOM     16  C   UNL     1       0.159  10.732  22.228  0.00  0.00    +0.000 C 
BRANCH  14  20
ATOM     17  C   UNL     1       2.432   7.627  18.713  0.00  0.00    +0.000 A 
ATOM     18  C   UNL     1       1.938   7.437  20.005  0.00  0.00    +0.000 A 
ATOM     19  C   UNL     1       1.137   8.414  20.603  0.00  0.00    +0.000 A 
ATOM     20  C   UNL     1       0.824   9.615  19.940  0.00  0.00    +0.000 A 
ATOM     21  C   UNL     1       1.199   9.714  18.589  0.00  0.00    +0.000 A 
ATOM     22  C   UNL     1       2.001   8.739  17.980  0.00  0.00    +0.000 A 
BRANCH  17  27
ATOM     23  C   UNL     1       7.081   4.794  16.977  0.00  0.00    +0.000 C 
ATOM     24  N   UNL     1       5.856   5.458  17.389  0.00  0.00    +0.000 N 
ATOM     25  C   UNL     1       5.369   6.512  16.649  0.00  0.00    +0.000 A 
ATOM     26  C   UNL     1       4.270   7.171  17.034  0.00  0.00    +0.000 A 
ATOM     27  C   UNL     1       3.569   6.815  18.251  0.00  0.00    +0.000 A 
ATOM     28  C   UNL     1       4.010   5.771  18.977  0.00  0.00    +0.000 A 
ATOM     29  C   UNL     1       5.225   5.016  18.555  0.00  0.00    +0.000 A 
ATOM     30  O   UNL     1       5.618   4.071  19.236  0.00  0.00    +0.000 OA
ENDBRANCH  17  27
ENDBRANCH  14  20
ENDBRANCH   1  14
BRANCH   4  31
ATOM     31  C   UNL     1       0.675  15.552  21.067  0.00  0.00    +0.000 C 
BRANCH  31  32
ATOM     32  C   UNL     1       1.590  16.601  21.778  0.00  0.00    +0.000 C 
ATOM     33  C   UNL     1       1.120  16.771  23.234  0.00  0.00    +0.000 C 
ATOM     34  C   UNL     1       3.072  16.232  21.766  0.00  0.00    +0.000 C 
BRANCH  32  35
ATOM     35  O   UNL     1       1.510  17.890  21.174  0.00  0.00    +0.000 OA
ATOM     36  H   UNL     1       0.624  18.265  21.311  0.00  0.00    +0.000 HD
ENDBRANCH  32  35
ENDBRANCH  31  32
ENDBRANCH   4  31
TORSDOF 7
ENDMDL
MODEL 8
REMARK VINA RESULT:      -7.3      3.323      5.655
REMARK  Name = 
REMARK  10 active torsions:
REMARK  status: ('A' for Active; 'I' for Inactive)
REMARK    1  A    between atoms: C_1  and  N_2
REMARK    2  A    between atoms: C_5  and  C_6
REMARK    3  A    between atoms: C_9  and  C_10
REMARK    4  A    between atoms: C_10  and  N_11
REMARK    5  A    between atoms: C_14  and  C_15
REMARK    6  A    between atoms: C_14  and  C_20
REMARK    7  A    between atoms: C_15  and  C_16
REMARK    8  A    between atoms: C_16  and  C_17
REMARK    9  A    between atoms: C_16  and  C_18
REMARK   10  A    between atoms: C_16  and  O_19
REMARK                            x       y       z     vdW  Elec       q    Type
REMARK                         _______ _______ _______ _____ _____    ______ ____
ROOT
ATOM      1  N   UNL     1       0.285  12.583  19.494  0.00  0.00    +0.000 N 
ATOM      2  C   UNL     1       0.606  13.465  18.393  0.00  0.00    +0.000 C 
ATOM      3  C   UNL     1       1.052  14.838  18.866  0.00  0.00    +0.000 C 
ATOM      4  C   UNL     1       2.169  14.730  19.909  0.00  0.00    +0.000 C 
ATOM      5  O   UNL     1       1.669  13.824  20.947  0.00  0.00    +0.000 OA
ATOM      6  C   UNL     1       0.771  12.813  20.779  0.00  0.00    +0.000 C 
ATOM      7  O   UNL     1       0.434  12.145  21.754  0.00  0.00    +0.000 OA
ENDROOT
BRANCH   4   8
ATOM      8  C   UNL     1       2.439  16.025  20.697  0.00  0.00    +0.000 A 
ATOM      9  C   UNL     1       3.106  16.043  21.931  0.00  0.00    +0.000 A 
ATOM     10  C   UNL     1       3.320  17.242  22.623  0.00  0.00    +0.000 A 
ATOM     11  C   UNL     1       2.854  18.446  22.107  0.00  0.00    +0.000 A 
ATOM     12  C   UNL     1       2.196  18.460  20.883  0.00  0.00    +0.000 A 
ATOM     13  C   UNL     1       2.010  17.269  20.178  0.00  0.00    +0.000 A 
ENDBRANCH   4   8
BRANCH   1  14
ATOM     14  C   UNL     1      -0.273  11.255  19.176  0.00  0.00    +0.000 C 
ATOM     15  C   UNL     1      -1.413  11.105  18.175  0.00  0.00    +0.000 C 
ATOM     16  C   UNL     1      -1.687  10.917  19.630  0.00  0.00    +0.000 C 
BRANCH  14  20
ATOM     17  C   UNL     1       2.294   7.752  19.037  0.00  0.00    +0.000 A 
ATOM     18  C   UNL     1       2.330   8.688  18.002  0.00  0.00    +0.000 A 
ATOM     19  C   UNL     1       1.601   9.876  18.101  0.00  0.00    +0.000 A 
ATOM     20  C   UNL     1       0.799  10.155  19.223  0.00  0.00    +0.000 A 
ATOM     21  C   UNL     1       0.902   9.275  20.315  0.00  0.00    +0.000 A 
ATOM     22  C   UNL     1       1.633   8.082  20.225  0.00  0.00    +0.000 A 
BRANCH  17  27
ATOM     23  C   UNL     1       3.564   2.295  17.915  0.00  0.00    +0.000 C 
ATOM     24  N   UNL     1       3.311   3.689  18.234  0.00  0.00    +0.000 N 
ATOM     25  C   UNL     1       2.514   4.009  19.310  0.00  0.00    +0.000 A 
ATOM     26  C   UNL     1       2.224   5.284  19.595  0.00  0.00    +0.000 A 
ATOM     27  C   UNL     1       2.719   6.368  18.770  0.00  0.00    +0.000 A 
ATOM     28  C   UNL     1       3.522   6.083  17.729  0.00  0.00    +0.000 A 
ATOM     29  C   UNL     1       3.866   4.668  17.405  0.00  0.00    +0.000 A 
ATOM     30  O   UNL     1       4.593   4.426  16.444  0.00  0.00    +0.000 OA
ENDBRANCH  17  27
ENDBRANCH  14  20
ENDBRANCH   1  14
BRANCH   4  31
ATOM     31  C   UNL     1       3.514  14.130  19.360  0.00  0.00    +0.000 C 
BRANCH  31  32
ATOM     32  C   UNL     1       4.410  14.943  18.371  0.00  0.00    +0.000 C 
ATOM     33  C   UNL     1       3.508  15.652  17.344  0.00  0.00    +0.000 C 
ATOM     34  C   UNL     1       5.303  15.975  19.056  0.00  0.00    +0.000 C 
BRANCH  32  35
ATOM     35  O   UNL     1       5.293  14.107  17.625  0.00  0.00    +0.000 OA
ATOM     36  H   UNL     1       5.383  13.245  18.066  0.00  0.00    +0.000 HD
ENDBRANCH  32  35
ENDBRANCH  31  32
ENDBRANCH   4  31
TORSDOF 7
ENDMDL
MODEL 9
REMARK VINA RESULT:      -7.3      1.498      1.705
REMARK  Name = 
REMARK  10 active torsions:
REMARK  status: ('A' for Active; 'I' for Inactive)
REMARK    1  A    between atoms: C_1  and  N_2
REMARK    2  A    between atoms: C_5  and  C_6
REMARK    3  A    between atoms: C_9  and  C_10
REMARK    4  A    between atoms: C_10  and  N_11
REMARK    5  A    between atoms: C_14  and  C_15
REMARK    6  A    between atoms: C_14  and  C_20
REMARK    7  A    between atoms: C_15  and  C_16
REMARK    8  A    between atoms: C_16  and  C_17
REMARK    9  A    between atoms: C_16  and  C_18
REMARK   10  A    between atoms: C_16  and  O_19
REMARK                            x       y       z     vdW  Elec       q    Type
REMARK                         _______ _______ _______ _____ _____    ______ ____
ROOT
ATOM      1  N   UNL     1      -0.527  11.619  20.592  0.00  0.00    +0.000 N 
ATOM      2  C   UNL     1      -1.478  12.196  19.665  0.00  0.00    +0.000 C 
ATOM      3  C   UNL     1      -2.850  12.382  20.288  0.00  0.00    +0.000 C 
ATOM      4  C   UNL     1      -2.758  13.137  21.619  0.00  0.00    +0.000 C 
ATOM      5  O   UNL     1      -1.777  12.411  22.430  0.00  0.00    +0.000 OA
ATOM      6  C   UNL     1      -0.725  11.678  21.969  0.00  0.00    +0.000 C 
ATOM      7  O   UNL     1       0.007  11.109  22.777  0.00  0.00    +0.000 OA
ENDROOT
BRANCH   4   8
ATOM      8  C   UNL     1      -4.028  13.066  22.486  0.00  0.00    +0.000 A 
ATOM      9  C   UNL     1      -5.273  13.547  22.056  0.00  0.00    +0.000 A 
ATOM     10  C   UNL     1      -6.405  13.476  22.880  0.00  0.00    +0.000 A 
ATOM     11  C   UNL     1      -6.310  12.940  24.160  0.00  0.00    +0.000 A 
ATOM     12  C   UNL     1      -5.090  12.450  24.611  0.00  0.00    +0.000 A 
ATOM     13  C   UNL     1      -3.971  12.492  23.777  0.00  0.00    +0.000 A 
ENDBRANCH   4   8
BRANCH   1  14
ATOM     14  C   UNL     1       0.814  11.277  20.083  0.00  0.00    +0.000 C 
ATOM     15  C   UNL     1       2.041  12.072  20.514  0.00  0.00    +0.000 C 
ATOM     16  C   UNL     1       1.512  12.235  19.128  0.00  0.00    +0.000 C 
BRANCH  14  20
ATOM     17  C   UNL     1       1.859   7.073  19.734  0.00  0.00    +0.000 A 
ATOM     18  C   UNL     1       1.103   7.519  20.820  0.00  0.00    +0.000 A 
ATOM     19  C   UNL     1       0.659   8.843  20.872  0.00  0.00    +0.000 A 
ATOM     20  C   UNL     1       0.974   9.765  19.857  0.00  0.00    +0.000 A 
ATOM     21  C   UNL     1       1.598   9.256  18.704  0.00  0.00    +0.000 A 
ATOM     22  C   UNL     1       2.045   7.928  18.642  0.00  0.00    +0.000 A 
BRANCH  17  27
ATOM     23  C   UNL     1       4.638   2.089  20.021  0.00  0.00    +0.000 C 
ATOM     24  N   UNL     1       3.976   3.382  20.005  0.00  0.00    +0.000 N 
ATOM     25  C   UNL     1       2.744   3.525  20.602  0.00  0.00    +0.000 A 
ATOM     26  C   UNL     1       2.091   4.692  20.559  0.00  0.00    +0.000 A 
ATOM     27  C   UNL     1       2.646   5.836  19.865  0.00  0.00    +0.000 A 
ATOM     28  C   UNL     1       3.861   5.730  19.298  0.00  0.00    +0.000 A 
ATOM     29  C   UNL     1       4.609   4.440  19.348  0.00  0.00    +0.000 A 
ATOM     30  O   UNL     1       5.714   4.359  18.815  0.00  0.00    +0.000 OA
ENDBRANCH  17  27
ENDBRANCH  14  20
ENDBRANCH   1  14
BRANCH   4  31
ATOM     31  C   UNL     1      -2.263  14.623  21.489  0.00  0.00    +0.000 C 
BRANCH  31  32
ATOM     32  C   UNL     1      -1.293  15.242  22.546  0.00  0.00    +0.000 C 
ATOM     33  C   UNL     1       0.155  15.097  22.044  0.00  0.00    +0.000 C 
ATOM     34  C   UNL     1      -1.576  16.711  22.855  0.00  0.00    +0.000 C 
BRANCH  32  35
ATOM     35  O   UNL     1      -1.356  14.568  23.801  0.00  0.00    +0.000 OA
ATOM     36  H   UNL     1      -2.204  14.757  24.236  0.00  0.00    +0.000 HD
ENDBRANCH  32  35
ENDBRANCH  31  32
ENDBRANCH   4  31
TORSDOF 7
ENDMDL
