MODEL 1
REMARK VINA RESULT:      -8.9      0.000      0.000
REMARK  Name = 
REMARK  5 active torsions:
REMARK  status: ('A' for Active; 'I' for Inactive)
REMARK    1  A    between atoms: C_1  and  C_2
REMARK    2  A    between atoms: C_4  and  C_5
REMARK    3  A    between atoms: C_10  and  O_11
REMARK    4  A    between atoms: O_11  and  C_12
REMARK    5  A    between atoms: C_16  and  C_18
REMARK                            x       y       z     vdW  Elec       q    Type
REMARK                         _______ _______ _______ _____ _____    ______ ____
ROOT
ATOM      1  C   UNL     1       0.941   9.803  20.239  0.00  0.00    +0.000 C 
ATOM      2  C   UNL     1       1.527   9.421  18.850  0.00  0.00    +0.000 C 
ATOM      3  C   UNL     1       1.762   7.965  18.548  0.00  0.00    +0.000 C 
ATOM      4  N   UNL     1       2.190   7.192  19.699  0.00  0.00    +0.000 N 
ATOM      5  C   UNL     1       2.802   5.929  19.613  0.00  0.00    +0.000 C 
ATOM      6  O   UNL     1       2.449   5.029  20.396  0.00  0.00    +0.000 OA
ATOM      7  C   UNL     1       1.299   7.327  20.835  0.00  0.00    +0.000 C 
ATOM      8  C   UNL     1       1.194   8.751  21.327  0.00  0.00    +0.000 C 
ENDROOT
BRANCH   5   9
ATOM      9  C   UNL     1       3.951   5.576  18.714  0.00  0.00    +0.000 A 
ATOM     10  C   UNL     1       5.218   5.729  19.299  0.00  0.00    +0.000 A 
ATOM     11  C   UNL     1       6.329   5.277  18.637  0.00  0.00    +0.000 A 
ATOM     12  C   UNL     1       6.168   4.798  17.341  0.00  0.00    +0.000 A 
ATOM     13  C   UNL     1       7.286   4.411  16.622  0.00  0.00    +0.000 A 
ATOM     14  C   UNL     1       7.320   4.616  15.255  0.00  0.00    +0.000 A 
ATOM     15  C   UNL     1       6.096   4.678  14.613  0.00  0.00    +0.000 A 
ATOM     16  C   UNL     1       4.896   4.665  15.357  0.00  0.00    +0.000 A 
ATOM     17  C   UNL     1       4.897   4.871  16.733  0.00  0.00    +0.000 A 
ATOM     18  N   UNL     1       3.784   5.158  17.435  0.00  0.00    +0.000 NA
ENDBRANCH   5   9
BRANCH   1  19
ATOM     19  O   UNL     1      -0.485  10.187  20.214  0.00  0.00    +0.000 OA
BRANCH  19  25
ATOM     20  C   UNL     1      -1.694  12.317  19.958  0.00  0.00    +0.000 A 
ATOM     21  C   UNL     1      -1.724  13.678  20.371  0.00  0.00    +0.000 A 
ATOM     22  C   UNL     1      -0.787  14.204  21.248  0.00  0.00    +0.000 A 
ATOM     23  C   UNL     1       0.162  13.361  21.749  0.00  0.00    +0.000 A 
ATOM     24  N   UNL     1       0.224  12.059  21.428  0.00  0.00    +0.000 NA
ATOM     25  C   UNL     1      -0.674  11.538  20.538  0.00  0.00    +0.000 A 
BRANCH  20  29
ATOM     26  C   UNL     1      -2.703  10.443  15.416  0.00  0.00    +0.000 C 
ATOM     27  C   UNL     1      -3.178  11.064  16.699  0.00  0.00    +0.000 A 
ATOM     28  C   UNL     1      -2.263  11.451  17.676  0.00  0.00    +0.000 A 
ATOM     29  C   UNL     1      -2.700  11.887  18.947  0.00  0.00    +0.000 A 
ATOM     30  C   UNL     1      -4.075  11.944  19.144  0.00  0.00    +0.000 A 
ATOM     31  C   UNL     1      -4.926  11.587  18.099  0.00  0.00    +0.000 A 
ATOM     32  N   UNL     1      -4.508  11.151  16.887  0.00  0.00    +0.000 NA
ENDBRANCH  20  29
ENDBRANCH  19  25
ENDBRANCH   1  19
TORSDOF 4
ENDMDL
MODEL 2
REMARK VINA RESULT:      -8.8      0.601      1.164
REMARK  Name = 
REMARK  5 active torsions:
REMARK  status: ('A' for Active; 'I' for Inactive)
REMARK    1  A    between atoms: C_1  and  C_2
REMARK    2  A    between atoms: C_4  and  C_5
REMARK    3  A    between atoms: C_10  and  O_11
REMARK    4  A    between atoms: O_11  and  C_12
REMARK    5  A    between atoms: C_16  and  C_18
REMARK                            x       y       z     vdW  Elec       q    Type
REMARK                         _______ _______ _______ _____ _____    ______ ____
ROOT
ATOM      1  C   UNL     1       1.030   9.537  20.717  0.00  0.00    +0.000 C 
ATOM      2  C   UNL     1       1.626   9.309  19.299  0.00  0.00    +0.000 C 
ATOM      3  C   UNL     1       1.821   7.895  18.822  0.00  0.00    +0.000 C 
ATOM      4  N   UNL     1       2.204   6.972  19.874  0.00  0.00    +0.000 N 
ATOM      5  C   UNL     1       2.778   5.710  19.639  0.00  0.00    +0.000 C 
ATOM      6  O   UNL     1       2.384   4.732  20.301  0.00  0.00    +0.000 OA
ATOM      7  C   UNL     1       1.300   6.996  21.007  0.00  0.00    +0.000 C 
ATOM      8  C   UNL     1       1.232   8.351  21.670  0.00  0.00    +0.000 C 
ENDROOT
BRANCH   5   9
ATOM      9  C   UNL     1       3.930   5.432  18.719  0.00  0.00    +0.000 A 
ATOM     10  C   UNL     1       5.195   5.677  19.275  0.00  0.00    +0.000 A 
ATOM     11  C   UNL     1       6.321   5.300  18.592  0.00  0.00    +0.000 A 
ATOM     12  C   UNL     1       6.167   4.802  17.303  0.00  0.00    +0.000 A 
ATOM     13  C   UNL     1       7.294   4.489  16.562  0.00  0.00    +0.000 A 
ATOM     14  C   UNL     1       7.285   4.686  15.194  0.00  0.00    +0.000 A 
ATOM     15  C   UNL     1       6.046   4.658  14.578  0.00  0.00    +0.000 A 
ATOM     16  C   UNL     1       4.866   4.566  15.347  0.00  0.00    +0.000 A 
ATOM     17  C   UNL     1       4.882   4.781  16.721  0.00  0.00    +0.000 A 
ATOM     18  N   UNL     1       3.766   4.994  17.445  0.00  0.00    +0.000 NA
ENDBRANCH   5   9
BRANCH   1  19
ATOM     19  O   UNL     1      -0.383   9.968  20.722  0.00  0.00    +0.000 OA
BRANCH  19  25
ATOM     20  C   UNL     1      -1.270  12.056  19.765  0.00  0.00    +0.000 A 
ATOM     21  C   UNL     1      -1.263  13.473  19.893  0.00  0.00    +0.000 A 
ATOM     22  C   UNL     1      -0.522  14.123  20.870  0.00  0.00    +0.000 A 
ATOM     23  C   UNL     1       0.185  13.356  21.749  0.00  0.00    +0.000 A 
ATOM     24  N   UNL     1       0.192  12.014  21.706  0.00  0.00    +0.000 NA
ATOM     25  C   UNL     1      -0.508  11.365  20.726  0.00  0.00    +0.000 A 
BRANCH  20  29
ATOM     26  C   UNL     1      -5.576  11.675  17.221  0.00  0.00    +0.000 C 
ATOM     27  C   UNL     1      -4.161  11.226  17.453  0.00  0.00    +0.000 A 
ATOM     28  C   UNL     1      -3.411  11.770  18.494  0.00  0.00    +0.000 A 
ATOM     29  C   UNL     1      -2.035  11.476  18.625  0.00  0.00    +0.000 A 
ATOM     30  C   UNL     1      -1.497  10.594  17.695  0.00  0.00    +0.000 A 
ATOM     31  C   UNL     1      -2.326  10.054  16.714  0.00  0.00    +0.000 A 
ATOM     32  N   UNL     1      -3.640  10.350  16.575  0.00  0.00    +0.000 NA
ENDBRANCH  20  29
ENDBRANCH  19  25
ENDBRANCH   1  19
TORSDOF 4
ENDMDL
MODEL 3
REMARK VINA RESULT:      -8.7      3.002      9.892
REMARK  Name = 
REMARK  5 active torsions:
REMARK  status: ('A' for Active; 'I' for Inactive)
REMARK    1  A    between atoms: C_1  and  C_2
REMARK    2  A    between atoms: C_4  and  C_5
REMARK    3  A    between atoms: C_10  and  O_11
REMARK    4  A    between atoms: O_11  and  C_12
REMARK    5  A    between atoms: C_16  and  C_18
REMARK                            x       y       z     vdW  Elec       q    Type
REMARK                         _______ _______ _______ _____ _____    ______ ____
ROOT
ATOM      1  C   UNL     1       3.874   4.083  16.745  0.00  0.00    +0.000 C 
ATOM      2  C   UNL     1       4.000   5.609  17.022  0.00  0.00    +0.000 C 
ATOM      3  C   UNL     1       3.763   6.104  18.424  0.00  0.00    +0.000 C 
ATOM      4  N   UNL     1       2.736   5.368  19.137  0.00  0.00    +0.000 N 
ATOM      5  C   UNL     1       2.093   5.841  20.294  0.00  0.00    +0.000 C 
ATOM      6  O   UNL     1       1.902   5.061  21.244  0.00  0.00    +0.000 OA
ATOM      7  C   UNL     1       2.967   3.937  19.147  0.00  0.00    +0.000 C 
ATOM      8  C   UNL     1       2.994   3.342  17.759  0.00  0.00    +0.000 C 
ENDROOT
BRANCH   5   9
ATOM      9  C   UNL     1       1.495   7.208  20.464  0.00  0.00    +0.000 A 
ATOM     10  C   UNL     1       1.847   8.128  19.464  0.00  0.00    +0.000 A 
ATOM     11  C   UNL     1       1.229   9.350  19.419  0.00  0.00    +0.000 A 
ATOM     12  C   UNL     1       0.364   9.683  20.456  0.00  0.00    +0.000 A 
ATOM     13  C   UNL     1      -0.210  10.943  20.476  0.00  0.00    +0.000 A 
ATOM     14  C   UNL     1      -0.446  11.563  21.688  0.00  0.00    +0.000 A 
ATOM     15  C   UNL     1      -0.611  10.731  22.782  0.00  0.00    +0.000 A 
ATOM     16  C   UNL     1      -0.411   9.340  22.660  0.00  0.00    +0.000 A 
ATOM     17  C   UNL     1       0.219   8.796  21.544  0.00  0.00    +0.000 A 
ATOM     18  N   UNL     1       0.692   7.536  21.507  0.00  0.00    +0.000 NA
ENDBRANCH   5   9
BRANCH   1  19
ATOM     19  O   UNL     1       5.166   3.387  16.576  0.00  0.00    +0.000 OA
BRANCH  19  25
ATOM     20  C   UNL     1       6.869   4.866  15.587  0.00  0.00    +0.000 A 
ATOM     21  C   UNL     1       7.476   5.263  14.364  0.00  0.00    +0.000 A 
ATOM     22  C   UNL     1       7.090   4.730  13.142  0.00  0.00    +0.000 A 
ATOM     23  C   UNL     1       6.122   3.769  13.142  0.00  0.00    +0.000 A 
ATOM     24  N   UNL     1       5.535   3.324  14.265  0.00  0.00    +0.000 NA
ATOM     25  C   UNL     1       5.884   3.867  15.471  0.00  0.00    +0.000 A 
BRANCH  20  29
ATOM     26  C   UNL     1       8.040   9.147  17.924  0.00  0.00    +0.000 C 
ATOM     27  C   UNL     1       7.965   7.647  17.924  0.00  0.00    +0.000 A 
ATOM     28  C   UNL     1       7.534   6.963  16.789  0.00  0.00    +0.000 A 
ATOM     29  C   UNL     1       7.306   5.569  16.827  0.00  0.00    +0.000 A 
ATOM     30  C   UNL     1       7.574   4.928  18.031  0.00  0.00    +0.000 A 
ATOM     31  C   UNL     1       8.052   5.676  19.106  0.00  0.00    +0.000 A 
ATOM     32  N   UNL     1       8.252   7.015  19.077  0.00  0.00    +0.000 NA
ENDBRANCH  20  29
ENDBRANCH  19  25
ENDBRANCH   1  19
TORSDOF 4
ENDMDL
MODEL 4
REMARK VINA RESULT:      -8.7      0.914      1.300
REMARK  Name = 
REMARK  5 active torsions:
REMARK  status: ('A' for Active; 'I' for Inactive)
REMARK    1  A    between atoms: C_1  and  C_2
REMARK    2  A    between atoms: C_4  and  C_5
REMARK    3  A    between atoms: C_10  and  O_11
REMARK    4  A    between atoms: O_11  and  C_12
REMARK    5  A    between atoms: C_16  and  C_18
REMARK                            x       y       z     vdW  Elec       q    Type
REMARK                         _______ _______ _______ _____ _____    ______ ____
ROOT
ATOM      1  C   UNL     1       0.991  10.144  20.772  0.00  0.00    +0.000 C 
ATOM      2  C   UNL     1       1.311   9.737  19.306  0.00  0.00    +0.000 C 
ATOM      3  C   UNL     1       1.320   8.274  18.954  0.00  0.00    +0.000 C 
ATOM      4  N   UNL     1       1.817   7.421  20.018  0.00  0.00    +0.000 N 
ATOM      5  C   UNL     1       2.251   6.097  19.824  0.00  0.00    +0.000 C 
ATOM      6  O   UNL     1       1.913   5.222  20.641  0.00  0.00    +0.000 OA
ATOM      7  C   UNL     1       1.129   7.626  21.277  0.00  0.00    +0.000 C 
ATOM      8  C   UNL     1       1.273   9.037  21.796  0.00  0.00    +0.000 C 
ENDROOT
BRANCH   5   9
ATOM      9  C   UNL     1       3.202   5.638  18.757  0.00  0.00    +0.000 A 
ATOM     10  C   UNL     1       2.928   4.362  18.240  0.00  0.00    +0.000 A 
ATOM     11  C   UNL     1       3.621   3.910  17.148  0.00  0.00    +0.000 A 
ATOM     12  C   UNL     1       4.670   4.689  16.672  0.00  0.00    +0.000 A 
ATOM     13  C   UNL     1       5.437   4.217  15.620  0.00  0.00    +0.000 A 
ATOM     14  C   UNL     1       6.786   4.513  15.576  0.00  0.00    +0.000 A 
ATOM     15  C   UNL     1       7.185   5.662  16.235  0.00  0.00    +0.000 A 
ATOM     16  C   UNL     1       6.264   6.397  17.012  0.00  0.00    +0.000 A 
ATOM     17  C   UNL     1       5.031   5.860  17.370  0.00  0.00    +0.000 A 
ATOM     18  N   UNL     1       4.253   6.386  18.335  0.00  0.00    +0.000 NA
ENDBRANCH   5   9
BRANCH   1  19
ATOM     19  O   UNL     1      -0.366  10.695  20.968  0.00  0.00    +0.000 OA
BRANCH  19  25
ATOM     20  C   UNL     1      -1.300  12.812  20.127  0.00  0.00    +0.000 A 
ATOM     21  C   UNL     1      -1.153  14.227  20.160  0.00  0.00    +0.000 A 
ATOM     22  C   UNL     1      -0.147  14.848  20.886  0.00  0.00    +0.000 A 
ATOM     23  C   UNL     1       0.694  14.058  21.614  0.00  0.00    +0.000 A 
ATOM     24  N   UNL     1       0.588  12.720  21.654  0.00  0.00    +0.000 NA
ATOM     25  C   UNL     1      -0.379  12.096  20.916  0.00  0.00    +0.000 A 
BRANCH  20  29
ATOM     26  C   UNL     1      -2.582  10.409  15.915  0.00  0.00    +0.000 C 
ATOM     27  C   UNL     1      -2.980  11.170  17.147  0.00  0.00    +0.000 A 
ATOM     28  C   UNL     1      -2.007  11.679  18.005  0.00  0.00    +0.000 A 
ATOM     29  C   UNL     1      -2.365  12.255  19.245  0.00  0.00    +0.000 A 
ATOM     30  C   UNL     1      -3.724  12.320  19.530  0.00  0.00    +0.000 A 
ATOM     31  C   UNL     1      -4.638  11.834  18.596  0.00  0.00    +0.000 A 
ATOM     32  N   UNL     1      -4.295  11.264  17.416  0.00  0.00    +0.000 NA
ENDBRANCH  20  29
ENDBRANCH  19  25
ENDBRANCH   1  19
TORSDOF 4
ENDMDL
MODEL 5
REMARK VINA RESULT:      -8.6      1.108      1.771
REMARK  Name = 
REMARK  5 active torsions:
REMARK  status: ('A' for Active; 'I' for Inactive)
REMARK    1  A    between atoms: C_1  and  C_2
REMARK    2  A    between atoms: C_4  and  C_5
REMARK    3  A    between atoms: C_10  and  O_11
REMARK    4  A    between atoms: O_11  and  C_12
REMARK    5  A    between atoms: C_16  and  C_18
REMARK                            x       y       z     vdW  Elec       q    Type
REMARK                         _______ _______ _______ _____ _____    ______ ____
ROOT
ATOM      1  C   UNL     1       1.120  10.083  20.986  0.00  0.00    +0.000 C 
ATOM      2  C   UNL     1       1.468   9.742  19.509  0.00  0.00    +0.000 C 
ATOM      3  C   UNL     1       1.416   8.302  19.075  0.00  0.00    +0.000 C 
ATOM      4  N   UNL     1       1.835   7.367  20.103  0.00  0.00    +0.000 N 
ATOM      5  C   UNL     1       2.209   6.035  19.847  0.00  0.00    +0.000 C 
ATOM      6  O   UNL     1       1.800   5.135  20.602  0.00  0.00    +0.000 OA
ATOM      7  C   UNL     1       1.116   7.537  21.350  0.00  0.00    +0.000 C 
ATOM      8  C   UNL     1       1.312   8.908  21.953  0.00  0.00    +0.000 C 
ENDROOT
BRANCH   5   9
ATOM      9  C   UNL     1       3.170   5.588  18.786  0.00  0.00    +0.000 A 
ATOM     10  C   UNL     1       2.912   4.310  18.263  0.00  0.00    +0.000 A 
ATOM     11  C   UNL     1       3.615   3.868  17.175  0.00  0.00    +0.000 A 
ATOM     12  C   UNL     1       4.660   4.658  16.707  0.00  0.00    +0.000 A 
ATOM     13  C   UNL     1       5.438   4.195  15.659  0.00  0.00    +0.000 A 
ATOM     14  C   UNL     1       6.785   4.503  15.624  0.00  0.00    +0.000 A 
ATOM     15  C   UNL     1       7.169   5.655  16.289  0.00  0.00    +0.000 A 
ATOM     16  C   UNL     1       6.236   6.379  17.062  0.00  0.00    +0.000 A 
ATOM     17  C   UNL     1       5.006   5.830  17.411  0.00  0.00    +0.000 A 
ATOM     18  N   UNL     1       4.217   6.346  18.372  0.00  0.00    +0.000 NA
ENDBRANCH   5   9
BRANCH   1  19
ATOM     19  O   UNL     1      -0.214  10.691  21.172  0.00  0.00    +0.000 OA
BRANCH  19  25
ATOM     20  C   UNL     1      -0.982  12.486  19.671  0.00  0.00    +0.000 A 
ATOM     21  C   UNL     1      -0.869  13.876  19.390  0.00  0.00    +0.000 A 
ATOM     22  C   UNL     1      -0.051  14.715  20.133  0.00  0.00    +0.000 A 
ATOM     23  C   UNL     1       0.628  14.175  21.186  0.00  0.00    +0.000 A 
ATOM     24  N   UNL     1       0.538  12.880  21.526  0.00  0.00    +0.000 NA
ATOM     25  C   UNL     1      -0.239  12.037  20.780  0.00  0.00    +0.000 A 
BRANCH  20  29
ATOM     26  C   UNL     1      -5.523  11.323  17.886  0.00  0.00    +0.000 C 
ATOM     27  C   UNL     1      -4.048  11.046  17.962  0.00  0.00    +0.000 A 
ATOM     28  C   UNL     1      -3.230  11.812  18.791  0.00  0.00    +0.000 A 
ATOM     29  C   UNL     1      -1.825  11.669  18.753  0.00  0.00    +0.000 A 
ATOM     30  C   UNL     1      -1.322  10.707  17.884  0.00  0.00    +0.000 A 
ATOM     31  C   UNL     1      -2.210   9.947  17.125  0.00  0.00    +0.000 A 
ATOM     32  N   UNL     1      -3.556  10.096  17.147  0.00  0.00    +0.000 NA
ENDBRANCH  20  29
ENDBRANCH  19  25
ENDBRANCH   1  19
TORSDOF 4
ENDMDL
MODEL 6
REMARK VINA RESULT:      -8.6      2.723      9.727
REMARK  Name = 
REMARK  5 active torsions:
REMARK  status: ('A' for Active; 'I' for Inactive)
REMARK    1  A    between atoms: C_1  and  C_2
REMARK    2  A    between atoms: C_4  and  C_5
REMARK    3  A    between atoms: C_10  and  O_11
REMARK    4  A    between atoms: O_11  and  C_12
REMARK    5  A    between atoms: C_16  and  C_18
REMARK                            x       y       z     vdW  Elec       q    Type
REMARK                         _______ _______ _______ _____ _____    ______ ____
ROOT
ATOM      1  C   UNL     1       3.800   4.235  16.722  0.00  0.00    +0.000 C 
ATOM      2  C   UNL     1       4.006   5.758  16.961  0.00  0.00    +0.000 C 
ATOM      3  C   UNL     1       3.788   6.302  18.348  0.00  0.00    +0.000 C 
ATOM      4  N   UNL     1       2.719   5.640  19.073  0.00  0.00    +0.000 N 
ATOM      5  C   UNL     1       2.095   6.176  20.213  0.00  0.00    +0.000 C 
ATOM      6  O   UNL     1       1.859   5.432  21.182  0.00  0.00    +0.000 OA
ATOM      7  C   UNL     1       2.873   4.199  19.121  0.00  0.00    +0.000 C 
ATOM      8  C   UNL     1       2.877   3.568  17.749  0.00  0.00    +0.000 C 
ENDROOT
BRANCH   5   9
ATOM      9  C   UNL     1       1.570   7.577  20.344  0.00  0.00    +0.000 A 
ATOM     10  C   UNL     1       0.994   7.871  21.589  0.00  0.00    +0.000 A 
ATOM     11  C   UNL     1       0.637   9.160  21.884  0.00  0.00    +0.000 A 
ATOM     12  C   UNL     1       0.741  10.113  20.876  0.00  0.00    +0.000 A 
ATOM     13  C   UNL     1       0.310  11.406  21.123  0.00  0.00    +0.000 A 
ATOM     14  C   UNL     1      -0.265  12.138  20.102  0.00  0.00    +0.000 A 
ATOM     15  C   UNL     1       0.096  11.785  18.814  0.00  0.00    +0.000 A 
ATOM     16  C   UNL     1       0.904  10.651  18.583  0.00  0.00    +0.000 A 
ATOM     17  C   UNL     1       1.126   9.707  19.581  0.00  0.00    +0.000 A 
ATOM     18  N   UNL     1       1.631   8.483  19.336  0.00  0.00    +0.000 NA
ENDBRANCH   5   9
BRANCH   1  19
ATOM     19  O   UNL     1       5.054   3.467  16.581  0.00  0.00    +0.000 OA
BRANCH  19  25
ATOM     20  C   UNL     1       6.843   4.849  15.603  0.00  0.00    +0.000 A 
ATOM     21  C   UNL     1       7.491   5.198  14.386  0.00  0.00    +0.000 A 
ATOM     22  C   UNL     1       7.103   4.666  13.164  0.00  0.00    +0.000 A 
ATOM     23  C   UNL     1       6.090   3.752  13.160  0.00  0.00    +0.000 A 
ATOM     24  N   UNL     1       5.461   3.352  14.277  0.00  0.00    +0.000 NA
ATOM     25  C   UNL     1       5.814   3.896  15.482  0.00  0.00    +0.000 A 
BRANCH  20  29
ATOM     26  C   UNL     1       8.060   9.120  17.934  0.00  0.00    +0.000 C 
ATOM     27  C   UNL     1       7.972   7.621  17.935  0.00  0.00    +0.000 A 
ATOM     28  C   UNL     1       7.531   6.940  16.802  0.00  0.00    +0.000 A 
ATOM     29  C   UNL     1       7.291   5.548  16.841  0.00  0.00    +0.000 A 
ATOM     30  C   UNL     1       7.559   4.905  18.044  0.00  0.00    +0.000 A 
ATOM     31  C   UNL     1       8.047   5.650  19.117  0.00  0.00    +0.000 A 
ATOM     32  N   UNL     1       8.258   6.987  19.087  0.00  0.00    +0.000 NA
ENDBRANCH  20  29
ENDBRANCH  19  25
ENDBRANCH   1  19
TORSDOF 4
ENDMDL
MODEL 7
REMARK VINA RESULT:      -8.6      2.968      4.203
REMARK  Name = 
REMARK  5 active torsions:
REMARK  status: ('A' for Active; 'I' for Inactive)
REMARK    1  A    between atoms: C_1  and  C_2
REMARK    2  A    between atoms: C_4  and  C_5
REMARK    3  A    between atoms: C_10  and  O_11
REMARK    4  A    between atoms: O_11  and  C_12
REMARK    5  A    between atoms: C_16  and  C_18
REMARK                            x       y       z     vdW  Elec       q    Type
REMARK                         _______ _______ _______ _____ _____    ______ ____
ROOT
ATOM      1  C   UNL     1      -0.282  10.178  21.432  0.00  0.00    +0.000 C 
ATOM      2  C   UNL     1       0.592   8.941  21.785  0.00  0.00    +0.000 C 
ATOM      3  C   UNL     1       1.729   8.581  20.867  0.00  0.00    +0.000 C 
ATOM      4  N   UNL     1       1.450   8.836  19.466  0.00  0.00    +0.000 N 
ATOM      5  C   UNL     1       2.183   8.273  18.405  0.00  0.00    +0.000 C 
ATOM      6  O   UNL     1       2.501   8.990  17.440  0.00  0.00    +0.000 OA
ATOM      7  C   UNL     1       1.017  10.196  19.212  0.00  0.00    +0.000 C 
ATOM      8  C   UNL     1      -0.258  10.546  19.943  0.00  0.00    +0.000 C 
ENDROOT
BRANCH   5   9
ATOM      9  C   UNL     1       2.538   6.822  18.264  0.00  0.00    +0.000 A 
ATOM     10  C   UNL     1       3.673   6.571  17.476  0.00  0.00    +0.000 A 
ATOM     11  C   UNL     1       4.191   5.305  17.416  0.00  0.00    +0.000 A 
ATOM     12  C   UNL     1       3.487   4.281  18.041  0.00  0.00    +0.000 A 
ATOM     13  C   UNL     1       3.947   2.980  17.926  0.00  0.00    +0.000 A 
ATOM     14  C   UNL     1       3.038   1.940  17.867  0.00  0.00    +0.000 A 
ATOM     15  C   UNL     1       1.805   2.168  18.451  0.00  0.00    +0.000 A 
ATOM     16  C   UNL     1       1.476   3.446  18.953  0.00  0.00    +0.000 A 
ATOM     17  C   UNL     1       2.239   4.565  18.635  0.00  0.00    +0.000 A 
ATOM     18  N   UNL     1       1.815   5.827  18.836  0.00  0.00    +0.000 NA
ENDBRANCH   5   9
BRANCH   1  19
ATOM     19  O   UNL     1      -0.014  11.370  22.262  0.00  0.00    +0.000 OA
BRANCH  19  25
ATOM     20  C   UNL     1      -1.323  13.428  21.926  0.00  0.00    +0.000 A 
ATOM     21  C   UNL     1      -2.539  14.085  22.263  0.00  0.00    +0.000 A 
ATOM     22  C   UNL     1      -3.482  13.507  23.101  0.00  0.00    +0.000 A 
ATOM     23  C   UNL     1      -3.231  12.254  23.576  0.00  0.00    +0.000 A 
ATOM     24  N   UNL     1      -2.120  11.565  23.268  0.00  0.00    +0.000 NA
ATOM     25  C   UNL     1      -1.168  12.138  22.470  0.00  0.00    +0.000 A 
BRANCH  20  29
ATOM     26  C   UNL     1      -0.458  16.744  18.263  0.00  0.00    +0.000 C 
ATOM     27  C   UNL     1       0.056  15.724  19.239  0.00  0.00    +0.000 A 
ATOM     28  C   UNL     1      -0.828  15.023  20.057  0.00  0.00    +0.000 A 
ATOM     29  C   UNL     1      -0.349  14.181  21.086  0.00  0.00    +0.000 A 
ATOM     30  C   UNL     1       1.031  14.065  21.201  0.00  0.00    +0.000 A 
ATOM     31  C   UNL     1       1.848  14.760  20.311  0.00  0.00    +0.000 A 
ATOM     32  N   UNL     1       1.391  15.582  19.337  0.00  0.00    +0.000 NA
ENDBRANCH  20  29
ENDBRANCH  19  25
ENDBRANCH   1  19
TORSDOF 4
ENDMDL
MODEL 8
REMARK VINA RESULT:      -8.5      2.974      4.357
REMARK  Name = 
REMARK  5 active torsions:
REMARK  status: ('A' for Active; 'I' for Inactive)
REMARK    1  A    between atoms: C_1  and  C_2
REMARK    2  A    between atoms: C_4  and  C_5
REMARK    3  A    between atoms: C_10  and  O_11
REMARK    4  A    between atoms: O_11  and  C_12
REMARK    5  A    between atoms: C_16  and  C_18
REMARK                            x       y       z     vdW  Elec       q    Type
REMARK                         _______ _______ _______ _____ _____    ______ ____
ROOT
ATOM      1  C   UNL     1      -0.293  10.073  21.571  0.00  0.00    +0.000 C 
ATOM      2  C   UNL     1       0.645   8.871  21.880  0.00  0.00    +0.000 C 
ATOM      3  C   UNL     1       1.758   8.563  20.914  0.00  0.00    +0.000 C 
ATOM      4  N   UNL     1       1.412   8.813  19.527  0.00  0.00    +0.000 N 
ATOM      5  C   UNL     1       2.123   8.286  18.434  0.00  0.00    +0.000 C 
ATOM      6  O   UNL     1       2.371   9.020  17.461  0.00  0.00    +0.000 OA
ATOM      7  C   UNL     1       0.912  10.155  19.300  0.00  0.00    +0.000 C 
ATOM      8  C   UNL     1      -0.345  10.449  20.085  0.00  0.00    +0.000 C 
ENDROOT
BRANCH   5   9
ATOM      9  C   UNL     1       2.531   6.851  18.269  0.00  0.00    +0.000 A 
ATOM     10  C   UNL     1       3.713   6.660  17.536  0.00  0.00    +0.000 A 
ATOM     11  C   UNL     1       4.274   5.413  17.466  0.00  0.00    +0.000 A 
ATOM     12  C   UNL     1       3.572   4.349  18.021  0.00  0.00    +0.000 A 
ATOM     13  C   UNL     1       4.078   3.067  17.893  0.00  0.00    +0.000 A 
ATOM     14  C   UNL     1       3.208   2.002  17.755  0.00  0.00    +0.000 A 
ATOM     15  C   UNL     1       1.939   2.174  18.279  0.00  0.00    +0.000 A 
ATOM     16  C   UNL     1       1.543   3.425  18.800  0.00  0.00    +0.000 A 
ATOM     17  C   UNL     1       2.286   4.576  18.556  0.00  0.00    +0.000 A 
ATOM     18  N   UNL     1       1.811   5.818  18.772  0.00  0.00    +0.000 NA
ENDBRANCH   5   9
BRANCH   1  19
ATOM     19  O   UNL     1      -0.040  11.270  22.398  0.00  0.00    +0.000 OA
BRANCH  19  25
ATOM     20  C   UNL     1      -1.304  13.331  21.928  0.00  0.00    +0.000 A 
ATOM     21  C   UNL     1      -2.517  14.022  22.199  0.00  0.00    +0.000 A 
ATOM     22  C   UNL     1      -3.492  13.501  23.038  0.00  0.00    +0.000 A 
ATOM     23  C   UNL     1      -3.274  12.269  23.580  0.00  0.00    +0.000 A 
ATOM     24  N   UNL     1      -2.168  11.548  23.336  0.00  0.00    +0.000 NA
ATOM     25  C   UNL     1      -1.186  12.067  22.537  0.00  0.00    +0.000 A 
BRANCH  20  29
ATOM     26  C   UNL     1       3.136  15.630  21.526  0.00  0.00    +0.000 C 
ATOM     27  C   UNL     1       1.823  15.227  20.917  0.00  0.00    +0.000 A 
ATOM     28  C   UNL     1       0.871  14.551  21.678  0.00  0.00    +0.000 A 
ATOM     29  C   UNL     1      -0.296  14.026  21.078  0.00  0.00    +0.000 A 
ATOM     30  C   UNL     1      -0.452  14.259  19.717  0.00  0.00    +0.000 A 
ATOM     31  C   UNL     1       0.521  14.987  19.036  0.00  0.00    +0.000 A 
ATOM     32  N   UNL     1       1.650  15.474  19.606  0.00  0.00    +0.000 NA
ENDBRANCH  20  29
ENDBRANCH  19  25
ENDBRANCH   1  19
TORSDOF 4
ENDMDL
MODEL 9
REMARK VINA RESULT:      -8.5      2.454      9.999
REMARK  Name = 
REMARK  5 active torsions:
REMARK  status: ('A' for Active; 'I' for Inactive)
REMARK    1  A    between atoms: C_1  and  C_2
REMARK    2  A    between atoms: C_4  and  C_5
REMARK    3  A    between atoms: C_10  and  O_11
REMARK    4  A    between atoms: O_11  and  C_12
REMARK    5  A    between atoms: C_16  and  C_18
REMARK                            x       y       z     vdW  Elec       q    Type
REMARK                         _______ _______ _______ _____ _____    ______ ____
ROOT
ATOM      1  C   UNL     1       2.601   7.276  19.060  0.00  0.00    +0.000 C 
ATOM      2  C   UNL     1       1.740   7.709  20.281  0.00  0.00    +0.000 C 
ATOM      3  C   UNL     1       0.682   8.760  20.075  0.00  0.00    +0.000 C 
ATOM      4  N   UNL     1       1.052   9.780  19.112  0.00  0.00    +0.000 N 
ATOM      5  C   UNL     1       0.414  11.028  19.006  0.00  0.00    +0.000 C 
ATOM      6  O   UNL     1       0.145  11.479  17.878  0.00  0.00    +0.000 OA
ATOM      7  C   UNL     1       1.464   9.231  17.834  0.00  0.00    +0.000 C 
ATOM      8  C   UNL     1       2.672   8.332  17.949  0.00  0.00    +0.000 C 
ENDROOT
BRANCH   5   9
ATOM      9  C   UNL     1       0.112  11.953  20.149  0.00  0.00    +0.000 A 
ATOM     10  C   UNL     1       1.192  12.751  20.557  0.00  0.00    +0.000 A 
ATOM     11  C   UNL     1       0.990  13.750  21.472  0.00  0.00    +0.000 A 
ATOM     12  C   UNL     1      -0.265  13.849  22.065  0.00  0.00    +0.000 A 
ATOM     13  C   UNL     1      -0.471  14.798  23.052  0.00  0.00    +0.000 A 
ATOM     14  C   UNL     1      -1.328  14.515  24.099  0.00  0.00    +0.000 A 
ATOM     15  C   UNL     1      -2.317  13.580  23.848  0.00  0.00    +0.000 A 
ATOM     16  C   UNL     1      -2.341  12.874  22.626  0.00  0.00    +0.000 A 
ATOM     17  C   UNL     1      -1.245  12.879  21.768  0.00  0.00    +0.000 A 
ATOM     18  N   UNL     1      -1.102  12.005  20.753  0.00  0.00    +0.000 NA
ENDBRANCH   5   9
BRANCH   1  19
ATOM     19  O   UNL     1       2.240   5.959  18.498  0.00  0.00    +0.000 OA
BRANCH  19  25
ATOM     20  C   UNL     1       3.752   4.273  19.465  0.00  0.00    +0.000 A 
ATOM     21  C   UNL     1       3.836   3.209  20.405  0.00  0.00    +0.000 A 
ATOM     22  C   UNL     1       2.747   2.807  21.165  0.00  0.00    +0.000 A 
ATOM     23  C   UNL     1       1.578   3.494  21.016  0.00  0.00    +0.000 A 
ATOM     24  N   UNL     1       1.442   4.531  20.173  0.00  0.00    +0.000 NA
ATOM     25  C   UNL     1       2.500   4.913  19.395  0.00  0.00    +0.000 A 
BRANCH  20  29
ATOM     26  C   UNL     1       6.120   4.027  15.050  0.00  0.00    +0.000 C 
ATOM     27  C   UNL     1       6.140   4.347  16.518  0.00  0.00    +0.000 A 
ATOM     28  C   UNL     1       5.013   4.116  17.304  0.00  0.00    +0.000 A 
ATOM     29  C   UNL     1       4.964   4.559  18.645  0.00  0.00    +0.000 A 
ATOM     30  C   UNL     1       6.103   5.189  19.134  0.00  0.00    +0.000 A 
ATOM     31  C   UNL     1       7.208   5.336  18.298  0.00  0.00    +0.000 A 
ATOM     32  N   UNL     1       7.250   4.930  17.007  0.00  0.00    +0.000 NA
ENDBRANCH  20  29
ENDBRANCH  19  25
ENDBRANCH   1  19
TORSDOF 4
ENDMDL
