MODEL 1
REMARK VINA RESULT:      -7.8      0.000      0.000
REMARK  Name = 
REMARK  7 active torsions:
REMARK  status: ('A' for Active; 'I' for Inactive)
REMARK    1  A    between atoms: C_1  and  C_2
REMARK    2  A    between atoms: C_2  and  C_3
REMARK    3  A    between atoms: C_2  and  C_4
REMARK    4  A    between atoms: N_8  and  C_9
REMARK    5  A    between atoms: C_9  and  C_10
REMARK    6  A    between atoms: C_10  and  C_11
REMARK    7  A    between atoms: N_14  and  C_15
REMARK                            x       y       z     vdW  Elec       q    Type
REMARK                         _______ _______ _______ _____ _____    ______ ____
ROOT
ATOM      1  C   UNL     1       5.942   4.516  18.178  0.00  0.00    +0.000 A 
ATOM      2  C   UNL     1       7.325   4.778  18.099  0.00  0.00    +0.000 A 
ATOM      3  N   UNL     1       7.786   4.817  16.844  0.00  0.00    +0.000 NA
ATOM      4  N   UNL     1       6.695   4.568  16.071  0.00  0.00    +0.000 N 
ATOM      5  C   UNL     1       5.571   4.421  16.852  0.00  0.00    +0.000 A 
ENDROOT
BRANCH   4   6
ATOM      6  C   UNL     1       6.770   4.465  14.651  0.00  0.00    +0.000 A 
ATOM      7  C   UNL     1       5.934   3.579  13.957  0.00  0.00    +0.000 A 
ATOM      8  C   UNL     1       6.021   3.478  12.562  0.00  0.00    +0.000 A 
ATOM      9  C   UNL     1       6.940   4.253  11.855  0.00  0.00    +0.000 A 
ATOM     10  C   UNL     1       7.765   5.144  12.535  0.00  0.00    +0.000 A 
ATOM     11  C   UNL     1       7.677   5.256  13.925  0.00  0.00    +0.000 A 
ENDBRANCH   4   6
BRANCH   1  12
ATOM     12  C   UNL     1       5.024   4.242  19.324  0.00  0.00    +0.000 C 
BRANCH  12  13
ATOM     13  C   UNL     1       4.345   2.878  19.429  0.00  0.00    +0.000 C 
BRANCH  13  18
ATOM     14  C   UNL     1       1.823   3.407  19.532  0.00  0.00    +0.000 A 
ATOM     15  N   UNL     1       0.872   3.303  20.445  0.00  0.00    +0.000 NA
ATOM     16  C   UNL     1       1.473   2.881  21.593  0.00  0.00    +0.000 A 
ATOM     17  C   UNL     1       2.819   2.719  21.395  0.00  0.00    +0.000 A 
ATOM     18  N   UNL     1       3.038   3.030  20.072  0.00  0.00    +0.000 N 
BRANCH  14  20
ATOM     19  C   UNL     1       2.080   5.382  17.994  0.00  0.00    +0.000 C 
ATOM     20  C   UNL     1       1.587   3.932  18.138  0.00  0.00    +0.000 C 
ATOM     21  C   UNL     1       2.334   3.059  17.126  0.00  0.00    +0.000 C 
ENDBRANCH  14  20
ENDBRANCH  13  18
ENDBRANCH  12  13
ENDBRANCH   1  12
TORSDOF 5
ENDMDL
MODEL 2
REMARK VINA RESULT:      -7.8      3.487      7.739
REMARK  Name = 
REMARK  7 active torsions:
REMARK  status: ('A' for Active; 'I' for Inactive)
REMARK    1  A    between atoms: C_1  and  C_2
REMARK    2  A    between atoms: C_2  and  C_3
REMARK    3  A    between atoms: C_2  and  C_4
REMARK    4  A    between atoms: N_8  and  C_9
REMARK    5  A    between atoms: C_9  and  C_10
REMARK    6  A    between atoms: C_10  and  C_11
REMARK    7  A    between atoms: N_14  and  C_15
REMARK                            x       y       z     vdW  Elec       q    Type
REMARK                         _______ _______ _______ _____ _____    ______ ____
ROOT
ATOM      1  C   UNL     1       3.240   6.014  18.045  0.00  0.00    +0.000 A 
ATOM      2  C   UNL     1       3.508   7.233  17.389  0.00  0.00    +0.000 A 
ATOM      3  N   UNL     1       2.922   8.286  17.969  0.00  0.00    +0.000 NA
ATOM      4  N   UNL     1       2.243   7.762  19.024  0.00  0.00    +0.000 N 
ATOM      5  C   UNL     1       2.450   6.403  19.108  0.00  0.00    +0.000 A 
ENDROOT
BRANCH   4   6
ATOM      6  C   UNL     1       1.426   8.557  19.881  0.00  0.00    +0.000 A 
ATOM      7  C   UNL     1       0.803   9.714  19.397  0.00  0.00    +0.000 A 
ATOM      8  C   UNL     1       0.011  10.495  20.249  0.00  0.00    +0.000 A 
ATOM      9  C   UNL     1      -0.161  10.130  21.584  0.00  0.00    +0.000 A 
ATOM     10  C   UNL     1       0.445   8.975  22.070  0.00  0.00    +0.000 A 
ATOM     11  C   UNL     1       1.230   8.188  21.224  0.00  0.00    +0.000 A 
ENDBRANCH   4   6
BRANCH   1  12
ATOM     12  C   UNL     1       3.540   4.590  17.706  0.00  0.00    +0.000 C 
BRANCH  12  13
ATOM     13  C   UNL     1       4.949   4.048  17.939  0.00  0.00    +0.000 C 
BRANCH  13  18
ATOM     14  C   UNL     1       6.804   5.522  16.921  0.00  0.00    +0.000 A 
ATOM     15  N   UNL     1       7.460   5.558  15.773  0.00  0.00    +0.000 NA
ATOM     16  C   UNL     1       6.904   4.605  14.972  0.00  0.00    +0.000 A 
ATOM     17  C   UNL     1       5.888   3.964  15.629  0.00  0.00    +0.000 A 
ATOM     18  N   UNL     1       5.841   4.532  16.882  0.00  0.00    +0.000 N 
BRANCH  14  20
ATOM     19  C   UNL     1       7.980   5.872  19.118  0.00  0.00    +0.000 C 
ATOM     20  C   UNL     1       7.054   6.485  18.055  0.00  0.00    +0.000 C 
ATOM     21  C   UNL     1       7.707   7.759  17.513  0.00  0.00    +0.000 C 
ENDBRANCH  14  20
ENDBRANCH  13  18
ENDBRANCH  12  13
ENDBRANCH   1  12
TORSDOF 5
ENDMDL
MODEL 3
REMARK VINA RESULT:      -7.7      4.302      7.849
REMARK  Name = 
REMARK  7 active torsions:
REMARK  status: ('A' for Active; 'I' for Inactive)
REMARK    1  A    between atoms: C_1  and  C_2
REMARK    2  A    between atoms: C_2  and  C_3
REMARK    3  A    between atoms: C_2  and  C_4
REMARK    4  A    between atoms: N_8  and  C_9
REMARK    5  A    between atoms: C_9  and  C_10
REMARK    6  A    between atoms: C_10  and  C_11
REMARK    7  A    between atoms: N_14  and  C_15
REMARK                            x       y       z     vdW  Elec       q    Type
REMARK                         _______ _______ _______ _____ _____    ______ ____
ROOT
ATOM      1  C   UNL     1       2.558   7.643  18.444  0.00  0.00    +0.000 A 
ATOM      2  C   UNL     1       2.030   8.750  17.748  0.00  0.00    +0.000 A 
ATOM      3  N   UNL     1       1.296   9.560  18.519  0.00  0.00    +0.000 NA
ATOM      4  N   UNL     1       1.327   8.980  19.749  0.00  0.00    +0.000 N 
ATOM      5  C   UNL     1       2.109   7.848  19.733  0.00  0.00    +0.000 A 
ENDROOT
BRANCH   4   6
ATOM      6  C   UNL     1       0.610   9.509  20.863  0.00  0.00    +0.000 A 
ATOM      7  C   UNL     1       0.642   8.857  22.103  0.00  0.00    +0.000 A 
ATOM      8  C   UNL     1      -0.074   9.378  23.190  0.00  0.00    +0.000 A 
ATOM      9  C   UNL     1      -0.824  10.545  23.045  0.00  0.00    +0.000 A 
ATOM     10  C   UNL     1      -0.852  11.205  21.821  0.00  0.00    +0.000 A 
ATOM     11  C   UNL     1      -0.134  10.695  20.736  0.00  0.00    +0.000 A 
ENDBRANCH   4   6
BRANCH   1  12
ATOM     12  C   UNL     1       3.297   6.423  18.001  0.00  0.00    +0.000 C 
BRANCH  12  13
ATOM     13  C   UNL     1       4.065   5.599  19.031  0.00  0.00    +0.000 C 
BRANCH  13  18
ATOM     14  C   UNL     1       2.849   3.392  19.578  0.00  0.00    +0.000 A 
ATOM     15  N   UNL     1       2.774   2.192  19.026  0.00  0.00    +0.000 NA
ATOM     16  C   UNL     1       3.636   2.190  17.970  0.00  0.00    +0.000 A 
ATOM     17  C   UNL     1       4.257   3.406  17.860  0.00  0.00    +0.000 A 
ATOM     18  N   UNL     1       3.735   4.181  18.870  0.00  0.00    +0.000 N 
BRANCH  14  20
ATOM     19  C   UNL     1       0.809   4.530  20.513  0.00  0.00    +0.000 C 
ATOM     20  C   UNL     1       2.112   3.779  20.835  0.00  0.00    +0.000 C 
ATOM     21  C   UNL     1       1.767   2.522  21.637  0.00  0.00    +0.000 C 
ENDBRANCH  14  20
ENDBRANCH  13  18
ENDBRANCH  12  13
ENDBRANCH   1  12
TORSDOF 5
ENDMDL
MODEL 4
REMARK VINA RESULT:      -7.7      0.857      1.113
REMARK  Name = 
REMARK  7 active torsions:
REMARK  status: ('A' for Active; 'I' for Inactive)
REMARK    1  A    between atoms: C_1  and  C_2
REMARK    2  A    between atoms: C_2  and  C_3
REMARK    3  A    between atoms: C_2  and  C_4
REMARK    4  A    between atoms: N_8  and  C_9
REMARK    5  A    between atoms: C_9  and  C_10
REMARK    6  A    between atoms: C_10  and  C_11
REMARK    7  A    between atoms: N_14  and  C_15
REMARK                            x       y       z     vdW  Elec       q    Type
REMARK                         _______ _______ _______ _____ _____    ______ ____
ROOT
ATOM      1  C   UNL     1       6.055   4.739  18.162  0.00  0.00    +0.000 A 
ATOM      2  C   UNL     1       7.460   4.767  18.050  0.00  0.00    +0.000 A 
ATOM      3  N   UNL     1       7.892   4.703  16.786  0.00  0.00    +0.000 NA
ATOM      4  N   UNL     1       6.757   4.622  16.040  0.00  0.00    +0.000 N 
ATOM      5  C   UNL     1       5.642   4.679  16.846  0.00  0.00    +0.000 A 
ENDROOT
BRANCH   4   6
ATOM      6  C   UNL     1       6.781   4.479  14.622  0.00  0.00    +0.000 A 
ATOM      7  C   UNL     1       5.897   3.600  13.981  0.00  0.00    +0.000 A 
ATOM      8  C   UNL     1       5.934   3.459  12.587  0.00  0.00    +0.000 A 
ATOM      9  C   UNL     1       6.850   4.187  11.829  0.00  0.00    +0.000 A 
ATOM     10  C   UNL     1       7.723   5.071  12.456  0.00  0.00    +0.000 A 
ATOM     11  C   UNL     1       7.686   5.223  13.844  0.00  0.00    +0.000 A 
ENDBRANCH   4   6
BRANCH   1  12
ATOM     12  C   UNL     1       5.131   4.645  19.332  0.00  0.00    +0.000 C 
BRANCH  12  13
ATOM     13  C   UNL     1       3.676   5.081  19.173  0.00  0.00    +0.000 C 
BRANCH  13  18
ATOM     14  C   UNL     1       2.297   2.940  19.583  0.00  0.00    +0.000 A 
ATOM     15  N   UNL     1       1.651   2.415  20.610  0.00  0.00    +0.000 NA
ATOM     16  C   UNL     1       1.718   3.324  21.625  0.00  0.00    +0.000 A 
ATOM     17  C   UNL     1       2.416   4.432  21.225  0.00  0.00    +0.000 A 
ATOM     18  N   UNL     1       2.808   4.177  19.931  0.00  0.00    +0.000 N 
BRANCH  14  20
ATOM     19  C   UNL     1       2.285   3.323  17.096  0.00  0.00    +0.000 C 
ATOM     20  C   UNL     1       2.381   2.286  18.227  0.00  0.00    +0.000 C 
ATOM     21  C   UNL     1       3.712   1.542  18.097  0.00  0.00    +0.000 C 
ENDBRANCH  14  20
ENDBRANCH  13  18
ENDBRANCH  12  13
ENDBRANCH   1  12
TORSDOF 5
ENDMDL
MODEL 5
REMARK VINA RESULT:      -7.6      3.154      7.659
REMARK  Name = 
REMARK  7 active torsions:
REMARK  status: ('A' for Active; 'I' for Inactive)
REMARK    1  A    between atoms: C_1  and  C_2
REMARK    2  A    between atoms: C_2  and  C_3
REMARK    3  A    between atoms: C_2  and  C_4
REMARK    4  A    between atoms: N_8  and  C_9
REMARK    5  A    between atoms: C_9  and  C_10
REMARK    6  A    between atoms: C_10  and  C_11
REMARK    7  A    between atoms: N_14  and  C_15
REMARK                            x       y       z     vdW  Elec       q    Type
REMARK                         _______ _______ _______ _____ _____    ______ ____
ROOT
ATOM      1  C   UNL     1       2.880   5.234  18.473  0.00  0.00    +0.000 A 
ATOM      2  C   UNL     1       2.624   4.858  19.807  0.00  0.00    +0.000 A 
ATOM      3  N   UNL     1       2.099   5.843  20.544  0.00  0.00    +0.000 NA
ATOM      4  N   UNL     1       2.012   6.899  19.691  0.00  0.00    +0.000 N 
ATOM      5  C   UNL     1       2.442   6.542  18.433  0.00  0.00    +0.000 A 
ENDROOT
BRANCH   4   6
ATOM      6  C   UNL     1       1.548   8.182  20.105  0.00  0.00    +0.000 A 
ATOM      7  C   UNL     1       1.281   8.439  21.457  0.00  0.00    +0.000 A 
ATOM      8  C   UNL     1       0.816   9.700  21.853  0.00  0.00    +0.000 A 
ATOM      9  C   UNL     1       0.613  10.706  20.909  0.00  0.00    +0.000 A 
ATOM     10  C   UNL     1       0.887  10.463  19.566  0.00  0.00    +0.000 A 
ATOM     11  C   UNL     1       1.359   9.210  19.165  0.00  0.00    +0.000 A 
ENDBRANCH   4   6
BRANCH   1  12
ATOM     12  C   UNL     1       3.572   4.550  17.340  0.00  0.00    +0.000 C 
BRANCH  12  13
ATOM     13  C   UNL     1       4.968   3.970  17.557  0.00  0.00    +0.000 C 
BRANCH  13  18
ATOM     14  C   UNL     1       6.827   5.552  16.725  0.00  0.00    +0.000 A 
ATOM     15  N   UNL     1       7.534   5.678  15.614  0.00  0.00    +0.000 NA
ATOM     16  C   UNL     1       7.044   4.764  14.729  0.00  0.00    +0.000 A 
ATOM     17  C   UNL     1       6.016   4.058  15.296  0.00  0.00    +0.000 A 
ATOM     18  N   UNL     1       5.895   4.543  16.577  0.00  0.00    +0.000 N 
BRANCH  14  20
ATOM     19  C   UNL     1       7.852   5.772  19.012  0.00  0.00    +0.000 C 
ATOM     20  C   UNL     1       6.997   6.447  17.927  0.00  0.00    +0.000 C 
ATOM     21  C   UNL     1       7.679   7.750  17.506  0.00  0.00    +0.000 C 
ENDBRANCH  14  20
ENDBRANCH  13  18
ENDBRANCH  12  13
ENDBRANCH   1  12
TORSDOF 5
ENDMDL
MODEL 6
REMARK VINA RESULT:      -7.6      1.095      1.930
REMARK  Name = 
REMARK  7 active torsions:
REMARK  status: ('A' for Active; 'I' for Inactive)
REMARK    1  A    between atoms: C_1  and  C_2
REMARK    2  A    between atoms: C_2  and  C_3
REMARK    3  A    between atoms: C_2  and  C_4
REMARK    4  A    between atoms: N_8  and  C_9
REMARK    5  A    between atoms: C_9  and  C_10
REMARK    6  A    between atoms: C_10  and  C_11
REMARK    7  A    between atoms: N_14  and  C_15
REMARK                            x       y       z     vdW  Elec       q    Type
REMARK                         _______ _______ _______ _____ _____    ______ ____
ROOT
ATOM      1  C   UNL     1       6.161   5.408  18.189  0.00  0.00    +0.000 A 
ATOM      2  C   UNL     1       7.473   4.895  18.141  0.00  0.00    +0.000 A 
ATOM      3  N   UNL     1       7.872   4.575  16.905  0.00  0.00    +0.000 NA
ATOM      4  N   UNL     1       6.806   4.871  16.115  0.00  0.00    +0.000 N 
ATOM      5  C   UNL     1       5.781   5.407  16.863  0.00  0.00    +0.000 A 
ENDROOT
BRANCH   4   6
ATOM      6  C   UNL     1       6.800   4.621  14.711  0.00  0.00    +0.000 A 
ATOM      7  C   UNL     1       7.699   5.286  13.867  0.00  0.00    +0.000 A 
ATOM      8  C   UNL     1       7.680   5.042  12.487  0.00  0.00    +0.000 A 
ATOM      9  C   UNL     1       6.765   4.140  11.943  0.00  0.00    +0.000 A 
ATOM     10  C   UNL     1       5.877   3.467  12.776  0.00  0.00    +0.000 A 
ATOM     11  C   UNL     1       5.896   3.699  14.153  0.00  0.00    +0.000 A 
ENDBRANCH   4   6
BRANCH   1  12
ATOM     12  C   UNL     1       5.249   5.760  19.319  0.00  0.00    +0.000 C 
BRANCH  12  13
ATOM     13  C   UNL     1       3.740   5.775  19.084  0.00  0.00    +0.000 C 
BRANCH  13  18
ATOM     14  C   UNL     1       3.161   3.304  19.542  0.00  0.00    +0.000 A 
ATOM     15  N   UNL     1       2.558   2.639  20.513  0.00  0.00    +0.000 NA
ATOM     16  C   UNL     1       2.100   3.567  21.401  0.00  0.00    +0.000 A 
ATOM     17  C   UNL     1       2.421   4.829  20.978  0.00  0.00    +0.000 A 
ATOM     18  N   UNL     1       3.121   4.660  19.805  0.00  0.00    +0.000 N 
BRANCH  14  20
ATOM     19  C   UNL     1       3.835   1.122  18.485  0.00  0.00    +0.000 C 
ATOM     20  C   UNL     1       3.732   2.647  18.311  0.00  0.00    +0.000 C 
ATOM     21  C   UNL     1       2.834   2.942  17.107  0.00  0.00    +0.000 C 
ENDBRANCH  14  20
ENDBRANCH  13  18
ENDBRANCH  12  13
ENDBRANCH   1  12
TORSDOF 5
ENDMDL
MODEL 7
REMARK VINA RESULT:      -7.5      1.104      1.810
REMARK  Name = 
REMARK  7 active torsions:
REMARK  status: ('A' for Active; 'I' for Inactive)
REMARK    1  A    between atoms: C_1  and  C_2
REMARK    2  A    between atoms: C_2  and  C_3
REMARK    3  A    between atoms: C_2  and  C_4
REMARK    4  A    between atoms: N_8  and  C_9
REMARK    5  A    between atoms: C_9  and  C_10
REMARK    6  A    between atoms: C_10  and  C_11
REMARK    7  A    between atoms: N_14  and  C_15
REMARK                            x       y       z     vdW  Elec       q    Type
REMARK                         _______ _______ _______ _____ _____    ______ ____
ROOT
ATOM      1  C   UNL     1       6.185   5.016  17.890  0.00  0.00    +0.000 A 
ATOM      2  C   UNL     1       7.227   5.914  17.583  0.00  0.00    +0.000 A 
ATOM      3  N   UNL     1       7.554   5.924  16.286  0.00  0.00    +0.000 NA
ATOM      4  N   UNL     1       6.722   5.010  15.717  0.00  0.00    +0.000 N 
ATOM      5  C   UNL     1       5.868   4.480  16.658  0.00  0.00    +0.000 A 
ENDROOT
BRANCH   4   6
ATOM      6  C   UNL     1       6.786   4.674  14.333  0.00  0.00    +0.000 A 
ATOM      7  C   UNL     1       7.690   5.325  13.484  0.00  0.00    +0.000 A 
ATOM      8  C   UNL     1       7.739   4.996  12.123  0.00  0.00    +0.000 A 
ATOM      9  C   UNL     1       6.887   4.021  11.603  0.00  0.00    +0.000 A 
ATOM     10  C   UNL     1       5.994   3.361  12.441  0.00  0.00    +0.000 A 
ATOM     11  C   UNL     1       5.946   3.680  13.801  0.00  0.00    +0.000 A 
ENDBRANCH   4   6
BRANCH   1  12
ATOM     12  C   UNL     1       5.586   4.557  19.179  0.00  0.00    +0.000 C 
BRANCH  12  13
ATOM     13  C   UNL     1       4.621   3.373  19.175  0.00  0.00    +0.000 C 
BRANCH  13  18
ATOM     14  C   UNL     1       2.669   4.748  20.149  0.00  0.00    +0.000 A 
ATOM     15  N   UNL     1       1.719   4.537  21.045  0.00  0.00    +0.000 NA
ATOM     16  C   UNL     1       1.950   3.306  21.583  0.00  0.00    +0.000 A 
ATOM     17  C   UNL     1       3.061   2.740  21.016  0.00  0.00    +0.000 A 
ATOM     18  N   UNL     1       3.504   3.649  20.082  0.00  0.00    +0.000 N 
BRANCH  14  20
ATOM     19  C   UNL     1       2.320   5.901  17.940  0.00  0.00    +0.000 C 
ATOM     20  C   UNL     1       2.824   6.040  19.386  0.00  0.00    +0.000 C 
ATOM     21  C   UNL     1       2.025   7.146  20.080  0.00  0.00    +0.000 C 
ENDBRANCH  14  20
ENDBRANCH  13  18
ENDBRANCH  12  13
ENDBRANCH   1  12
TORSDOF 5
ENDMDL
MODEL 8
REMARK VINA RESULT:      -7.4      0.618      1.241
REMARK  Name = 
REMARK  7 active torsions:
REMARK  status: ('A' for Active; 'I' for Inactive)
REMARK    1  A    between atoms: C_1  and  C_2
REMARK    2  A    between atoms: C_2  and  C_3
REMARK    3  A    between atoms: C_2  and  C_4
REMARK    4  A    between atoms: N_8  and  C_9
REMARK    5  A    between atoms: C_9  and  C_10
REMARK    6  A    between atoms: C_10  and  C_11
REMARK    7  A    between atoms: N_14  and  C_15
REMARK                            x       y       z     vdW  Elec       q    Type
REMARK                         _______ _______ _______ _____ _____    ______ ____
ROOT
ATOM      1  C   UNL     1       5.567   4.800  18.039  0.00  0.00    +0.000 A 
ATOM      2  C   UNL     1       6.037   6.094  17.733  0.00  0.00    +0.000 A 
ATOM      3  N   UNL     1       6.399   6.237  16.453  0.00  0.00    +0.000 NA
ATOM      4  N   UNL     1       6.177   5.016  15.896  0.00  0.00    +0.000 N 
ATOM      5  C   UNL     1       5.643   4.150  16.824  0.00  0.00    +0.000 A 
ENDROOT
BRANCH   4   6
ATOM      6  C   UNL     1       6.492   4.725  14.536  0.00  0.00    +0.000 A 
ATOM      7  C   UNL     1       7.542   5.393  13.891  0.00  0.00    +0.000 A 
ATOM      8  C   UNL     1       7.838   5.108  12.552  0.00  0.00    +0.000 A 
ATOM      9  C   UNL     1       7.090   4.164  11.850  0.00  0.00    +0.000 A 
ATOM     10  C   UNL     1       6.053   3.488  12.486  0.00  0.00    +0.000 A 
ATOM     11  C   UNL     1       5.758   3.761  13.824  0.00  0.00    +0.000 A 
ENDBRANCH   4   6
BRANCH   1  12
ATOM     12  C   UNL     1       5.195   4.132  19.322  0.00  0.00    +0.000 C 
BRANCH  12  13
ATOM     13  C   UNL     1       4.368   2.849  19.283  0.00  0.00    +0.000 C 
BRANCH  13  18
ATOM     14  C   UNL     1       1.890   3.519  19.536  0.00  0.00    +0.000 A 
ATOM     15  N   UNL     1       0.984   3.444  20.495  0.00  0.00    +0.000 NA
ATOM     16  C   UNL     1       1.618   2.955  21.599  0.00  0.00    +0.000 A 
ATOM     17  C   UNL     1       2.939   2.721  21.324  0.00  0.00    +0.000 A 
ATOM     18  N   UNL     1       3.107   3.057  20.000  0.00  0.00    +0.000 N 
BRANCH  14  20
ATOM     19  C   UNL     1       2.156   5.531  18.048  0.00  0.00    +0.000 C 
ATOM     20  C   UNL     1       1.614   4.098  18.170  0.00  0.00    +0.000 C 
ATOM     21  C   UNL     1       2.280   3.229  17.100  0.00  0.00    +0.000 C 
ENDBRANCH  14  20
ENDBRANCH  13  18
ENDBRANCH  12  13
ENDBRANCH   1  12
TORSDOF 5
ENDMDL
MODEL 9
REMARK VINA RESULT:      -7.4      0.763      1.040
REMARK  Name = 
REMARK  7 active torsions:
REMARK  status: ('A' for Active; 'I' for Inactive)
REMARK    1  A    between atoms: C_1  and  C_2
REMARK    2  A    between atoms: C_2  and  C_3
REMARK    3  A    between atoms: C_2  and  C_4
REMARK    4  A    between atoms: N_8  and  C_9
REMARK    5  A    between atoms: C_9  and  C_10
REMARK    6  A    between atoms: C_10  and  C_11
REMARK    7  A    between atoms: N_14  and  C_15
REMARK                            x       y       z     vdW  Elec       q    Type
REMARK                         _______ _______ _______ _____ _____    ______ ____
ROOT
ATOM      1  C   UNL     1       6.054   5.143  18.084  0.00  0.00    +0.000 A 
ATOM      2  C   UNL     1       7.077   6.064  17.780  0.00  0.00    +0.000 A 
ATOM      3  N   UNL     1       7.425   6.061  16.489  0.00  0.00    +0.000 NA
ATOM      4  N   UNL     1       6.629   5.116  15.922  0.00  0.00    +0.000 N 
ATOM      5  C   UNL     1       5.773   4.579  16.857  0.00  0.00    +0.000 A 
ENDROOT
BRANCH   4   6
ATOM      6  C   UNL     1       6.725   4.759  14.544  0.00  0.00    +0.000 A 
ATOM      7  C   UNL     1       5.876   3.785  14.002  0.00  0.00    +0.000 A 
ATOM      8  C   UNL     1       5.983   3.433  12.650  0.00  0.00    +0.000 A 
ATOM      9  C   UNL     1       6.937   4.045  11.836  0.00  0.00    +0.000 A 
ATOM     10  C   UNL     1       7.776   5.021  12.364  0.00  0.00    +0.000 A 
ATOM     11  C   UNL     1       7.668   5.383  13.709  0.00  0.00    +0.000 A 
ENDBRANCH   4   6
BRANCH   1  12
ATOM     12  C   UNL     1       5.445   4.689  19.371  0.00  0.00    +0.000 C 
BRANCH  12  13
ATOM     13  C   UNL     1       4.814   3.301  19.451  0.00  0.00    +0.000 C 
BRANCH  13  18
ATOM     14  C   UNL     1       2.322   3.958  19.351  0.00  0.00    +0.000 A 
ATOM     15  N   UNL     1       1.259   3.750  20.110  0.00  0.00    +0.000 NA
ATOM     16  C   UNL     1       1.692   3.092  21.223  0.00  0.00    +0.000 A 
ATOM     17  C   UNL     1       3.044   2.886  21.158  0.00  0.00    +0.000 A 
ATOM     18  N   UNL     1       3.443   3.415  19.952  0.00  0.00    +0.000 N 
BRANCH  14  20
ATOM     19  C   UNL     1       1.046   4.386  17.226  0.00  0.00    +0.000 C 
ATOM     20  C   UNL     1       2.287   4.739  18.061  0.00  0.00    +0.000 C 
ATOM     21  C   UNL     1       2.261   6.238  18.369  0.00  0.00    +0.000 C 
ENDBRANCH  14  20
ENDBRANCH  13  18
ENDBRANCH  12  13
ENDBRANCH   1  12
TORSDOF 5
ENDMDL
