MODEL 1
REMARK VINA RESULT:      -8.5      0.000      0.000
REMARK  Name = 
REMARK  5 active torsions:
REMARK  status: ('A' for Active; 'I' for Inactive)
REMARK    1  A    between atoms: C_1  and  C_2
REMARK    2  A    between atoms: C_10  and  C_11
REMARK    3  A    between atoms: C_15  and  S_16
REMARK    4  A    between atoms: S_16  and  C_17
REMARK    5  A    between atoms: C_21  and  C_22
REMARK                            x       y       z     vdW  Elec       q    Type
REMARK                         _______ _______ _______ _____ _____    ______ ____
ROOT
ATOM      1  C   UNL     1      -1.850  13.794  22.516  0.00  0.00    +0.000 C 
ATOM      2  C   UNL     1      -1.017  12.563  22.274  0.00  0.00    +0.000 C 
ATOM      3  O   UNL     1      -0.559  11.951  23.238  0.00  0.00    +0.000 OA
ATOM      4  N   UNL     1      -0.835  12.262  20.939  0.00  0.00    +0.000 N 
ATOM      5  C   UNL     1      -0.147  11.155  20.487  0.00  0.00    +0.000 A 
ATOM      6  N   UNL     1       0.339  11.068  19.269  0.00  0.00    +0.000 NA
ATOM      7  C   UNL     1       1.038   9.872  19.138  0.00  0.00    +0.000 A 
ATOM      8  C   UNL     1       1.786   9.456  18.024  0.00  0.00    +0.000 A 
ATOM      9  C   UNL     1       2.460   8.225  18.054  0.00  0.00    +0.000 A 
ATOM     10  C   UNL     1       2.415   7.376  19.176  0.00  0.00    +0.000 A 
ATOM     11  C   UNL     1       1.647   7.782  20.281  0.00  0.00    +0.000 A 
ATOM     12  C   UNL     1       0.989   9.026  20.246  0.00  0.00    +0.000 A 
ATOM     13  S   UNL     1       0.044   9.770  21.463  0.00  0.00    +0.000 S 
ATOM     14  H   UNL     1      -1.005  12.965  20.239  0.00  0.00    +0.000 HD
ENDROOT
BRANCH  10  15
ATOM     15  C   UNL     1       3.170   6.101  19.214  0.00  0.00    +0.000 A 
ATOM     16  C   UNL     1       2.651   4.963  19.803  0.00  0.00    +0.000 A 
ATOM     17  C   UNL     1       3.452   3.848  19.803  0.00  0.00    +0.000 A 
ATOM     18  N   UNL     1       4.678   3.819  19.259  0.00  0.00    +0.000 NA
ATOM     19  C   UNL     1       5.099   4.954  18.676  0.00  0.00    +0.000 A 
ATOM     20  N   UNL     1       4.395   6.103  18.636  0.00  0.00    +0.000 NA
BRANCH  19  21
ATOM     21  S   UNL     1       6.762   4.971  18.044  0.00  0.00    +0.000 S 
BRANCH  21  22
ATOM     22  C   UNL     1       6.543   4.573  16.317  0.00  0.00    +0.000 A 
ATOM     23  C   UNL     1       5.465   3.801  15.876  0.00  0.00    +0.000 A 
ATOM     24  C   UNL     1       5.268   3.574  14.511  0.00  0.00    +0.000 A 
ATOM     25  C   UNL     1       6.142   4.124  13.572  0.00  0.00    +0.000 A 
ATOM     26  C   UNL     1       7.221   4.908  13.989  0.00  0.00    +0.000 A 
ATOM     27  C   UNL     1       8.165   5.507  12.986  0.00  0.00    +0.000 C 
ATOM     28  C   UNL     1       7.409   5.133  15.363  0.00  0.00    +0.000 A 
ENDBRANCH  21  22
ENDBRANCH  19  21
ENDBRANCH  10  15
TORSDOF 3
ENDMDL
MODEL 2
REMARK VINA RESULT:      -8.5      3.446      9.273
REMARK  Name = 
REMARK  5 active torsions:
REMARK  status: ('A' for Active; 'I' for Inactive)
REMARK    1  A    between atoms: C_1  and  C_2
REMARK    2  A    between atoms: C_10  and  C_11
REMARK    3  A    between atoms: C_15  and  S_16
REMARK    4  A    between atoms: S_16  and  C_17
REMARK    5  A    between atoms: C_21  and  C_22
REMARK                            x       y       z     vdW  Elec       q    Type
REMARK                         _______ _______ _______ _____ _____    ______ ____
ROOT
ATOM      1  C   UNL     1       6.700   4.180  15.154  0.00  0.00    +0.000 C 
ATOM      2  C   UNL     1       5.923   5.170  15.982  0.00  0.00    +0.000 C 
ATOM      3  O   UNL     1       6.217   6.363  15.922  0.00  0.00    +0.000 OA
ATOM      4  N   UNL     1       4.942   4.597  16.766  0.00  0.00    +0.000 N 
ATOM      5  C   UNL     1       4.079   5.317  17.567  0.00  0.00    +0.000 A 
ATOM      6  N   UNL     1       3.420   4.777  18.568  0.00  0.00    +0.000 NA
ATOM      7  C   UNL     1       2.695   5.766  19.226  0.00  0.00    +0.000 A 
ATOM      8  C   UNL     1       1.944   5.610  20.403  0.00  0.00    +0.000 A 
ATOM      9  C   UNL     1       1.285   6.716  20.963  0.00  0.00    +0.000 A 
ATOM     10  C   UNL     1       1.346   7.996  20.381  0.00  0.00    +0.000 A 
ATOM     11  C   UNL     1       2.078   8.145  19.190  0.00  0.00    +0.000 A 
ATOM     12  C   UNL     1       2.749   7.034  18.647  0.00  0.00    +0.000 A 
ATOM     13  S   UNL     1       3.738   6.958  17.253  0.00  0.00    +0.000 S 
ATOM     14  H   UNL     1       4.967   3.609  16.958  0.00  0.00    +0.000 HD
ENDROOT
BRANCH  10  15
ATOM     15  C   UNL     1       0.685   9.166  21.008  0.00  0.00    +0.000 A 
ATOM     16  C   UNL     1       0.355   9.184  22.350  0.00  0.00    +0.000 A 
ATOM     17  C   UNL     1      -0.278  10.310  22.814  0.00  0.00    +0.000 A 
ATOM     18  N   UNL     1      -0.570  11.367  22.039  0.00  0.00    +0.000 NA
ATOM     19  C   UNL     1      -0.187  11.286  20.754  0.00  0.00    +0.000 A 
ATOM     20  N   UNL     1       0.427  10.221  20.200  0.00  0.00    +0.000 NA
BRANCH  19  21
ATOM     21  S   UNL     1      -0.658  12.628  19.684  0.00  0.00    +0.000 S 
BRANCH  21  22
ATOM     22  C   UNL     1      -2.085  11.981  18.827  0.00  0.00    +0.000 A 
ATOM     23  C   UNL     1      -3.383  12.202  19.297  0.00  0.00    +0.000 A 
ATOM     24  C   UNL     1      -4.487  11.759  18.564  0.00  0.00    +0.000 A 
ATOM     25  C   UNL     1      -4.306  11.097  17.349  0.00  0.00    +0.000 A 
ATOM     26  C   UNL     1      -3.018  10.874  16.854  0.00  0.00    +0.000 A 
ATOM     27  C   UNL     1      -2.813  10.165  15.545  0.00  0.00    +0.000 C 
ATOM     28  C   UNL     1      -1.914  11.326  17.597  0.00  0.00    +0.000 A 
ENDBRANCH  21  22
ENDBRANCH  19  21
ENDBRANCH  10  15
TORSDOF 3
ENDMDL
MODEL 3
REMARK VINA RESULT:      -8.5      2.525      3.237
REMARK  Name = 
REMARK  5 active torsions:
REMARK  status: ('A' for Active; 'I' for Inactive)
REMARK    1  A    between atoms: C_1  and  C_2
REMARK    2  A    between atoms: C_10  and  C_11
REMARK    3  A    between atoms: C_15  and  S_16
REMARK    4  A    between atoms: S_16  and  C_17
REMARK    5  A    between atoms: C_21  and  C_22
REMARK                            x       y       z     vdW  Elec       q    Type
REMARK                         _______ _______ _______ _____ _____    ______ ____
ROOT
ATOM      1  C   UNL     1      -0.448  14.966  19.652  0.00  0.00    +0.000 C 
ATOM      2  C   UNL     1      -0.070  13.587  19.181  0.00  0.00    +0.000 C 
ATOM      3  O   UNL     1      -0.169  13.312  17.986  0.00  0.00    +0.000 OA
ATOM      4  N   UNL     1       0.340  12.742  20.193  0.00  0.00    +0.000 N 
ATOM      5  C   UNL     1       0.777  11.449  19.988  0.00  0.00    +0.000 A 
ATOM      6  N   UNL     1       0.806  10.548  20.943  0.00  0.00    +0.000 NA
ATOM      7  C   UNL     1       1.222   9.330  20.412  0.00  0.00    +0.000 A 
ATOM      8  C   UNL     1       1.286   8.099  21.088  0.00  0.00    +0.000 A 
ATOM      9  C   UNL     1       1.703   6.948  20.405  0.00  0.00    +0.000 A 
ATOM     10  C   UNL     1       2.069   6.976  19.046  0.00  0.00    +0.000 A 
ATOM     11  C   UNL     1       2.027   8.212  18.377  0.00  0.00    +0.000 A 
ATOM     12  C   UNL     1       1.590   9.358  19.067  0.00  0.00    +0.000 A 
ATOM     13  S   UNL     1       1.401  10.953  18.480  0.00  0.00    +0.000 S 
ATOM     14  H   UNL     1       0.121  12.963  21.150  0.00  0.00    +0.000 HD
ENDROOT
BRANCH  10  15
ATOM     15  C   UNL     1       2.463   5.744  18.322  0.00  0.00    +0.000 A 
ATOM     16  C   UNL     1       1.676   4.607  18.336  0.00  0.00    +0.000 A 
ATOM     17  C   UNL     1       2.155   3.517  17.652  0.00  0.00    +0.000 A 
ATOM     18  N   UNL     1       3.317   3.517  16.981  0.00  0.00    +0.000 NA
ATOM     19  C   UNL     1       4.008   4.670  16.987  0.00  0.00    +0.000 A 
ATOM     20  N   UNL     1       3.631   5.789  17.638  0.00  0.00    +0.000 NA
BRANCH  19  21
ATOM     21  S   UNL     1       5.602   4.662  16.195  0.00  0.00    +0.000 S 
BRANCH  21  22
ATOM     22  C   UNL     1       6.623   5.586  17.332  0.00  0.00    +0.000 A 
ATOM     23  C   UNL     1       7.260   4.968  18.412  0.00  0.00    +0.000 A 
ATOM     24  C   UNL     1       8.121   5.696  19.237  0.00  0.00    +0.000 A 
ATOM     25  C   UNL     1       8.363   7.047  18.986  0.00  0.00    +0.000 A 
ATOM     26  C   UNL     1       7.747   7.684  17.906  0.00  0.00    +0.000 A 
ATOM     27  C   UNL     1       8.003   9.137  17.625  0.00  0.00    +0.000 C 
ATOM     28  C   UNL     1       6.884   6.943  17.080  0.00  0.00    +0.000 A 
ENDBRANCH  21  22
ENDBRANCH  19  21
ENDBRANCH  10  15
TORSDOF 3
ENDMDL
MODEL 4
REMARK VINA RESULT:      -8.5      3.437      9.235
REMARK  Name = 
REMARK  5 active torsions:
REMARK  status: ('A' for Active; 'I' for Inactive)
REMARK    1  A    between atoms: C_1  and  C_2
REMARK    2  A    between atoms: C_10  and  C_11
REMARK    3  A    between atoms: C_15  and  S_16
REMARK    4  A    between atoms: S_16  and  C_17
REMARK    5  A    between atoms: C_21  and  C_22
REMARK                            x       y       z     vdW  Elec       q    Type
REMARK                         _______ _______ _______ _____ _____    ______ ____
ROOT
ATOM      1  C   UNL     1       6.656   4.346  15.022  0.00  0.00    +0.000 C 
ATOM      2  C   UNL     1       5.870   5.289  15.894  0.00  0.00    +0.000 C 
ATOM      3  O   UNL     1       6.119   6.492  15.854  0.00  0.00    +0.000 OA
ATOM      4  N   UNL     1       4.933   4.664  16.693  0.00  0.00    +0.000 N 
ATOM      5  C   UNL     1       4.070   5.334  17.535  0.00  0.00    +0.000 A 
ATOM      6  N   UNL     1       3.460   4.750  18.542  0.00  0.00    +0.000 NA
ATOM      7  C   UNL     1       2.721   5.696  19.244  0.00  0.00    +0.000 A 
ATOM      8  C   UNL     1       2.011   5.488  20.439  0.00  0.00    +0.000 A 
ATOM      9  C   UNL     1       1.331   6.556  21.043  0.00  0.00    +0.000 A 
ATOM     10  C   UNL     1       1.330   7.850  20.489  0.00  0.00    +0.000 A 
ATOM     11  C   UNL     1       2.020   8.052  19.282  0.00  0.00    +0.000 A 
ATOM     12  C   UNL     1       2.713   6.978  18.693  0.00  0.00    +0.000 A 
ATOM     13  S   UNL     1       3.662   6.969  17.269  0.00  0.00    +0.000 S 
ATOM     14  H   UNL     1       4.998   3.674  16.861  0.00  0.00    +0.000 HD
ENDROOT
BRANCH  10  15
ATOM     15  C   UNL     1       0.647   8.982  21.162  0.00  0.00    +0.000 A 
ATOM     16  C   UNL     1       0.377   8.968  22.518  0.00  0.00    +0.000 A 
ATOM     17  C   UNL     1      -0.283  10.059  23.026  0.00  0.00    +0.000 A 
ATOM     18  N   UNL     1      -0.655  11.111  22.281  0.00  0.00    +0.000 NA
ATOM     19  C   UNL     1      -0.327  11.065  20.979  0.00  0.00    +0.000 A 
ATOM     20  N   UNL     1       0.307  10.035  20.383  0.00  0.00    +0.000 NA
BRANCH  19  21
ATOM     21  S   UNL     1      -0.903  12.398  19.952  0.00  0.00    +0.000 S 
BRANCH  21  22
ATOM     22  C   UNL     1      -1.899  11.564  18.726  0.00  0.00    +0.000 A 
ATOM     23  C   UNL     1      -1.339  10.655  17.824  0.00  0.00    +0.000 A 
ATOM     24  C   UNL     1      -2.152   9.951  16.931  0.00  0.00    +0.000 A 
ATOM     25  C   UNL     1      -3.534  10.143  16.936  0.00  0.00    +0.000 A 
ATOM     26  C   UNL     1      -4.118  11.038  17.836  0.00  0.00    +0.000 A 
ATOM     27  C   UNL     1      -5.605  11.249  17.851  0.00  0.00    +0.000 C 
ATOM     28  C   UNL     1      -3.293  11.739  18.732  0.00  0.00    +0.000 A 
ENDBRANCH  21  22
ENDBRANCH  19  21
ENDBRANCH  10  15
TORSDOF 3
ENDMDL
MODEL 5
REMARK VINA RESULT:      -8.4      3.939      9.429
REMARK  Name = 
REMARK  5 active torsions:
REMARK  status: ('A' for Active; 'I' for Inactive)
REMARK    1  A    between atoms: C_1  and  C_2
REMARK    2  A    between atoms: C_10  and  C_11
REMARK    3  A    between atoms: C_15  and  S_16
REMARK    4  A    between atoms: S_16  and  C_17
REMARK    5  A    between atoms: C_21  and  C_22
REMARK                            x       y       z     vdW  Elec       q    Type
REMARK                         _______ _______ _______ _____ _____    ______ ____
ROOT
ATOM      1  C   UNL     1       3.882   1.252  18.416  0.00  0.00    +0.000 C 
ATOM      2  C   UNL     1       3.125   2.414  19.003  0.00  0.00    +0.000 C 
ATOM      3  O   UNL     1       2.229   2.196  19.816  0.00  0.00    +0.000 OA
ATOM      4  N   UNL     1       3.525   3.644  18.521  0.00  0.00    +0.000 N 
ATOM      5  C   UNL     1       3.003   4.847  18.953  0.00  0.00    +0.000 A 
ATOM      6  N   UNL     1       3.101   5.956  18.256  0.00  0.00    +0.000 NA
ATOM      7  C   UNL     1       2.417   6.974  18.915  0.00  0.00    +0.000 A 
ATOM      8  C   UNL     1       2.203   8.281  18.444  0.00  0.00    +0.000 A 
ATOM      9  C   UNL     1       1.467   9.191  19.218  0.00  0.00    +0.000 A 
ATOM     10  C   UNL     1       0.926   8.841  20.469  0.00  0.00    +0.000 A 
ATOM     11  C   UNL     1       1.160   7.540  20.950  0.00  0.00    +0.000 A 
ATOM     12  C   UNL     1       1.885   6.631  20.157  0.00  0.00    +0.000 A 
ATOM     13  S   UNL     1       2.262   4.994  20.482  0.00  0.00    +0.000 S 
ATOM     14  H   UNL     1       4.056   3.700  17.668  0.00  0.00    +0.000 HD
ENDROOT
BRANCH  10  15
ATOM     15  C   UNL     1       0.109   9.796  21.256  0.00  0.00    +0.000 A 
ATOM     16  C   UNL     1      -0.150   9.599  22.600  0.00  0.00    +0.000 A 
ATOM     17  C   UNL     1      -0.941  10.535  23.219  0.00  0.00    +0.000 A 
ATOM     18  N   UNL     1      -1.447  11.608  22.590  0.00  0.00    +0.000 NA
ATOM     19  C   UNL     1      -1.123  11.746  21.293  0.00  0.00    +0.000 A 
ATOM     20  N   UNL     1      -0.366  10.876  20.594  0.00  0.00    +0.000 NA
BRANCH  19  21
ATOM     21  S   UNL     1      -1.869  13.100  20.413  0.00  0.00    +0.000 S 
BRANCH  21  22
ATOM     22  C   UNL     1      -2.966  12.282  19.265  0.00  0.00    +0.000 A 
ATOM     23  C   UNL     1      -4.354  12.321  19.426  0.00  0.00    +0.000 A 
ATOM     24  C   UNL     1      -5.194  11.745  18.469  0.00  0.00    +0.000 A 
ATOM     25  C   UNL     1      -4.656  11.132  17.337  0.00  0.00    +0.000 A 
ATOM     26  C   UNL     1      -3.271  11.091  17.149  0.00  0.00    +0.000 A 
ATOM     27  C   UNL     1      -2.683  10.436  15.932  0.00  0.00    +0.000 C 
ATOM     28  C   UNL     1      -2.435  11.675  18.115  0.00  0.00    +0.000 A 
ENDBRANCH  21  22
ENDBRANCH  19  21
ENDBRANCH  10  15
TORSDOF 3
ENDMDL
MODEL 6
REMARK VINA RESULT:      -8.3      1.883      2.464
REMARK  Name = 
REMARK  5 active torsions:
REMARK  status: ('A' for Active; 'I' for Inactive)
REMARK    1  A    between atoms: C_1  and  C_2
REMARK    2  A    between atoms: C_10  and  C_11
REMARK    3  A    between atoms: C_15  and  S_16
REMARK    4  A    between atoms: S_16  and  C_17
REMARK    5  A    between atoms: C_21  and  C_22
REMARK                            x       y       z     vdW  Elec       q    Type
REMARK                         _______ _______ _______ _____ _____    ______ ____
ROOT
ATOM      1  C   UNL     1       0.706  15.704  21.002  0.00  0.00    +0.000 C 
ATOM      2  C   UNL     1       0.970  14.224  21.068  0.00  0.00    +0.000 C 
ATOM      3  O   UNL     1       1.203  13.704  22.158  0.00  0.00    +0.000 OA
ATOM      4  N   UNL     1       0.944  13.594  19.840  0.00  0.00    +0.000 N 
ATOM      5  C   UNL     1       1.113  12.235  19.667  0.00  0.00    +0.000 A 
ATOM      6  N   UNL     1       1.456  11.701  18.517  0.00  0.00    +0.000 NA
ATOM      7  C   UNL     1       1.618  10.329  18.678  0.00  0.00    +0.000 A 
ATOM      8  C   UNL     1       2.078   9.419  17.710  0.00  0.00    +0.000 A 
ATOM      9  C   UNL     1       2.213   8.061  18.035  0.00  0.00    +0.000 A 
ATOM     10  C   UNL     1       1.899   7.564  19.314  0.00  0.00    +0.000 A 
ATOM     11  C   UNL     1       1.417   8.470  20.275  0.00  0.00    +0.000 A 
ATOM     12  C   UNL     1       1.302   9.833  19.943  0.00  0.00    +0.000 A 
ATOM     13  S   UNL     1       0.796  11.135  20.931  0.00  0.00    +0.000 S 
ATOM     14  H   UNL     1       1.027  14.137  18.996  0.00  0.00    +0.000 HD
ENDROOT
BRANCH  10  15
ATOM     15  C   UNL     1       2.091   6.135  19.660  0.00  0.00    +0.000 A 
ATOM     16  C   UNL     1       1.742   5.631  20.899  0.00  0.00    +0.000 A 
ATOM     17  C   UNL     1       1.991   4.299  21.116  0.00  0.00    +0.000 A 
ATOM     18  N   UNL     1       2.533   3.489  20.193  0.00  0.00    +0.000 NA
ATOM     19  C   UNL     1       2.814   4.045  19.003  0.00  0.00    +0.000 A 
ATOM     20  N   UNL     1       2.621   5.344  18.697  0.00  0.00    +0.000 NA
BRANCH  19  21
ATOM     21  S   UNL     1       3.632   3.017  17.802  0.00  0.00    +0.000 S 
BRANCH  21  22
ATOM     22  C   UNL     1       4.996   4.035  17.260  0.00  0.00    +0.000 A 
ATOM     23  C   UNL     1       5.148   4.401  15.920  0.00  0.00    +0.000 A 
ATOM     24  C   UNL     1       6.175   5.268  15.535  0.00  0.00    +0.000 A 
ATOM     25  C   UNL     1       7.055   5.784  16.486  0.00  0.00    +0.000 A 
ATOM     26  C   UNL     1       6.916   5.441  17.834  0.00  0.00    +0.000 A 
ATOM     27  C   UNL     1       7.857   5.995  18.866  0.00  0.00    +0.000 C 
ATOM     28  C   UNL     1       5.879   4.572  18.212  0.00  0.00    +0.000 A 
ENDBRANCH  21  22
ENDBRANCH  19  21
ENDBRANCH  10  15
TORSDOF 3
ENDMDL
MODEL 7
REMARK VINA RESULT:      -8.3      3.939      9.508
REMARK  Name = 
REMARK  5 active torsions:
REMARK  status: ('A' for Active; 'I' for Inactive)
REMARK    1  A    between atoms: C_1  and  C_2
REMARK    2  A    between atoms: C_10  and  C_11
REMARK    3  A    between atoms: C_15  and  S_16
REMARK    4  A    between atoms: S_16  and  C_17
REMARK    5  A    between atoms: C_21  and  C_22
REMARK                            x       y       z     vdW  Elec       q    Type
REMARK                         _______ _______ _______ _____ _____    ______ ____
ROOT
ATOM      1  C   UNL     1       3.894   1.213  18.458  0.00  0.00    +0.000 C 
ATOM      2  C   UNL     1       3.141   2.385  19.030  0.00  0.00    +0.000 C 
ATOM      3  O   UNL     1       2.244   2.181  19.846  0.00  0.00    +0.000 OA
ATOM      4  N   UNL     1       3.546   3.608  18.534  0.00  0.00    +0.000 N 
ATOM      5  C   UNL     1       3.028   4.818  18.950  0.00  0.00    +0.000 A 
ATOM      6  N   UNL     1       3.131   5.918  18.239  0.00  0.00    +0.000 NA
ATOM      7  C   UNL     1       2.451   6.946  18.885  0.00  0.00    +0.000 A 
ATOM      8  C   UNL     1       2.242   8.248  18.398  0.00  0.00    +0.000 A 
ATOM      9  C   UNL     1       1.509   9.170  19.160  0.00  0.00    +0.000 A 
ATOM     10  C   UNL     1       0.966   8.838  20.415  0.00  0.00    +0.000 A 
ATOM     11  C   UNL     1       1.195   7.543  20.912  0.00  0.00    +0.000 A 
ATOM     12  C   UNL     1       1.917   6.621  20.131  0.00  0.00    +0.000 A 
ATOM     13  S   UNL     1       2.287   4.987  20.477  0.00  0.00    +0.000 S 
ATOM     14  H   UNL     1       4.077   3.651  17.680  0.00  0.00    +0.000 HD
ENDROOT
BRANCH  10  15
ATOM     15  C   UNL     1       0.152   9.806  21.190  0.00  0.00    +0.000 A 
ATOM     16  C   UNL     1      -0.099   9.633  22.538  0.00  0.00    +0.000 A 
ATOM     17  C   UNL     1      -0.888  10.579  23.145  0.00  0.00    +0.000 A 
ATOM     18  N   UNL     1      -1.398  11.640  22.500  0.00  0.00    +0.000 NA
ATOM     19  C   UNL     1      -1.081  11.756  21.199  0.00  0.00    +0.000 A 
ATOM     20  N   UNL     1      -0.328  10.875  20.511  0.00  0.00    +0.000 NA
BRANCH  19  21
ATOM     21  S   UNL     1      -1.834  13.094  20.299  0.00  0.00    +0.000 S 
BRANCH  21  22
ATOM     22  C   UNL     1      -2.667  12.260  18.957  0.00  0.00    +0.000 A 
ATOM     23  C   UNL     1      -1.969  11.797  17.838  0.00  0.00    +0.000 A 
ATOM     24  C   UNL     1      -2.630  11.073  16.841  0.00  0.00    +0.000 A 
ATOM     25  C   UNL     1      -3.993  10.798  16.956  0.00  0.00    +0.000 A 
ATOM     26  C   UNL     1      -4.709  11.242  18.071  0.00  0.00    +0.000 A 
ATOM     27  C   UNL     1      -6.176  10.949  18.205  0.00  0.00    +0.000 C 
ATOM     28  C   UNL     1      -4.036  11.966  19.070  0.00  0.00    +0.000 A 
ENDBRANCH  21  22
ENDBRANCH  19  21
ENDBRANCH  10  15
TORSDOF 3
ENDMDL
MODEL 8
REMARK VINA RESULT:      -8.3      2.318      3.891
REMARK  Name = 
REMARK  5 active torsions:
REMARK  status: ('A' for Active; 'I' for Inactive)
REMARK    1  A    between atoms: C_1  and  C_2
REMARK    2  A    between atoms: C_10  and  C_11
REMARK    3  A    between atoms: C_15  and  S_16
REMARK    4  A    between atoms: S_16  and  C_17
REMARK    5  A    between atoms: C_21  and  C_22
REMARK                            x       y       z     vdW  Elec       q    Type
REMARK                         _______ _______ _______ _____ _____    ______ ____
ROOT
ATOM      1  C   UNL     1      -5.816  14.033  23.264  0.00  0.00    +0.000 C 
ATOM      2  C   UNL     1      -4.838  13.203  22.477  0.00  0.00    +0.000 C 
ATOM      3  O   UNL     1      -5.087  12.934  21.302  0.00  0.00    +0.000 OA
ATOM      4  N   UNL     1      -3.734  12.800  23.201  0.00  0.00    +0.000 N 
ATOM      5  C   UNL     1      -2.688  12.072  22.671  0.00  0.00    +0.000 A 
ATOM      6  N   UNL     1      -1.850  11.385  23.414  0.00  0.00    +0.000 NA
ATOM      7  C   UNL     1      -0.958  10.705  22.590  0.00  0.00    +0.000 A 
ATOM      8  C   UNL     1       0.024   9.785  22.997  0.00  0.00    +0.000 A 
ATOM      9  C   UNL     1       0.834   9.158  22.039  0.00  0.00    +0.000 A 
ATOM     10  C   UNL     1       0.701   9.419  20.662  0.00  0.00    +0.000 A 
ATOM     11  C   UNL     1      -0.265  10.356  20.258  0.00  0.00    +0.000 A 
ATOM     12  C   UNL     1      -1.084  10.966  21.226  0.00  0.00    +0.000 A 
ATOM     13  S   UNL     1      -2.355  12.089  20.998  0.00  0.00    +0.000 S 
ATOM     14  H   UNL     1      -3.758  12.827  24.207  0.00  0.00    +0.000 HD
ENDROOT
BRANCH  10  15
ATOM     15  C   UNL     1       1.531   8.715  19.655  0.00  0.00    +0.000 A 
ATOM     16  C   UNL     1       1.747   9.238  18.393  0.00  0.00    +0.000 A 
ATOM     17  C   UNL     1       2.510   8.484  17.536  0.00  0.00    +0.000 A 
ATOM     18  N   UNL     1       3.047   7.301  17.870  0.00  0.00    +0.000 NA
ATOM     19  C   UNL     1       2.820   6.876  19.125  0.00  0.00    +0.000 A 
ATOM     20  N   UNL     1       2.074   7.535  20.035  0.00  0.00    +0.000 NA
BRANCH  19  21
ATOM     21  S   UNL     1       3.431   5.262  19.556  0.00  0.00    +0.000 S 
BRANCH  21  22
ATOM     22  C   UNL     1       4.970   5.158  18.655  0.00  0.00    +0.000 A 
ATOM     23  C   UNL     1       6.185   5.529  19.238  0.00  0.00    +0.000 A 
ATOM     24  C   UNL     1       7.385   5.359  18.542  0.00  0.00    +0.000 A 
ATOM     25  C   UNL     1       7.385   4.807  17.260  0.00  0.00    +0.000 A 
ATOM     26  C   UNL     1       6.183   4.419  16.662  0.00  0.00    +0.000 A 
ATOM     27  C   UNL     1       6.172   3.821  15.283  0.00  0.00    +0.000 C 
ATOM     28  C   UNL     1       4.982   4.591  17.370  0.00  0.00    +0.000 A 
ENDBRANCH  21  22
ENDBRANCH  19  21
ENDBRANCH  10  15
TORSDOF 3
ENDMDL
MODEL 9
REMARK VINA RESULT:      -8.1      1.780      2.240
REMARK  Name = 
REMARK  5 active torsions:
REMARK  status: ('A' for Active; 'I' for Inactive)
REMARK    1  A    between atoms: C_1  and  C_2
REMARK    2  A    between atoms: C_10  and  C_11
REMARK    3  A    between atoms: C_15  and  S_16
REMARK    4  A    between atoms: S_16  and  C_17
REMARK    5  A    between atoms: C_21  and  C_22
REMARK                            x       y       z     vdW  Elec       q    Type
REMARK                         _______ _______ _______ _____ _____    ______ ____
ROOT
ATOM      1  C   UNL     1       0.728  15.601  20.769  0.00  0.00    +0.000 C 
ATOM      2  C   UNL     1       0.994  14.124  20.881  0.00  0.00    +0.000 C 
ATOM      3  O   UNL     1       1.221  13.638  21.989  0.00  0.00    +0.000 OA
ATOM      4  N   UNL     1       0.977  13.457  19.673  0.00  0.00    +0.000 N 
ATOM      5  C   UNL     1       1.149  12.094  19.543  0.00  0.00    +0.000 A 
ATOM      6  N   UNL     1       1.501  11.525  18.412  0.00  0.00    +0.000 NA
ATOM      7  C   UNL     1       1.664  10.159  18.616  0.00  0.00    +0.000 A 
ATOM      8  C   UNL     1       2.132   9.221  17.679  0.00  0.00    +0.000 A 
ATOM      9  C   UNL     1       2.267   7.874  18.046  0.00  0.00    +0.000 A 
ATOM     10  C   UNL     1       1.946   7.415  19.338  0.00  0.00    +0.000 A 
ATOM     11  C   UNL     1       1.457   8.349  20.267  0.00  0.00    +0.000 A 
ATOM     12  C   UNL     1       1.341   9.701  19.893  0.00  0.00    +0.000 A 
ATOM     13  S   UNL     1       0.827  11.032  20.838  0.00  0.00    +0.000 S 
ATOM     14  H   UNL     1       1.064  13.974  18.814  0.00  0.00    +0.000 HD
ENDROOT
BRANCH  10  15
ATOM     15  C   UNL     1       2.139   5.998  19.728  0.00  0.00    +0.000 A 
ATOM     16  C   UNL     1       1.770   5.529  20.975  0.00  0.00    +0.000 A 
ATOM     17  C   UNL     1       2.021   4.204  21.235  0.00  0.00    +0.000 A 
ATOM     18  N   UNL     1       2.583   3.370  20.346  0.00  0.00    +0.000 NA
ATOM     19  C   UNL     1       2.883   3.894  19.145  0.00  0.00    +0.000 A 
ATOM     20  N   UNL     1       2.689   5.182  18.798  0.00  0.00    +0.000 NA
BRANCH  19  21
ATOM     21  S   UNL     1       3.727   2.836  17.989  0.00  0.00    +0.000 S 
BRANCH  21  22
ATOM     22  C   UNL     1       5.076   3.857  17.417  0.00  0.00    +0.000 A 
ATOM     23  C   UNL     1       5.927   4.512  18.310  0.00  0.00    +0.000 A 
ATOM     24  C   UNL     1       7.026   5.236  17.839  0.00  0.00    +0.000 A 
ATOM     25  C   UNL     1       7.291   5.304  16.471  0.00  0.00    +0.000 A 
ATOM     26  C   UNL     1       6.460   4.648  15.559  0.00  0.00    +0.000 A 
ATOM     27  C   UNL     1       6.739   4.713  14.084  0.00  0.00    +0.000 C 
ATOM     28  C   UNL     1       5.359   3.920  16.042  0.00  0.00    +0.000 A 
ENDBRANCH  21  22
ENDBRANCH  19  21
ENDBRANCH  10  15
TORSDOF 3
ENDMDL
