MODEL 1
REMARK VINA RESULT:      -7.8      0.000      0.000
REMARK  Name = 
REMARK  7 active torsions:
REMARK  status: ('A' for Active; 'I' for Inactive)
REMARK    1  A    between atoms: C_1  and  C_2
REMARK    2  A    between atoms: C_2  and  N_3
REMARK    3  A    between atoms: N_3  and  C_4
REMARK    4  A    between atoms: N_3  and  C_6
REMARK    5  A    between atoms: C_4  and  C_5
REMARK    6  A    between atoms: C_6  and  C_7
REMARK    7  A    between atoms: N_21  and  C_22
REMARK                            x       y       z     vdW  Elec       q    Type
REMARK                         _______ _______ _______ _____ _____    ______ ____
ROOT
ATOM      1  C   UNL     1       6.052   4.780  14.902  0.00  0.00    +0.000 A 
ATOM      2  C   UNL     1       5.546   6.012  15.318  0.00  0.00    +0.000 A 
ATOM      3  C   UNL     1       4.699   6.131  16.479  0.00  0.00    +0.000 A 
ATOM      4  C   UNL     1       4.290   5.024  17.250  0.00  0.00    +0.000 A 
ATOM      5  C   UNL     1       3.317   4.935  18.456  0.00  0.00    +0.000 A 
ATOM      6  C   UNL     1       3.052   3.676  18.893  0.00  0.00    +0.000 A 
ATOM      7  C   UNL     1       3.623   2.448  18.297  0.00  0.00    +0.000 A 
ATOM      8  O   UNL     1       3.282   1.332  18.651  0.00  0.00    +0.000 OA
ATOM      9  N   UNL     1       4.565   2.597  17.362  0.00  0.00    +0.000 N 
ATOM     10  C   UNL     1       4.880   3.817  16.798  0.00  0.00    +0.000 A 
ATOM     11  C   UNL     1       5.755   3.700  15.708  0.00  0.00    +0.000 A 
ATOM     12  C   UNL     1       2.160   3.295  20.025  0.00  0.00    +0.000 C 
ATOM     13  C   UNL     1       1.670   4.409  20.900  0.00  0.00    +0.000 C 
ATOM     14  C   UNL     1       1.811   5.803  20.345  0.00  0.00    +0.000 C 
ATOM     15  N   UNL     1       2.691   6.015  19.155  0.00  0.00    +0.000 N 
ATOM     16  C   UNL     1       2.553   7.419  18.763  0.00  0.00    +0.000 C 
ATOM     17  H   UNL     1       4.929   1.738  16.981  0.00  0.00    +0.000 HD
ENDROOT
BRANCH   1  18
ATOM     18  C   UNL     1       6.820   4.503  13.609  0.00  0.00    +0.000 C 
BRANCH  18  19
ATOM     19  N   UNL     1       6.175   3.438  12.793  0.00  0.00    +0.000 NA
BRANCH  19  21
ATOM     20  C   UNL     1       4.185   3.242  11.246  0.00  0.00    +0.000 C 
ATOM     21  C   UNL     1       4.740   3.692  12.596  0.00  0.00    +0.000 C 
ENDBRANCH  19  21
BRANCH  19  22
ATOM     22  C   UNL     1       6.905   3.113  11.557  0.00  0.00    +0.000 C 
ATOM     23  C   UNL     1       7.144   1.633  11.282  0.00  0.00    +0.000 C 
ENDBRANCH  19  22
ENDBRANCH  18  19
ENDBRANCH   1  18
TORSDOF 4
ENDMDL
MODEL 2
REMARK VINA RESULT:      -7.5      1.068      1.765
REMARK  Name = 
REMARK  7 active torsions:
REMARK  status: ('A' for Active; 'I' for Inactive)
REMARK    1  A    between atoms: C_1  and  C_2
REMARK    2  A    between atoms: C_2  and  N_3
REMARK    3  A    between atoms: N_3  and  C_4
REMARK    4  A    between atoms: N_3  and  C_6
REMARK    5  A    between atoms: C_4  and  C_5
REMARK    6  A    between atoms: C_6  and  C_7
REMARK    7  A    between atoms: N_21  and  C_22
REMARK                            x       y       z     vdW  Elec       q    Type
REMARK                         _______ _______ _______ _____ _____    ______ ____
ROOT
ATOM      1  C   UNL     1       6.006   4.439  15.209  0.00  0.00    +0.000 A 
ATOM      2  C   UNL     1       5.562   5.761  15.188  0.00  0.00    +0.000 A 
ATOM      3  C   UNL     1       4.721   6.296  16.230  0.00  0.00    +0.000 A 
ATOM      4  C   UNL     1       4.257   5.525  17.316  0.00  0.00    +0.000 A 
ATOM      5  C   UNL     1       3.281   5.885  18.468  0.00  0.00    +0.000 A 
ATOM      6  C   UNL     1       2.953   4.855  19.290  0.00  0.00    +0.000 A 
ATOM      7  C   UNL     1       3.463   3.473  19.141  0.00  0.00    +0.000 A 
ATOM      8  O   UNL     1       3.067   2.554  19.838  0.00  0.00    +0.000 OA
ATOM      9  N   UNL     1       4.412   3.262  18.226  0.00  0.00    +0.000 N 
ATOM     10  C   UNL     1       4.787   4.210  17.297  0.00  0.00    +0.000 A 
ATOM     11  C   UNL     1       5.655   3.700  16.321  0.00  0.00    +0.000 A 
ATOM     12  C   UNL     1       2.044   4.910  20.470  0.00  0.00    +0.000 C 
ATOM     13  C   UNL     1       1.609   6.272  20.921  0.00  0.00    +0.000 C 
ATOM     14  C   UNL     1       1.819   7.397  19.939  0.00  0.00    +0.000 C 
ATOM     15  N   UNL     1       2.709   7.163  18.761  0.00  0.00    +0.000 N 
ATOM     16  C   UNL     1       2.641   8.364  17.926  0.00  0.00    +0.000 C 
ATOM     17  H   UNL     1       4.732   2.308  18.155  0.00  0.00    +0.000 HD
ENDROOT
BRANCH   1  18
ATOM     18  C   UNL     1       6.759   3.715  14.093  0.00  0.00    +0.000 C 
BRANCH  18  19
ATOM     19  N   UNL     1       6.231   4.061  12.745  0.00  0.00    +0.000 NA
BRANCH  19  21
ATOM     20  C   UNL     1       8.250   5.581  12.679  0.00  0.00    +0.000 C 
ATOM     21  C   UNL     1       7.246   4.723  11.912  0.00  0.00    +0.000 C 
ENDBRANCH  19  21
BRANCH  19  22
ATOM     22  C   UNL     1       5.533   2.951  12.077  0.00  0.00    +0.000 C 
ATOM     23  C   UNL     1       4.223   3.296  11.380  0.00  0.00    +0.000 C 
ENDBRANCH  19  22
ENDBRANCH  18  19
ENDBRANCH   1  18
TORSDOF 4
ENDMDL
MODEL 3
REMARK VINA RESULT:      -7.4      4.907      7.689
REMARK  Name = 
REMARK  7 active torsions:
REMARK  status: ('A' for Active; 'I' for Inactive)
REMARK    1  A    between atoms: C_1  and  C_2
REMARK    2  A    between atoms: C_2  and  N_3
REMARK    3  A    between atoms: N_3  and  C_4
REMARK    4  A    between atoms: N_3  and  C_6
REMARK    5  A    between atoms: C_4  and  C_5
REMARK    6  A    between atoms: C_6  and  C_7
REMARK    7  A    between atoms: N_21  and  C_22
REMARK                            x       y       z     vdW  Elec       q    Type
REMARK                         _______ _______ _______ _____ _____    ______ ____
ROOT
ATOM      1  C   UNL     1       2.280   7.499  18.636  0.00  0.00    +0.000 A 
ATOM      2  C   UNL     1       1.739   8.481  17.805  0.00  0.00    +0.000 A 
ATOM      3  C   UNL     1       1.019   9.613  18.337  0.00  0.00    +0.000 A 
ATOM      4  C   UNL     1       0.777   9.792  19.714  0.00  0.00    +0.000 A 
ATOM      5  C   UNL     1      -0.048  10.872  20.464  0.00  0.00    +0.000 A 
ATOM      6  C   UNL     1      -0.175  10.677  21.802  0.00  0.00    +0.000 A 
ATOM      7  C   UNL     1       0.410   9.534  22.538  0.00  0.00    +0.000 A 
ATOM      8  O   UNL     1       0.189   9.338  23.721  0.00  0.00    +0.000 OA
ATOM      9  N   UNL     1       1.230   8.722  21.865  0.00  0.00    +0.000 N 
ATOM     10  C   UNL     1       1.395   8.784  20.497  0.00  0.00    +0.000 A 
ATOM     11  C   UNL     1       2.149   7.714  19.993  0.00  0.00    +0.000 A 
ATOM     12  C   UNL     1      -0.906  11.548  22.765  0.00  0.00    +0.000 C 
ATOM     13  C   UNL     1      -1.372  12.877  22.250  0.00  0.00    +0.000 C 
ATOM     14  C   UNL     1      -1.390  13.041  20.751  0.00  0.00    +0.000 C 
ATOM     15  N   UNL     1      -0.665  12.038  19.912  0.00  0.00    +0.000 N 
ATOM     16  C   UNL     1      -0.943  12.369  18.512  0.00  0.00    +0.000 C 
ATOM     17  H   UNL     1       1.608   7.956  22.401  0.00  0.00    +0.000 HD
ENDROOT
BRANCH   1  18
ATOM     18  C   UNL     1       2.916   6.182  18.190  0.00  0.00    +0.000 C 
BRANCH  18  19
ATOM     19  N   UNL     1       2.821   5.132  19.240  0.00  0.00    +0.000 NA
BRANCH  19  21
ATOM     20  C   UNL     1       0.935   3.794  20.263  0.00  0.00    +0.000 C 
ATOM     21  C   UNL     1       1.689   4.223  19.005  0.00  0.00    +0.000 C 
ENDBRANCH  19  21
BRANCH  19  22
ATOM     22  C   UNL     1       4.095   4.448  19.513  0.00  0.00    +0.000 C 
ATOM     23  C   UNL     1       5.365   5.229  19.195  0.00  0.00    +0.000 C 
ENDBRANCH  19  22
ENDBRANCH  18  19
ENDBRANCH   1  18
TORSDOF 4
ENDMDL
MODEL 4
REMARK VINA RESULT:      -7.4      4.842      7.794
REMARK  Name = 
REMARK  7 active torsions:
REMARK  status: ('A' for Active; 'I' for Inactive)
REMARK    1  A    between atoms: C_1  and  C_2
REMARK    2  A    between atoms: C_2  and  N_3
REMARK    3  A    between atoms: N_3  and  C_4
REMARK    4  A    between atoms: N_3  and  C_6
REMARK    5  A    between atoms: C_4  and  C_5
REMARK    6  A    between atoms: C_6  and  C_7
REMARK    7  A    between atoms: N_21  and  C_22
REMARK                            x       y       z     vdW  Elec       q    Type
REMARK                         _______ _______ _______ _____ _____    ______ ____
ROOT
ATOM      1  C   UNL     1       2.263   7.546  18.754  0.00  0.00    +0.000 A 
ATOM      2  C   UNL     1       1.710   8.478  17.877  0.00  0.00    +0.000 A 
ATOM      3  C   UNL     1       0.944   9.605  18.350  0.00  0.00    +0.000 A 
ATOM      4  C   UNL     1       0.666   9.827  19.715  0.00  0.00    +0.000 A 
ATOM      5  C   UNL     1      -0.208  10.908  20.406  0.00  0.00    +0.000 A 
ATOM      6  C   UNL     1      -0.358  10.758  21.747  0.00  0.00    +0.000 A 
ATOM      7  C   UNL     1       0.246   9.662  22.537  0.00  0.00    +0.000 A 
ATOM      8  O   UNL     1       0.005   9.504  23.723  0.00  0.00    +0.000 OA
ATOM      9  N   UNL     1       1.105   8.853  21.913  0.00  0.00    +0.000 N 
ATOM     10  C   UNL     1       1.298   8.869  20.547  0.00  0.00    +0.000 A 
ATOM     11  C   UNL     1       2.096   7.806  20.099  0.00  0.00    +0.000 A 
ATOM     12  C   UNL     1      -1.138  11.640  22.661  0.00  0.00    +0.000 C 
ATOM     13  C   UNL     1      -1.633  12.933  22.087  0.00  0.00    +0.000 C 
ATOM     14  C   UNL     1      -1.624  13.041  20.583  0.00  0.00    +0.000 C 
ATOM     15  N   UNL     1      -0.850  12.032  19.797  0.00  0.00    +0.000 N 
ATOM     16  C   UNL     1      -1.107  12.301  18.381  0.00  0.00    +0.000 C 
ATOM     17  H   UNL     1       1.495   8.119  22.485  0.00  0.00    +0.000 HD
ENDROOT
BRANCH   1  18
ATOM     18  C   UNL     1       2.950   6.234  18.372  0.00  0.00    +0.000 C 
BRANCH  18  19
ATOM     19  N   UNL     1       2.196   5.046  18.855  0.00  0.00    +0.000 NA
BRANCH  19  21
ATOM     20  C   UNL     1       2.178   2.747  17.802  0.00  0.00    +0.000 C 
ATOM     21  C   UNL     1       1.726   4.205  17.743  0.00  0.00    +0.000 C 
ENDBRANCH  19  21
BRANCH  19  22
ATOM     22  C   UNL     1       2.879   4.302  19.925  0.00  0.00    +0.000 C 
ATOM     23  C   UNL     1       2.100   4.111  21.221  0.00  0.00    +0.000 C 
ENDBRANCH  19  22
ENDBRANCH  18  19
ENDBRANCH   1  18
TORSDOF 4
ENDMDL
MODEL 5
REMARK VINA RESULT:      -7.3      1.551      2.438
REMARK  Name = 
REMARK  7 active torsions:
REMARK  status: ('A' for Active; 'I' for Inactive)
REMARK    1  A    between atoms: C_1  and  C_2
REMARK    2  A    between atoms: C_2  and  N_3
REMARK    3  A    between atoms: N_3  and  C_4
REMARK    4  A    between atoms: N_3  and  C_6
REMARK    5  A    between atoms: C_4  and  C_5
REMARK    6  A    between atoms: C_6  and  C_7
REMARK    7  A    between atoms: N_21  and  C_22
REMARK                            x       y       z     vdW  Elec       q    Type
REMARK                         _______ _______ _______ _____ _____    ______ ____
ROOT
ATOM      1  C   UNL     1       5.544   4.702  15.956  0.00  0.00    +0.000 A 
ATOM      2  C   UNL     1       5.151   6.011  15.677  0.00  0.00    +0.000 A 
ATOM      3  C   UNL     1       4.309   6.759  16.578  0.00  0.00    +0.000 A 
ATOM      4  C   UNL     1       3.793   6.220  17.775  0.00  0.00    +0.000 A 
ATOM      5  C   UNL     1       2.806   6.820  18.812  0.00  0.00    +0.000 A 
ATOM      6  C   UNL     1       2.422   5.972  19.801  0.00  0.00    +0.000 A 
ATOM      7  C   UNL     1       2.882   4.571  19.925  0.00  0.00    +0.000 A 
ATOM      8  O   UNL     1       2.436   3.811  20.769  0.00  0.00    +0.000 OA
ATOM      9  N   UNL     1       3.841   4.161  19.092  0.00  0.00    +0.000 N 
ATOM     10  C   UNL     1       4.272   4.907  18.014  0.00  0.00    +0.000 A 
ATOM     11  C   UNL     1       5.142   4.195  17.175  0.00  0.00    +0.000 A 
ATOM     12  C   UNL     1       1.490   6.277  20.924  0.00  0.00    +0.000 C 
ATOM     13  C   UNL     1       1.098   7.713  21.102  0.00  0.00    +0.000 C 
ATOM     14  C   UNL     1       1.372   8.627  19.935  0.00  0.00    +0.000 C 
ATOM     15  N   UNL     1       2.277   8.148  18.846  0.00  0.00    +0.000 N 
ATOM     16  C   UNL     1       2.273   9.175  17.802  0.00  0.00    +0.000 C 
ATOM     17  H   UNL     1       4.127   3.201  19.208  0.00  0.00    +0.000 HD
ENDROOT
BRANCH   1  18
ATOM     18  C   UNL     1       6.293   3.758  15.015  0.00  0.00    +0.000 C 
BRANCH  18  19
ATOM     19  N   UNL     1       6.411   4.315  13.640  0.00  0.00    +0.000 NA
BRANCH  19  21
ATOM     20  C   UNL     1       7.901   5.585  12.040  0.00  0.00    +0.000 C 
ATOM     21  C   UNL     1       7.673   5.046  13.451  0.00  0.00    +0.000 C 
ENDBRANCH  19  21
BRANCH  19  22
ATOM     22  C   UNL     1       6.113   3.343  12.577  0.00  0.00    +0.000 C 
ATOM     23  C   UNL     1       4.741   3.453  11.923  0.00  0.00    +0.000 C 
ENDBRANCH  19  22
ENDBRANCH  18  19
ENDBRANCH   1  18
TORSDOF 4
ENDMDL
MODEL 6
REMARK VINA RESULT:      -7.2      4.893      7.693
REMARK  Name = 
REMARK  7 active torsions:
REMARK  status: ('A' for Active; 'I' for Inactive)
REMARK    1  A    between atoms: C_1  and  C_2
REMARK    2  A    between atoms: C_2  and  N_3
REMARK    3  A    between atoms: N_3  and  C_4
REMARK    4  A    between atoms: N_3  and  C_6
REMARK    5  A    between atoms: C_4  and  C_5
REMARK    6  A    between atoms: C_6  and  C_7
REMARK    7  A    between atoms: N_21  and  C_22
REMARK                            x       y       z     vdW  Elec       q    Type
REMARK                         _______ _______ _______ _____ _____    ______ ____
ROOT
ATOM      1  C   UNL     1       2.423   7.887  18.427  0.00  0.00    +0.000 A 
ATOM      2  C   UNL     1       2.227   7.557  19.768  0.00  0.00    +0.000 A 
ATOM      3  C   UNL     1       1.360   8.333  20.622  0.00  0.00    +0.000 A 
ATOM      4  C   UNL     1       0.684   9.491  20.183  0.00  0.00    +0.000 A 
ATOM      5  C   UNL     1      -0.200  10.501  20.961  0.00  0.00    +0.000 A 
ATOM      6  C   UNL     1      -0.603  11.585  20.248  0.00  0.00    +0.000 A 
ATOM      7  C   UNL     1      -0.252  11.829  18.831  0.00  0.00    +0.000 A 
ATOM      8  O   UNL     1      -0.548  12.863  18.255  0.00  0.00    +0.000 OA
ATOM      9  N   UNL     1       0.384  10.854  18.177  0.00  0.00    +0.000 N 
ATOM     10  C   UNL     1       0.893   9.735  18.802  0.00  0.00    +0.000 A 
ATOM     11  C   UNL     1       1.684   8.951  17.950  0.00  0.00    +0.000 A 
ATOM     12  C   UNL     1      -1.454  12.707  20.736  0.00  0.00    +0.000 C 
ATOM     13  C   UNL     1      -2.101  12.527  22.077  0.00  0.00    +0.000 C 
ATOM     14  C   UNL     1      -1.542  11.428  22.943  0.00  0.00    +0.000 C 
ATOM     15  N   UNL     1      -0.641  10.411  22.319  0.00  0.00    +0.000 N 
ATOM     16  C   UNL     1      -0.160   9.544  23.397  0.00  0.00    +0.000 C 
ATOM     17  H   UNL     1       0.606  11.060  17.215  0.00  0.00    +0.000 HD
ENDROOT
BRANCH   1  18
ATOM     18  C   UNL     1       3.432   7.247  17.473  0.00  0.00    +0.000 C 
BRANCH  18  19
ATOM     19  N   UNL     1       4.021   6.002  18.034  0.00  0.00    +0.000 NA
BRANCH  19  21
ATOM     20  C   UNL     1       2.334   4.145  18.349  0.00  0.00    +0.000 C 
ATOM     21  C   UNL     1       3.398   4.796  17.467  0.00  0.00    +0.000 C 
ENDBRANCH  19  21
BRANCH  19  22
ATOM     22  C   UNL     1       5.493   5.982  18.020  0.00  0.00    +0.000 C 
ATOM     23  C   UNL     1       6.171   5.288  19.195  0.00  0.00    +0.000 C 
ENDBRANCH  19  22
ENDBRANCH  18  19
ENDBRANCH   1  18
TORSDOF 4
ENDMDL
MODEL 7
REMARK VINA RESULT:      -7.2      0.930      1.599
REMARK  Name = 
REMARK  7 active torsions:
REMARK  status: ('A' for Active; 'I' for Inactive)
REMARK    1  A    between atoms: C_1  and  C_2
REMARK    2  A    between atoms: C_2  and  N_3
REMARK    3  A    between atoms: N_3  and  C_4
REMARK    4  A    between atoms: N_3  and  C_6
REMARK    5  A    between atoms: C_4  and  C_5
REMARK    6  A    between atoms: C_6  and  C_7
REMARK    7  A    between atoms: N_21  and  C_22
REMARK                            x       y       z     vdW  Elec       q    Type
REMARK                         _______ _______ _______ _____ _____    ______ ____
ROOT
ATOM      1  C   UNL     1       6.386   4.907  15.556  0.00  0.00    +0.000 A 
ATOM      2  C   UNL     1       5.852   6.123  15.981  0.00  0.00    +0.000 A 
ATOM      3  C   UNL     1       4.835   6.191  17.001  0.00  0.00    +0.000 A 
ATOM      4  C   UNL     1       4.281   5.046  17.611  0.00  0.00    +0.000 A 
ATOM      5  C   UNL     1       3.127   4.907  18.640  0.00  0.00    +0.000 A 
ATOM      6  C   UNL     1       2.764   3.632  18.932  0.00  0.00    +0.000 A 
ATOM      7  C   UNL     1       3.391   2.429  18.339  0.00  0.00    +0.000 A 
ATOM      8  O   UNL     1       2.970   1.304  18.549  0.00  0.00    +0.000 OA
ATOM      9  N   UNL     1       4.473   2.610  17.578  0.00  0.00    +0.000 N 
ATOM     10  C   UNL     1       4.904   3.854  17.165  0.00  0.00    +0.000 A 
ATOM     11  C   UNL     1       5.937   3.783  16.220  0.00  0.00    +0.000 A 
ATOM     12  C   UNL     1       1.695   3.203  19.878  0.00  0.00    +0.000 C 
ATOM     13  C   UNL     1       1.101   4.269  20.749  0.00  0.00    +0.000 C 
ATOM     14  C   UNL     1       1.364   5.693  20.331  0.00  0.00    +0.000 C 
ATOM     15  N   UNL     1       2.426   5.957  19.313  0.00  0.00    +0.000 N 
ATOM     16  C   UNL     1       2.388   7.390  19.014  0.00  0.00    +0.000 C 
ATOM     17  H   UNL     1       4.870   1.767  17.193  0.00  0.00    +0.000 HD
ENDROOT
BRANCH   1  18
ATOM     18  C   UNL     1       7.342   4.695  14.381  0.00  0.00    +0.000 C 
BRANCH  18  19
ATOM     19  N   UNL     1       6.625   4.652  13.077  0.00  0.00    +0.000 NA
BRANCH  19  21
ATOM     20  C   UNL     1       8.616   6.077  12.444  0.00  0.00    +0.000 C 
ATOM     21  C   UNL     1       7.432   5.224  11.989  0.00  0.00    +0.000 C 
ENDBRANCH  19  21
BRANCH  19  22
ATOM     22  C   UNL     1       6.037   3.340  12.765  0.00  0.00    +0.000 C 
ATOM     23  C   UNL     1       4.783   3.349  11.899  0.00  0.00    +0.000 C 
ENDBRANCH  19  22
ENDBRANCH  18  19
ENDBRANCH   1  18
TORSDOF 4
ENDMDL
MODEL 8
REMARK VINA RESULT:      -7.1      4.612      7.326
REMARK  Name = 
REMARK  7 active torsions:
REMARK  status: ('A' for Active; 'I' for Inactive)
REMARK    1  A    between atoms: C_1  and  C_2
REMARK    2  A    between atoms: C_2  and  N_3
REMARK    3  A    between atoms: N_3  and  C_4
REMARK    4  A    between atoms: N_3  and  C_6
REMARK    5  A    between atoms: C_4  and  C_5
REMARK    6  A    between atoms: C_6  and  C_7
REMARK    7  A    between atoms: N_21  and  C_22
REMARK                            x       y       z     vdW  Elec       q    Type
REMARK                         _______ _______ _______ _____ _____    ______ ____
ROOT
ATOM      1  C   UNL     1       2.300   7.494  18.624  0.00  0.00    +0.000 A 
ATOM      2  C   UNL     1       1.762   8.476  17.793  0.00  0.00    +0.000 A 
ATOM      3  C   UNL     1       1.039   9.607  18.322  0.00  0.00    +0.000 A 
ATOM      4  C   UNL     1       0.790   9.784  19.699  0.00  0.00    +0.000 A 
ATOM      5  C   UNL     1      -0.038  10.863  20.446  0.00  0.00    +0.000 A 
ATOM      6  C   UNL     1      -0.171  10.665  21.784  0.00  0.00    +0.000 A 
ATOM      7  C   UNL     1       0.412   9.522  22.521  0.00  0.00    +0.000 A 
ATOM      8  O   UNL     1       0.186   9.325  23.703  0.00  0.00    +0.000 OA
ATOM      9  N   UNL     1       1.236   8.712  21.851  0.00  0.00    +0.000 N 
ATOM     10  C   UNL     1       1.406   8.776  20.483  0.00  0.00    +0.000 A 
ATOM     11  C   UNL     1       2.164   7.707  19.981  0.00  0.00    +0.000 A 
ATOM     12  C   UNL     1      -0.907  11.535  22.745  0.00  0.00    +0.000 C 
ATOM     13  C   UNL     1      -1.372  12.864  22.229  0.00  0.00    +0.000 C 
ATOM     14  C   UNL     1      -1.385  13.029  20.731  0.00  0.00    +0.000 C 
ATOM     15  N   UNL     1      -0.655  12.029  19.893  0.00  0.00    +0.000 N 
ATOM     16  C   UNL     1      -0.927  12.360  18.493  0.00  0.00    +0.000 C 
ATOM     17  H   UNL     1       1.612   7.946  22.387  0.00  0.00    +0.000 HD
ENDROOT
BRANCH   1  18
ATOM     18  C   UNL     1       2.939   6.178  18.180  0.00  0.00    +0.000 C 
BRANCH  18  19
ATOM     19  N   UNL     1       4.421   6.280  18.082  0.00  0.00    +0.000 NA
BRANCH  19  21
ATOM     20  C   UNL     1       6.455   5.390  19.291  0.00  0.00    +0.000 C 
ATOM     21  C   UNL     1       5.091   5.107  18.664  0.00  0.00    +0.000 C 
ENDBRANCH  19  21
BRANCH  19  22
ATOM     22  C   UNL     1       4.904   6.646  16.741  0.00  0.00    +0.000 C 
ATOM     23  C   UNL     1       5.233   5.492  15.802  0.00  0.00    +0.000 C 
ENDBRANCH  19  22
ENDBRANCH  18  19
ENDBRANCH   1  18
TORSDOF 4
ENDMDL
MODEL 9
REMARK VINA RESULT:      -7.1      3.165      7.759
REMARK  Name = 
REMARK  7 active torsions:
REMARK  status: ('A' for Active; 'I' for Inactive)
REMARK    1  A    between atoms: C_1  and  C_2
REMARK    2  A    between atoms: C_2  and  N_3
REMARK    3  A    between atoms: N_3  and  C_4
REMARK    4  A    between atoms: N_3  and  C_6
REMARK    5  A    between atoms: C_4  and  C_5
REMARK    6  A    between atoms: C_6  and  C_7
REMARK    7  A    between atoms: N_21  and  C_22
REMARK                            x       y       z     vdW  Elec       q    Type
REMARK                         _______ _______ _______ _____ _____    ______ ____
ROOT
ATOM      1  C   UNL     1       1.528   8.845  19.724  0.00  0.00    +0.000 A 
ATOM      2  C   UNL     1       2.174   8.620  18.508  0.00  0.00    +0.000 A 
ATOM      3  C   UNL     1       2.665   7.314  18.140  0.00  0.00    +0.000 A 
ATOM      4  C   UNL     1       2.566   6.189  18.984  0.00  0.00    +0.000 A 
ATOM      5  C   UNL     1       3.111   4.746  18.814  0.00  0.00    +0.000 A 
ATOM      6  C   UNL     1       2.937   3.932  19.888  0.00  0.00    +0.000 A 
ATOM      7  C   UNL     1       2.282   4.344  21.149  0.00  0.00    +0.000 A 
ATOM      8  O   UNL     1       2.235   3.616  22.127  0.00  0.00    +0.000 OA
ATOM      9  N   UNL     1       1.703   5.547  21.179  0.00  0.00    +0.000 N 
ATOM     10  C   UNL     1       1.858   6.482  20.177  0.00  0.00    +0.000 A 
ATOM     11  C   UNL     1       1.323   7.733  20.516  0.00  0.00    +0.000 A 
ATOM     12  C   UNL     1       3.357   2.507  20.004  0.00  0.00    +0.000 C 
ATOM     13  C   UNL     1       3.831   1.841  18.747  0.00  0.00    +0.000 C 
ATOM     14  C   UNL     1       4.187   2.755  17.602  0.00  0.00    +0.000 C 
ATOM     15  N   UNL     1       3.753   4.185  17.666  0.00  0.00    +0.000 N 
ATOM     16  C   UNL     1       4.324   4.859  16.498  0.00  0.00    +0.000 C 
ATOM     17  H   UNL     1       1.269   5.790  22.056  0.00  0.00    +0.000 HD
ENDROOT
BRANCH   1  18
ATOM     18  C   UNL     1       1.112  10.201  20.294  0.00  0.00    +0.000 C 
BRANCH  18  19
ATOM     19  N   UNL     1      -0.365  10.328  20.415  0.00  0.00    +0.000 NA
BRANCH  19  21
ATOM     20  C   UNL     1      -0.392   9.944  22.914  0.00  0.00    +0.000 C 
ATOM     21  C   UNL     1      -0.765  10.840  21.735  0.00  0.00    +0.000 C 
ENDBRANCH  19  21
BRANCH  19  22
ATOM     22  C   UNL     1      -0.997  11.024  19.282  0.00  0.00    +0.000 C 
ATOM     23  C   UNL     1      -1.629  10.142  18.213  0.00  0.00    +0.000 C 
ENDBRANCH  19  22
ENDBRANCH  18  19
ENDBRANCH   1  18
TORSDOF 4
ENDMDL
