MODEL 1
REMARK VINA RESULT:      -6.9      0.000      0.000
REMARK  Name = 
REMARK  2 active torsions:
REMARK  status: ('A' for Active; 'I' for Inactive)
REMARK    1  A    between atoms: C_1  and  C_2
REMARK    2  A    between atoms: C_11  and  C_13
REMARK                            x       y       z     vdW  Elec       q    Type
REMARK                         _______ _______ _______ _____ _____    ______ ____
ROOT
ATOM      1  C   UNL     1       2.876   6.641  19.530  0.00  0.00    +0.000 C 
ATOM      2  C   UNL     1       3.574   5.283  19.606  0.00  0.00    +0.000 C 
ATOM      3  C   UNL     1       2.599   4.170  19.965  0.00  0.00    +0.000 A 
ATOM      4  C   UNL     1       1.942   3.985  21.225  0.00  0.00    +0.000 A 
ATOM      5  C   UNL     1       1.111   2.884  21.228  0.00  0.00    +0.000 A 
ATOM      6  S   UNL     1       1.128   2.059  19.730  0.00  0.00    +0.000 S 
ATOM      7  C   UNL     1       2.233   3.170  19.076  0.00  0.00    +0.000 A 
ATOM      8  C   UNL     1       2.765   3.052  17.681  0.00  0.00    +0.000 C 
ATOM      9  C   UNL     1       3.341   4.412  17.267  0.00  0.00    +0.000 C 
ATOM     10  N   UNL     1       4.226   4.941  18.318  0.00  0.00    +0.000 N 
ATOM     11  C   UNL     1       5.618   4.968  18.255  0.00  0.00    +0.000 C 
ATOM     12  O   UNL     1       6.300   5.536  19.106  0.00  0.00    +0.000 OA
ENDROOT
BRANCH  11  13
ATOM     13  C   UNL     1       6.298   4.201  17.159  0.00  0.00    +0.000 C 
ATOM     14  C   UNL     1       7.577   4.835  16.549  0.00  0.00    +0.000 C 
ATOM     15  C   UNL     1       6.364   4.631  15.762  0.00  0.00    +0.000 C 
ATOM     16  C   UNL     1       5.621   5.392  14.766  0.00  0.00    +0.000 C 
ATOM     17  C   UNL     1       6.164   3.995  14.458  0.00  0.00    +0.000 C 
ENDBRANCH  11  13
TORSDOF 1
ENDMDL
MODEL 2
REMARK VINA RESULT:      -6.7      2.554      5.700
REMARK  Name = 
REMARK  2 active torsions:
REMARK  status: ('A' for Active; 'I' for Inactive)
REMARK    1  A    between atoms: C_1  and  C_2
REMARK    2  A    between atoms: C_11  and  C_13
REMARK                            x       y       z     vdW  Elec       q    Type
REMARK                         _______ _______ _______ _____ _____    ______ ____
ROOT
ATOM      1  C   UNL     1       3.237   7.317  17.865  0.00  0.00    +0.000 C 
ATOM      2  C   UNL     1       3.528   5.877  17.443  0.00  0.00    +0.000 C 
ATOM      3  C   UNL     1       5.010   5.660  17.168  0.00  0.00    +0.000 A 
ATOM      4  C   UNL     1       5.765   6.208  16.081  0.00  0.00    +0.000 A 
ATOM      5  C   UNL     1       7.091   5.829  16.119  0.00  0.00    +0.000 A 
ATOM      6  S   UNL     1       7.431   4.803  17.444  0.00  0.00    +0.000 S 
ATOM      7  C   UNL     1       5.819   4.870  17.972  0.00  0.00    +0.000 A 
ATOM      8  C   UNL     1       5.333   4.124  19.176  0.00  0.00    +0.000 C 
ATOM      9  C   UNL     1       4.008   4.748  19.629  0.00  0.00    +0.000 C 
ATOM     10  N   UNL     1       3.096   4.914  18.486  0.00  0.00    +0.000 N 
ATOM     11  C   UNL     1       1.980   4.119  18.228  0.00  0.00    +0.000 C 
ATOM     12  O   UNL     1       1.184   4.382  17.329  0.00  0.00    +0.000 OA
ENDROOT
BRANCH  11  13
ATOM     13  C   UNL     1       1.805   2.857  19.021  0.00  0.00    +0.000 C 
ATOM     14  C   UNL     1       0.373   2.541  19.530  0.00  0.00    +0.000 C 
ATOM     15  C   UNL     1       1.477   2.810  20.446  0.00  0.00    +0.000 C 
ATOM     16  C   UNL     1       1.654   3.560  21.683  0.00  0.00    +0.000 C 
ATOM     17  C   UNL     1       1.960   2.062  21.610  0.00  0.00    +0.000 C 
ENDBRANCH  11  13
TORSDOF 1
ENDMDL
MODEL 3
REMARK VINA RESULT:      -6.5      2.187      5.572
REMARK  Name = 
REMARK  2 active torsions:
REMARK  status: ('A' for Active; 'I' for Inactive)
REMARK    1  A    between atoms: C_1  and  C_2
REMARK    2  A    between atoms: C_11  and  C_13
REMARK                            x       y       z     vdW  Elec       q    Type
REMARK                         _______ _______ _______ _____ _____    ______ ____
ROOT
ATOM      1  C   UNL     1       6.863   5.550  19.266  0.00  0.00    +0.000 C 
ATOM      2  C   UNL     1       5.652   5.672  18.341  0.00  0.00    +0.000 C 
ATOM      3  C   UNL     1       5.963   5.170  16.937  0.00  0.00    +0.000 A 
ATOM      4  C   UNL     1       6.843   5.785  15.988  0.00  0.00    +0.000 A 
ATOM      5  C   UNL     1       6.917   5.077  14.806  0.00  0.00    +0.000 A 
ATOM      6  S   UNL     1       5.923   3.686  14.824  0.00  0.00    +0.000 S 
ATOM      7  C   UNL     1       5.400   4.020  16.404  0.00  0.00    +0.000 A 
ATOM      8  C   UNL     1       4.411   3.157  17.126  0.00  0.00    +0.000 C 
ATOM      9  C   UNL     1       4.515   3.456  18.626  0.00  0.00    +0.000 C 
ATOM     10  N   UNL     1       4.494   4.908  18.868  0.00  0.00    +0.000 N 
ATOM     11  C   UNL     1       3.410   5.621  19.378  0.00  0.00    +0.000 C 
ATOM     12  O   UNL     1       3.493   6.811  19.677  0.00  0.00    +0.000 OA
ENDROOT
BRANCH  11  13
ATOM     13  C   UNL     1       2.083   4.928  19.476  0.00  0.00    +0.000 C 
ATOM     14  C   UNL     1       1.123   5.405  20.598  0.00  0.00    +0.000 C 
ATOM     15  C   UNL     1       1.680   4.056  20.579  0.00  0.00    +0.000 C 
ATOM     16  C   UNL     1       2.232   3.135  21.565  0.00  0.00    +0.000 C 
ATOM     17  C   UNL     1       1.030   2.749  20.700  0.00  0.00    +0.000 C 
ENDBRANCH  11  13
TORSDOF 1
ENDMDL
MODEL 4
REMARK VINA RESULT:      -6.5      1.079      1.351
REMARK  Name = 
REMARK  2 active torsions:
REMARK  status: ('A' for Active; 'I' for Inactive)
REMARK    1  A    between atoms: C_1  and  C_2
REMARK    2  A    between atoms: C_11  and  C_13
REMARK                            x       y       z     vdW  Elec       q    Type
REMARK                         _______ _______ _______ _____ _____    ______ ____
ROOT
ATOM      1  C   UNL     1       2.313   6.995  19.977  0.00  0.00    +0.000 C 
ATOM      2  C   UNL     1       3.095   5.733  19.612  0.00  0.00    +0.000 C 
ATOM      3  C   UNL     1       2.431   4.480  20.167  0.00  0.00    +0.000 A 
ATOM      4  C   UNL     1       2.332   4.108  21.547  0.00  0.00    +0.000 A 
ATOM      5  C   UNL     1       1.661   2.915  21.723  0.00  0.00    +0.000 A 
ATOM      6  S   UNL     1       1.163   2.231  20.237  0.00  0.00    +0.000 S 
ATOM      7  C   UNL     1       1.831   3.522  19.362  0.00  0.00    +0.000 A 
ATOM      8  C   UNL     1       1.788   3.592  17.866  0.00  0.00    +0.000 C 
ATOM      9  C   UNL     1       2.045   5.043  17.443  0.00  0.00    +0.000 C 
ATOM     10  N   UNL     1       3.221   5.586  18.140  0.00  0.00    +0.000 N 
ATOM     11  C   UNL     1       4.473   5.793  17.562  0.00  0.00    +0.000 C 
ATOM     12  O   UNL     1       5.382   6.365  18.158  0.00  0.00    +0.000 OA
ENDROOT
BRANCH  11  13
ATOM     13  C   UNL     1       4.734   5.213  16.202  0.00  0.00    +0.000 C 
ATOM     14  C   UNL     1       5.048   3.695  16.136  0.00  0.00    +0.000 C 
ATOM     15  C   UNL     1       6.029   4.704  15.751  0.00  0.00    +0.000 C 
ATOM     16  C   UNL     1       7.460   4.901  15.939  0.00  0.00    +0.000 C 
ATOM     17  C   UNL     1       6.844   4.836  14.540  0.00  0.00    +0.000 C 
ENDBRANCH  11  13
TORSDOF 1
ENDMDL
MODEL 5
REMARK VINA RESULT:      -6.3      1.706      1.962
REMARK  Name = 
REMARK  2 active torsions:
REMARK  status: ('A' for Active; 'I' for Inactive)
REMARK    1  A    between atoms: C_1  and  C_2
REMARK    2  A    between atoms: C_11  and  C_13
REMARK                            x       y       z     vdW  Elec       q    Type
REMARK                         _______ _______ _______ _____ _____    ______ ____
ROOT
ATOM      1  C   UNL     1       1.095   4.348  17.435  0.00  0.00    +0.000 C 
ATOM      2  C   UNL     1       2.143   4.769  18.466  0.00  0.00    +0.000 C 
ATOM      3  C   UNL     1       2.101   3.883  19.703  0.00  0.00    +0.000 A 
ATOM      4  C   UNL     1       1.054   3.830  20.680  0.00  0.00    +0.000 A 
ATOM      5  C   UNL     1       1.313   2.915  21.679  0.00  0.00    +0.000 A 
ATOM      6  S   UNL     1       2.816   2.129  21.461  0.00  0.00    +0.000 S 
ATOM      7  C   UNL     1       3.118   2.999  20.035  0.00  0.00    +0.000 A 
ATOM      8  C   UNL     1       4.375   2.830  19.238  0.00  0.00    +0.000 C 
ATOM      9  C   UNL     1       4.132   3.383  17.829  0.00  0.00    +0.000 C 
ATOM     10  N   UNL     1       3.511   4.716  17.894  0.00  0.00    +0.000 N 
ATOM     11  C   UNL     1       4.166   5.919  17.638  0.00  0.00    +0.000 C 
ATOM     12  O   UNL     1       3.567   6.991  17.586  0.00  0.00    +0.000 OA
ENDROOT
BRANCH  11  13
ATOM     13  C   UNL     1       5.662   5.904  17.515  0.00  0.00    +0.000 C 
ATOM     14  C   UNL     1       6.309   7.051  16.692  0.00  0.00    +0.000 C 
ATOM     15  C   UNL     1       6.390   5.656  16.270  0.00  0.00    +0.000 C 
ATOM     16  C   UNL     1       6.281   4.934  15.010  0.00  0.00    +0.000 C 
ATOM     17  C   UNL     1       7.541   4.841  15.873  0.00  0.00    +0.000 C 
ENDBRANCH  11  13
TORSDOF 1
ENDMDL
MODEL 6
REMARK VINA RESULT:      -6.2      3.069      5.540
REMARK  Name = 
REMARK  2 active torsions:
REMARK  status: ('A' for Active; 'I' for Inactive)
REMARK    1  A    between atoms: C_1  and  C_2
REMARK    2  A    between atoms: C_11  and  C_13
REMARK                            x       y       z     vdW  Elec       q    Type
REMARK                         _______ _______ _______ _____ _____    ______ ____
ROOT
ATOM      1  C   UNL     1       4.718   5.910  18.091  0.00  0.00    +0.000 C 
ATOM      2  C   UNL     1       3.200   6.041  17.971  0.00  0.00    +0.000 C 
ATOM      3  C   UNL     1       2.493   4.738  18.319  0.00  0.00    +0.000 A 
ATOM      4  C   UNL     1       2.523   3.523  17.560  0.00  0.00    +0.000 A 
ATOM      5  C   UNL     1       1.785   2.517  18.149  0.00  0.00    +0.000 A 
ATOM      6  S   UNL     1       1.044   3.028  19.603  0.00  0.00    +0.000 S 
ATOM      7  C   UNL     1       1.709   4.582  19.453  0.00  0.00    +0.000 A 
ATOM      8  C   UNL     1       1.444   5.673  20.445  0.00  0.00    +0.000 C 
ATOM      9  C   UNL     1       2.523   6.750  20.278  0.00  0.00    +0.000 C 
ATOM     10  N   UNL     1       2.681   7.110  18.860  0.00  0.00    +0.000 N 
ATOM     11  C   UNL     1       2.217   8.287  18.274  0.00  0.00    +0.000 C 
ATOM     12  O   UNL     1       2.487   8.591  17.114  0.00  0.00    +0.000 OA
ENDROOT
BRANCH  11  13
ATOM     13  C   UNL     1       1.286   9.158  19.066  0.00  0.00    +0.000 C 
ATOM     14  C   UNL     1       0.098   9.795  18.297  0.00  0.00    +0.000 C 
ATOM     15  C   UNL     1       1.155  10.605  18.895  0.00  0.00    +0.000 C 
ATOM     16  C   UNL     1       1.921  11.781  18.506  0.00  0.00    +0.000 C 
ATOM     17  C   UNL     1       1.085  11.765  19.787  0.00  0.00    +0.000 C 
ENDBRANCH  11  13
TORSDOF 1
ENDMDL
MODEL 7
REMARK VINA RESULT:      -6.2      2.642      5.598
REMARK  Name = 
REMARK  2 active torsions:
REMARK  status: ('A' for Active; 'I' for Inactive)
REMARK    1  A    between atoms: C_1  and  C_2
REMARK    2  A    between atoms: C_11  and  C_13
REMARK                            x       y       z     vdW  Elec       q    Type
REMARK                         _______ _______ _______ _____ _____    ______ ____
ROOT
ATOM      1  C   UNL     1       4.865   5.575  19.308  0.00  0.00    +0.000 C 
ATOM      2  C   UNL     1       3.474   5.670  18.682  0.00  0.00    +0.000 C 
ATOM      3  C   UNL     1       2.848   4.296  18.490  0.00  0.00    +0.000 A 
ATOM      4  C   UNL     1       3.274   3.286  17.567  0.00  0.00    +0.000 A 
ATOM      5  C   UNL     1       2.503   2.145  17.644  0.00  0.00    +0.000 A 
ATOM      6  S   UNL     1       1.257   2.285  18.807  0.00  0.00    +0.000 S 
ATOM      7  C   UNL     1       1.748   3.858  19.214  0.00  0.00    +0.000 A 
ATOM      8  C   UNL     1       1.037   4.685  20.241  0.00  0.00    +0.000 C 
ATOM      9  C   UNL     1       1.975   5.813  20.686  0.00  0.00    +0.000 C 
ATOM     10  N   UNL     1       2.563   6.490  19.519  0.00  0.00    +0.000 N 
ATOM     11  C   UNL     1       2.192   7.750  19.051  0.00  0.00    +0.000 C 
ATOM     12  O   UNL     1       2.803   8.318  18.149  0.00  0.00    +0.000 OA
ENDROOT
BRANCH  11  13
ATOM     13  C   UNL     1       0.953   8.383  19.613  0.00  0.00    +0.000 C 
ATOM     14  C   UNL     1       0.943   9.931  19.720  0.00  0.00    +0.000 C 
ATOM     15  C   UNL     1       0.884   9.074  20.901  0.00  0.00    +0.000 C 
ATOM     16  C   UNL     1       1.485   9.076  22.228  0.00  0.00    +0.000 C 
ATOM     17  C   UNL     1      -0.034   9.078  22.042  0.00  0.00    +0.000 C 
ENDBRANCH  11  13
TORSDOF 1
ENDMDL
MODEL 8
REMARK VINA RESULT:      -6.1      2.464      5.646
REMARK  Name = 
REMARK  2 active torsions:
REMARK  status: ('A' for Active; 'I' for Inactive)
REMARK    1  A    between atoms: C_1  and  C_2
REMARK    2  A    between atoms: C_11  and  C_13
REMARK                            x       y       z     vdW  Elec       q    Type
REMARK                         _______ _______ _______ _____ _____    ______ ____
ROOT
ATOM      1  C   UNL     1       3.996   7.724  17.287  0.00  0.00    +0.000 C 
ATOM      2  C   UNL     1       3.963   6.196  17.299  0.00  0.00    +0.000 C 
ATOM      3  C   UNL     1       5.098   5.602  16.476  0.00  0.00    +0.000 A 
ATOM      4  C   UNL     1       5.239   5.661  15.051  0.00  0.00    +0.000 A 
ATOM      5  C   UNL     1       6.386   5.034  14.610  0.00  0.00    +0.000 A 
ATOM      6  S   UNL     1       7.287   4.359  15.897  0.00  0.00    +0.000 S 
ATOM      7  C   UNL     1       6.158   4.907  17.040  0.00  0.00    +0.000 A 
ATOM      8  C   UNL     1       6.298   4.638  18.507  0.00  0.00    +0.000 C 
ATOM      9  C   UNL     1       5.409   5.629  19.267  0.00  0.00    +0.000 C 
ATOM     10  N   UNL     1       4.059   5.667  18.683  0.00  0.00    +0.000 N 
ATOM     11  C   UNL     1       2.923   5.088  19.247  0.00  0.00    +0.000 C 
ATOM     12  O   UNL     1       1.800   5.259  18.779  0.00  0.00    +0.000 OA
ENDROOT
BRANCH  11  13
ATOM     13  C   UNL     1       3.102   4.156  20.410  0.00  0.00    +0.000 C 
ATOM     14  C   UNL     1       3.445   2.680  20.079  0.00  0.00    +0.000 C 
ATOM     15  C   UNL     1       2.198   3.053  20.738  0.00  0.00    +0.000 C 
ATOM     16  C   UNL     1       0.799   2.657  20.637  0.00  0.00    +0.000 C 
ATOM     17  C   UNL     1       1.567   2.541  21.956  0.00  0.00    +0.000 C 
ENDBRANCH  11  13
TORSDOF 1
ENDMDL
MODEL 9
REMARK VINA RESULT:      -6.1      1.827      2.998
REMARK  Name = 
REMARK  2 active torsions:
REMARK  status: ('A' for Active; 'I' for Inactive)
REMARK    1  A    between atoms: C_1  and  C_2
REMARK    2  A    between atoms: C_11  and  C_13
REMARK                            x       y       z     vdW  Elec       q    Type
REMARK                         _______ _______ _______ _____ _____    ______ ____
ROOT
ATOM      1  C   UNL     1       4.088   1.323  18.201  0.00  0.00    +0.000 C 
ATOM      2  C   UNL     1       3.542   2.687  17.781  0.00  0.00    +0.000 C 
ATOM      3  C   UNL     1       2.401   3.139  18.683  0.00  0.00    +0.000 A 
ATOM      4  C   UNL     1       1.094   2.558  18.760  0.00  0.00    +0.000 A 
ATOM      5  C   UNL     1       0.290   3.193  19.685  0.00  0.00    +0.000 A 
ATOM      6  S   UNL     1       1.093   4.495  20.451  0.00  0.00    +0.000 S 
ATOM      7  C   UNL     1       2.509   4.209  19.559  0.00  0.00    +0.000 A 
ATOM      8  C   UNL     1       3.737   5.056  19.703  0.00  0.00    +0.000 C 
ATOM      9  C   UNL     1       4.929   4.276  19.136  0.00  0.00    +0.000 C 
ATOM     10  N   UNL     1       4.604   3.723  17.811  0.00  0.00    +0.000 N 
ATOM     11  C   UNL     1       5.076   4.219  16.596  0.00  0.00    +0.000 C 
ATOM     12  O   UNL     1       4.873   3.641  15.531  0.00  0.00    +0.000 OA
ENDROOT
BRANCH  11  13
ATOM     13  C   UNL     1       5.776   5.547  16.592  0.00  0.00    +0.000 C 
ATOM     14  C   UNL     1       7.106   5.635  15.798  0.00  0.00    +0.000 C 
ATOM     15  C   UNL     1       7.057   5.813  17.246  0.00  0.00    +0.000 C 
ATOM     16  C   UNL     1       7.867   5.392  18.382  0.00  0.00    +0.000 C 
ATOM     17  C   UNL     1       7.599   6.872  18.101  0.00  0.00    +0.000 C 
ENDBRANCH  11  13
TORSDOF 1
ENDMDL
