MODEL 1
REMARK VINA RESULT:      -7.7      0.000      0.000
REMARK  Name = 
REMARK  9 active torsions:
REMARK  status: ('A' for Active; 'I' for Inactive)
REMARK    1  A    between atoms: C_1  and  O_2
REMARK    2  A    between atoms: O_2  and  C_3
REMARK    3  A    between atoms: N_5  and  C_6
REMARK    4  A    between atoms: C_6  and  C_7
REMARK    5  A    between atoms: N_9  and  C_10
REMARK    6  A    between atoms: C_10  and  C_11
REMARK    7  A    between atoms: C_10  and  C_12
REMARK    8  A    between atoms: C_13  and  C_14
REMARK    9  A    between atoms: C_14  and  N_15
REMARK                            x       y       z     vdW  Elec       q    Type
REMARK                         _______ _______ _______ _____ _____    ______ ____
ROOT
ATOM      1  C   UNL     1       7.647   6.654  18.306  0.00  0.00    +0.000 A 
ATOM      2  C   UNL     1       7.068   6.554  17.098  0.00  0.00    +0.000 A 
ATOM      3  N   UNL     1       6.064   5.656  16.735  0.00  0.00    +0.000 N 
ATOM      4  C   UNL     1       5.709   4.644  17.652  0.00  0.00    +0.000 A 
ATOM      5  C   UNL     1       6.248   4.607  18.889  0.00  0.00    +0.000 A 
ATOM      6  C   UNL     1       7.230   5.633  19.315  0.00  0.00    +0.000 A 
ATOM      7  O   UNL     1       7.649   5.627  20.470  0.00  0.00    +0.000 OA
ENDROOT
BRANCH   1   9
ATOM      8  C   UNL     1       8.317   8.919  18.142  0.00  0.00    +0.000 C 
ATOM      9  O   UNL     1       8.541   7.628  18.702  0.00  0.00    +0.000 OA
ENDBRANCH   1   9
BRANCH   3  10
ATOM     10  C   UNL     1       5.484   5.747  15.366  0.00  0.00    +0.000 C 
BRANCH  10  11
ATOM     11  C   UNL     1       6.318   5.001  14.315  0.00  0.00    +0.000 C 
ATOM     12  O   UNL     1       7.539   5.140  14.248  0.00  0.00    +0.000 OA
ATOM     13  N   UNL     1       5.624   4.115  13.512  0.00  0.00    +0.000 N 
ATOM     14  H   UNL     1       4.613   4.212  13.496  0.00  0.00    +0.000 HD
BRANCH  13  15
ATOM     15  C   UNL     1       6.294   3.334  12.481  0.00  0.00    +0.000 C 
ATOM     16  C   UNL     1       5.278   2.530  11.675  0.00  0.00    +0.000 C 
ATOM     17  C   UNL     1       7.133   4.220  11.561  0.00  0.00    +0.000 C 
ENDBRANCH  13  15
ENDBRANCH  10  11
ENDBRANCH   3  10
BRANCH   4  18
ATOM     18  C   UNL     1       4.656   3.595  17.294  0.00  0.00    +0.000 C 
BRANCH  18  19
ATOM     19  N   UNL     1       3.601   3.363  18.310  0.00  0.00    +0.000 NA
ATOM     20  C   UNL     1       2.521   4.355  18.179  0.00  0.00    +0.000 C 
ATOM     21  C   UNL     1       1.287   4.036  19.028  0.00  0.00    +0.000 C 
ATOM     22  C   UNL     1       0.779   2.631  18.746  0.00  0.00    +0.000 C 
ATOM     23  C   UNL     1       1.899   1.641  19.021  0.00  0.00    +0.000 C 
ATOM     24  C   UNL     1       3.132   1.971  18.182  0.00  0.00    +0.000 C 
ENDBRANCH  18  19
ENDBRANCH   4  18
TORSDOF 6
ENDMDL
MODEL 2
REMARK VINA RESULT:      -7.4      0.675      1.149
REMARK  Name = 
REMARK  9 active torsions:
REMARK  status: ('A' for Active; 'I' for Inactive)
REMARK    1  A    between atoms: C_1  and  O_2
REMARK    2  A    between atoms: O_2  and  C_3
REMARK    3  A    between atoms: N_5  and  C_6
REMARK    4  A    between atoms: C_6  and  C_7
REMARK    5  A    between atoms: N_9  and  C_10
REMARK    6  A    between atoms: C_10  and  C_11
REMARK    7  A    between atoms: C_10  and  C_12
REMARK    8  A    between atoms: C_13  and  C_14
REMARK    9  A    between atoms: C_14  and  N_15
REMARK                            x       y       z     vdW  Elec       q    Type
REMARK                         _______ _______ _______ _____ _____    ______ ____
ROOT
ATOM      1  C   UNL     1       7.497   6.504  18.289  0.00  0.00    +0.000 A 
ATOM      2  C   UNL     1       6.864   6.368  17.112  0.00  0.00    +0.000 A 
ATOM      3  N   UNL     1       5.853   5.452  16.820  0.00  0.00    +0.000 N 
ATOM      4  C   UNL     1       5.550   4.462  17.778  0.00  0.00    +0.000 A 
ATOM      5  C   UNL     1       6.145   4.462  18.989  0.00  0.00    +0.000 A 
ATOM      6  C   UNL     1       7.136   5.507  19.342  0.00  0.00    +0.000 A 
ATOM      7  O   UNL     1       7.608   5.535  20.476  0.00  0.00    +0.000 OA
ENDROOT
BRANCH   1   9
ATOM      8  C   UNL     1       8.169   8.755  17.991  0.00  0.00    +0.000 C 
ATOM      9  O   UNL     1       8.398   7.496  18.618  0.00  0.00    +0.000 OA
ENDBRANCH   1   9
BRANCH   3  10
ATOM     10  C   UNL     1       5.209   5.502  15.477  0.00  0.00    +0.000 C 
BRANCH  10  11
ATOM     11  C   UNL     1       5.895   4.585  14.453  0.00  0.00    +0.000 C 
ATOM     12  O   UNL     1       7.059   4.216  14.603  0.00  0.00    +0.000 OA
ATOM     13  N   UNL     1       5.102   4.146  13.409  0.00  0.00    +0.000 N 
ATOM     14  H   UNL     1       4.235   4.652  13.255  0.00  0.00    +0.000 HD
BRANCH  13  15
ATOM     15  C   UNL     1       5.623   3.265  12.374  0.00  0.00    +0.000 C 
ATOM     16  C   UNL     1       4.553   2.986  11.323  0.00  0.00    +0.000 C 
ATOM     17  C   UNL     1       6.880   3.841  11.725  0.00  0.00    +0.000 C 
ENDBRANCH  13  15
ENDBRANCH  10  11
ENDBRANCH   3  10
BRANCH   4  18
ATOM     18  C   UNL     1       4.492   3.395  17.497  0.00  0.00    +0.000 C 
BRANCH  18  19
ATOM     19  N   UNL     1       3.112   3.721  17.932  0.00  0.00    +0.000 NA
ATOM     20  C   UNL     1       2.303   2.497  18.067  0.00  0.00    +0.000 C 
ATOM     21  C   UNL     1       0.948   2.727  18.742  0.00  0.00    +0.000 C 
ATOM     22  C   UNL     1       1.118   3.424  20.083  0.00  0.00    +0.000 C 
ATOM     23  C   UNL     1       1.846   4.740  19.863  0.00  0.00    +0.000 C 
ATOM     24  C   UNL     1       3.191   4.506  19.178  0.00  0.00    +0.000 C 
ENDBRANCH  18  19
ENDBRANCH   4  18
TORSDOF 6
ENDMDL
MODEL 3
REMARK VINA RESULT:      -7.2      3.677      5.182
REMARK  Name = 
REMARK  9 active torsions:
REMARK  status: ('A' for Active; 'I' for Inactive)
REMARK    1  A    between atoms: C_1  and  O_2
REMARK    2  A    between atoms: O_2  and  C_3
REMARK    3  A    between atoms: N_5  and  C_6
REMARK    4  A    between atoms: C_6  and  C_7
REMARK    5  A    between atoms: N_9  and  C_10
REMARK    6  A    between atoms: C_10  and  C_11
REMARK    7  A    between atoms: C_10  and  C_12
REMARK    8  A    between atoms: C_13  and  C_14
REMARK    9  A    between atoms: C_14  and  N_15
REMARK                            x       y       z     vdW  Elec       q    Type
REMARK                         _______ _______ _______ _____ _____    ______ ____
ROOT
ATOM      1  C   UNL     1       3.349   3.158  17.535  0.00  0.00    +0.000 A 
ATOM      2  C   UNL     1       4.407   3.951  17.300  0.00  0.00    +0.000 A 
ATOM      3  N   UNL     1       4.453   5.336  17.466  0.00  0.00    +0.000 N 
ATOM      4  C   UNL     1       3.251   6.015  17.760  0.00  0.00    +0.000 A 
ATOM      5  C   UNL     1       2.107   5.336  17.981  0.00  0.00    +0.000 A 
ATOM      6  C   UNL     1       2.084   3.855  17.918  0.00  0.00    +0.000 A 
ATOM      7  O   UNL     1       1.050   3.253  18.199  0.00  0.00    +0.000 OA
ENDROOT
BRANCH   1   9
ATOM      8  C   UNL     1       3.807   1.141  18.688  0.00  0.00    +0.000 C 
ATOM      9  O   UNL     1       3.344   1.778  17.501  0.00  0.00    +0.000 OA
ENDBRANCH   1   9
BRANCH   3  10
ATOM     10  C   UNL     1       5.745   6.042  17.232  0.00  0.00    +0.000 C 
BRANCH  10  11
ATOM     11  C   UNL     1       6.679   5.275  16.285  0.00  0.00    +0.000 C 
ATOM     12  O   UNL     1       7.646   4.644  16.711  0.00  0.00    +0.000 OA
ATOM     13  N   UNL     1       6.320   5.277  14.950  0.00  0.00    +0.000 N 
ATOM     14  H   UNL     1       5.641   5.976  14.664  0.00  0.00    +0.000 HD
BRANCH  13  15
ATOM     15  C   UNL     1       7.112   4.581  13.946  0.00  0.00    +0.000 C 
ATOM     16  C   UNL     1       6.215   3.723  13.059  0.00  0.00    +0.000 C 
ATOM     17  C   UNL     1       7.931   5.556  13.101  0.00  0.00    +0.000 C 
ENDBRANCH  13  15
ENDBRANCH  10  11
ENDBRANCH   3  10
BRANCH   4  18
ATOM     18  C   UNL     1       3.224   7.537  17.899  0.00  0.00    +0.000 C 
BRANCH  18  19
ATOM     19  N   UNL     1       1.972   8.115  18.444  0.00  0.00    +0.000 NA
ATOM     20  C   UNL     1       1.983   8.095  19.917  0.00  0.00    +0.000 C 
ATOM     21  C   UNL     1       0.840   8.892  20.552  0.00  0.00    +0.000 C 
ATOM     22  C   UNL     1       0.809  10.316  20.023  0.00  0.00    +0.000 C 
ATOM     23  C   UNL     1       0.668  10.275  18.510  0.00  0.00    +0.000 C 
ATOM     24  C   UNL     1       1.803   9.468  17.883  0.00  0.00    +0.000 C 
ENDBRANCH  18  19
ENDBRANCH   4  18
TORSDOF 6
ENDMDL
MODEL 4
REMARK VINA RESULT:      -7.1      4.218      6.345
REMARK  Name = 
REMARK  9 active torsions:
REMARK  status: ('A' for Active; 'I' for Inactive)
REMARK    1  A    between atoms: C_1  and  O_2
REMARK    2  A    between atoms: O_2  and  C_3
REMARK    3  A    between atoms: N_5  and  C_6
REMARK    4  A    between atoms: C_6  and  C_7
REMARK    5  A    between atoms: N_9  and  C_10
REMARK    6  A    between atoms: C_10  and  C_11
REMARK    7  A    between atoms: C_10  and  C_12
REMARK    8  A    between atoms: C_13  and  C_14
REMARK    9  A    between atoms: C_14  and  N_15
REMARK                            x       y       z     vdW  Elec       q    Type
REMARK                         _______ _______ _______ _____ _____    ______ ____
ROOT
ATOM      1  C   UNL     1       2.088   3.753  18.539  0.00  0.00    +0.000 A 
ATOM      2  C   UNL     1       2.561   4.806  17.852  0.00  0.00    +0.000 A 
ATOM      3  N   UNL     1       2.723   6.103  18.339  0.00  0.00    +0.000 N 
ATOM      4  C   UNL     1       2.211   6.407  19.619  0.00  0.00    +0.000 A 
ATOM      5  C   UNL     1       1.674   5.445  20.397  0.00  0.00    +0.000 A 
ATOM      6  C   UNL     1       1.607   4.041  19.925  0.00  0.00    +0.000 A 
ATOM      7  O   UNL     1       1.185   3.167  20.679  0.00  0.00    +0.000 OA
ENDROOT
BRANCH   1   9
ATOM      8  C   UNL     1       3.293   1.744  18.190  0.00  0.00    +0.000 C 
ATOM      9  O   UNL     1       2.055   2.445  18.101  0.00  0.00    +0.000 OA
ENDBRANCH   1   9
BRANCH   3  10
ATOM     10  C   UNL     1       3.341   7.129  17.452  0.00  0.00    +0.000 C 
BRANCH  10  11
ATOM     11  C   UNL     1       4.749   6.738  16.981  0.00  0.00    +0.000 C 
ATOM     12  O   UNL     1       5.078   6.829  15.799  0.00  0.00    +0.000 OA
ATOM     13  N   UNL     1       5.633   6.357  17.973  0.00  0.00    +0.000 N 
ATOM     14  H   UNL     1       5.229   6.118  18.873  0.00  0.00    +0.000 HD
BRANCH  13  15
ATOM     15  C   UNL     1       7.003   5.970  17.667  0.00  0.00    +0.000 C 
ATOM     16  C   UNL     1       7.909   6.216  18.870  0.00  0.00    +0.000 C 
ATOM     17  C   UNL     1       7.089   4.513  17.216  0.00  0.00    +0.000 C 
ENDBRANCH  13  15
ENDBRANCH  10  11
ENDBRANCH   3  10
BRANCH   4  18
ATOM     18  C   UNL     1       2.307   7.822  20.187  0.00  0.00    +0.000 C 
BRANCH  18  19
ATOM     19  N   UNL     1       1.039   8.407  20.688  0.00  0.00    +0.000 NA
ATOM     20  C   UNL     1       1.170   8.809  22.099  0.00  0.00    +0.000 C 
ATOM     21  C   UNL     1      -0.010   9.638  22.614  0.00  0.00    +0.000 C 
ATOM     22  C   UNL     1      -0.261  10.843  21.720  0.00  0.00    +0.000 C 
ATOM     23  C   UNL     1      -0.515  10.357  20.303  0.00  0.00    +0.000 C 
ATOM     24  C   UNL     1       0.659   9.521  19.799  0.00  0.00    +0.000 C 
ENDBRANCH  18  19
ENDBRANCH   4  18
TORSDOF 6
ENDMDL
MODEL 5
REMARK VINA RESULT:      -7.0      3.559      5.604
REMARK  Name = 
REMARK  9 active torsions:
REMARK  status: ('A' for Active; 'I' for Inactive)
REMARK    1  A    between atoms: C_1  and  O_2
REMARK    2  A    between atoms: O_2  and  C_3
REMARK    3  A    between atoms: N_5  and  C_6
REMARK    4  A    between atoms: C_6  and  C_7
REMARK    5  A    between atoms: N_9  and  C_10
REMARK    6  A    between atoms: C_10  and  C_11
REMARK    7  A    between atoms: C_10  and  C_12
REMARK    8  A    between atoms: C_13  and  C_14
REMARK    9  A    between atoms: C_14  and  N_15
REMARK                            x       y       z     vdW  Elec       q    Type
REMARK                         _______ _______ _______ _____ _____    ______ ____
ROOT
ATOM      1  C   UNL     1       5.887   6.423  16.987  0.00  0.00    +0.000 A 
ATOM      2  C   UNL     1       4.854   6.905  17.697  0.00  0.00    +0.000 A 
ATOM      3  N   UNL     1       3.675   6.226  18.005  0.00  0.00    +0.000 N 
ATOM      4  C   UNL     1       3.449   4.971  17.400  0.00  0.00    +0.000 A 
ATOM      5  C   UNL     1       4.393   4.392  16.629  0.00  0.00    +0.000 A 
ATOM      6  C   UNL     1       5.694   5.063  16.398  0.00  0.00    +0.000 A 
ATOM      7  O   UNL     1       6.569   4.485  15.757  0.00  0.00    +0.000 OA
ENDROOT
BRANCH   1   9
ATOM      8  C   UNL     1       7.823   7.345  17.993  0.00  0.00    +0.000 C 
ATOM      9  O   UNL     1       7.105   7.044  16.799  0.00  0.00    +0.000 OA
ENDBRANCH   1   9
BRANCH   3  10
ATOM     10  C   UNL     1       2.669   6.895  18.877  0.00  0.00    +0.000 C 
BRANCH  10  11
ATOM     11  C   UNL     1       2.199   8.245  18.315  0.00  0.00    +0.000 C 
ATOM     12  O   UNL     1       2.443   8.577  17.156  0.00  0.00    +0.000 OA
ATOM     13  N   UNL     1       1.425   9.015  19.164  0.00  0.00    +0.000 N 
ATOM     14  H   UNL     1       1.445   8.764  20.148  0.00  0.00    +0.000 HD
BRANCH  13  15
ATOM     15  C   UNL     1       0.905  10.312  18.756  0.00  0.00    +0.000 C 
ATOM     16  C   UNL     1      -0.538  10.182  18.277  0.00  0.00    +0.000 C 
ATOM     17  C   UNL     1       1.010  11.340  19.882  0.00  0.00    +0.000 C 
ENDBRANCH  13  15
ENDBRANCH  10  11
ENDBRANCH   3  10
BRANCH   4  18
ATOM     18  C   UNL     1       2.153   4.200  17.651  0.00  0.00    +0.000 C 
BRANCH  18  19
ATOM     19  N   UNL     1       2.173   3.254  18.792  0.00  0.00    +0.000 NA
ATOM     20  C   UNL     1       3.494   3.244  19.442  0.00  0.00    +0.000 C 
ATOM     21  C   UNL     1       3.522   2.480  20.768  0.00  0.00    +0.000 C 
ATOM     22  C   UNL     1       2.448   2.992  21.715  0.00  0.00    +0.000 C 
ATOM     23  C   UNL     1       1.094   2.858  21.039  0.00  0.00    +0.000 C 
ATOM     24  C   UNL     1       1.076   3.611  19.711  0.00  0.00    +0.000 C 
ENDBRANCH  18  19
ENDBRANCH   4  18
TORSDOF 6
ENDMDL
MODEL 6
REMARK VINA RESULT:      -6.9      3.223      5.011
REMARK  Name = 
REMARK  9 active torsions:
REMARK  status: ('A' for Active; 'I' for Inactive)
REMARK    1  A    between atoms: C_1  and  O_2
REMARK    2  A    between atoms: O_2  and  C_3
REMARK    3  A    between atoms: N_5  and  C_6
REMARK    4  A    between atoms: C_6  and  C_7
REMARK    5  A    between atoms: N_9  and  C_10
REMARK    6  A    between atoms: C_10  and  C_11
REMARK    7  A    between atoms: C_10  and  C_12
REMARK    8  A    between atoms: C_13  and  C_14
REMARK    9  A    between atoms: C_14  and  N_15
REMARK                            x       y       z     vdW  Elec       q    Type
REMARK                         _______ _______ _______ _____ _____    ______ ____
ROOT
ATOM      1  C   UNL     1       6.741   6.514  16.970  0.00  0.00    +0.000 A 
ATOM      2  C   UNL     1       5.609   6.893  17.585  0.00  0.00    +0.000 A 
ATOM      3  N   UNL     1       4.532   6.069  17.912  0.00  0.00    +0.000 N 
ATOM      4  C   UNL     1       4.533   4.743  17.428  0.00  0.00    +0.000 A 
ATOM      5  C   UNL     1       5.595   4.249  16.759  0.00  0.00    +0.000 A 
ATOM      6  C   UNL     1       6.791   5.091  16.514  0.00  0.00    +0.000 A 
ATOM      7  O   UNL     1       7.778   4.599  15.971  0.00  0.00    +0.000 OA
ENDROOT
BRANCH   1   9
ATOM      8  C   UNL     1       8.007   8.387  17.676  0.00  0.00    +0.000 C 
ATOM      9  O   UNL     1       7.860   7.297  16.770  0.00  0.00    +0.000 OA
ENDBRANCH   1   9
BRANCH   3  10
ATOM     10  C   UNL     1       3.389   6.652  18.670  0.00  0.00    +0.000 C 
BRANCH  10  11
ATOM     11  C   UNL     1       2.751   7.852  17.955  0.00  0.00    +0.000 C 
ATOM     12  O   UNL     1       2.940   8.060  16.757  0.00  0.00    +0.000 OA
ATOM     13  N   UNL     1       1.899   8.627  18.721  0.00  0.00    +0.000 N 
ATOM     14  H   UNL     1       1.960   8.509  19.728  0.00  0.00    +0.000 HD
BRANCH  13  15
ATOM     15  C   UNL     1       1.220   9.789  18.167  0.00  0.00    +0.000 C 
ATOM     16  C   UNL     1      -0.087  10.048  18.909  0.00  0.00    +0.000 C 
ATOM     17  C   UNL     1       2.112  11.029  18.196  0.00  0.00    +0.000 C 
ENDBRANCH  13  15
ENDBRANCH  10  11
ENDBRANCH   3  10
BRANCH   4  18
ATOM     18  C   UNL     1       3.357   3.806  17.703  0.00  0.00    +0.000 C 
BRANCH  18  19
ATOM     19  N   UNL     1       2.751   3.905  19.053  0.00  0.00    +0.000 NA
ATOM     20  C   UNL     1       1.303   3.642  18.998  0.00  0.00    +0.000 C 
ATOM     21  C   UNL     1       0.653   3.487  20.376  0.00  0.00    +0.000 C 
ATOM     22  C   UNL     1       1.372   2.431  21.201  0.00  0.00    +0.000 C 
ATOM     23  C   UNL     1       2.835   2.823  21.331  0.00  0.00    +0.000 C 
ATOM     24  C   UNL     1       3.475   2.989  19.955  0.00  0.00    +0.000 C 
ENDBRANCH  18  19
ENDBRANCH   4  18
TORSDOF 6
ENDMDL
MODEL 7
REMARK VINA RESULT:      -6.9      3.371      5.884
REMARK  Name = 
REMARK  9 active torsions:
REMARK  status: ('A' for Active; 'I' for Inactive)
REMARK    1  A    between atoms: C_1  and  O_2
REMARK    2  A    between atoms: O_2  and  C_3
REMARK    3  A    between atoms: N_5  and  C_6
REMARK    4  A    between atoms: C_6  and  C_7
REMARK    5  A    between atoms: N_9  and  C_10
REMARK    6  A    between atoms: C_10  and  C_11
REMARK    7  A    between atoms: C_10  and  C_12
REMARK    8  A    between atoms: C_13  and  C_14
REMARK    9  A    between atoms: C_14  and  N_15
REMARK                            x       y       z     vdW  Elec       q    Type
REMARK                         _______ _______ _______ _____ _____    ______ ____
ROOT
ATOM      1  C   UNL     1       6.110   5.216  16.315  0.00  0.00    +0.000 A 
ATOM      2  C   UNL     1       5.048   4.407  16.461  0.00  0.00    +0.000 A 
ATOM      3  N   UNL     1       3.812   4.757  17.005  0.00  0.00    +0.000 N 
ATOM      4  C   UNL     1       3.681   6.028  17.605  0.00  0.00    +0.000 A 
ATOM      5  C   UNL     1       4.689   6.923  17.562  0.00  0.00    +0.000 A 
ATOM      6  C   UNL     1       5.964   6.592  16.882  0.00  0.00    +0.000 A 
ATOM      7  O   UNL     1       6.840   7.448  16.786  0.00  0.00    +0.000 OA
ENDROOT
BRANCH   1   9
ATOM      8  C   UNL     1       7.171   4.794  14.240  0.00  0.00    +0.000 C 
ATOM      9  O   UNL     1       7.283   4.909  15.656  0.00  0.00    +0.000 OA
ENDBRANCH   1   9
BRANCH   3  10
ATOM     10  C   UNL     1       2.720   3.743  17.012  0.00  0.00    +0.000 C 
BRANCH  10  11
ATOM     11  C   UNL     1       2.870   2.715  18.143  0.00  0.00    +0.000 C 
ATOM     12  O   UNL     1       3.114   1.533  17.907  0.00  0.00    +0.000 OA
ATOM     13  N   UNL     1       2.791   3.217  19.429  0.00  0.00    +0.000 N 
ATOM     14  H   UNL     1       2.392   4.146  19.529  0.00  0.00    +0.000 HD
BRANCH  13  15
ATOM     15  C   UNL     1       2.926   2.355  20.594  0.00  0.00    +0.000 C 
ATOM     16  C   UNL     1       4.397   2.089  20.894  0.00  0.00    +0.000 C 
ATOM     17  C   UNL     1       2.225   2.948  21.816  0.00  0.00    +0.000 C 
ENDBRANCH  13  15
ENDBRANCH  10  11
ENDBRANCH   3  10
BRANCH   4  18
ATOM     18  C   UNL     1       2.370   6.451  18.268  0.00  0.00    +0.000 C 
BRANCH  18  19
ATOM     19  N   UNL     1       2.333   7.832  18.807  0.00  0.00    +0.000 NA
ATOM     20  C   UNL     1       1.637   8.738  17.878  0.00  0.00    +0.000 C 
ATOM     21  C   UNL     1       1.345  10.120  18.471  0.00  0.00    +0.000 C 
ATOM     22  C   UNL     1       0.595  10.001  19.788  0.00  0.00    +0.000 C 
ATOM     23  C   UNL     1       1.421   9.162  20.749  0.00  0.00    +0.000 C 
ATOM     24  C   UNL     1       1.720   7.790  20.148  0.00  0.00    +0.000 C 
ENDBRANCH  18  19
ENDBRANCH   4  18
TORSDOF 6
ENDMDL
MODEL 8
REMARK VINA RESULT:      -6.9      3.109      4.887
REMARK  Name = 
REMARK  9 active torsions:
REMARK  status: ('A' for Active; 'I' for Inactive)
REMARK    1  A    between atoms: C_1  and  O_2
REMARK    2  A    between atoms: O_2  and  C_3
REMARK    3  A    between atoms: N_5  and  C_6
REMARK    4  A    between atoms: C_6  and  C_7
REMARK    5  A    between atoms: N_9  and  C_10
REMARK    6  A    between atoms: C_10  and  C_11
REMARK    7  A    between atoms: C_10  and  C_12
REMARK    8  A    between atoms: C_13  and  C_14
REMARK    9  A    between atoms: C_14  and  N_15
REMARK                            x       y       z     vdW  Elec       q    Type
REMARK                         _______ _______ _______ _____ _____    ______ ____
ROOT
ATOM      1  C   UNL     1       7.082   6.752  17.996  0.00  0.00    +0.000 A 
ATOM      2  C   UNL     1       5.928   7.219  17.492  0.00  0.00    +0.000 A 
ATOM      3  N   UNL     1       4.739   6.503  17.350  0.00  0.00    +0.000 N 
ATOM      4  C   UNL     1       4.760   5.115  17.606  0.00  0.00    +0.000 A 
ATOM      5  C   UNL     1       5.871   4.513  18.079  0.00  0.00    +0.000 A 
ATOM      6  C   UNL     1       7.101   5.298  18.342  0.00  0.00    +0.000 A 
ATOM      7  O   UNL     1       8.077   4.746  18.845  0.00  0.00    +0.000 OA
ENDROOT
BRANCH   1   9
ATOM      8  C   UNL     1       8.113   8.884  17.954  0.00  0.00    +0.000 C 
ATOM      9  O   UNL     1       8.213   7.496  18.262  0.00  0.00    +0.000 OA
ENDBRANCH   1   9
BRANCH   3  10
ATOM     10  C   UNL     1       3.531   7.213  16.843  0.00  0.00    +0.000 C 
BRANCH  10  11
ATOM     11  C   UNL     1       2.768   7.954  17.951  0.00  0.00    +0.000 C 
ATOM     12  O   UNL     1       2.717   7.515  19.099  0.00  0.00    +0.000 OA
ATOM     13  N   UNL     1       2.217   9.171  17.593  0.00  0.00    +0.000 N 
ATOM     14  H   UNL     1       2.132   9.356  16.598  0.00  0.00    +0.000 HD
BRANCH  13  15
ATOM     15  C   UNL     1       1.476   9.983  18.548  0.00  0.00    +0.000 C 
ATOM     16  C   UNL     1       1.954  11.430  18.503  0.00  0.00    +0.000 C 
ATOM     17  C   UNL     1      -0.030   9.903  18.303  0.00  0.00    +0.000 C 
ENDBRANCH  13  15
ENDBRANCH  10  11
ENDBRANCH   3  10
BRANCH   4  18
ATOM     18  C   UNL     1       3.506   4.263  17.415  0.00  0.00    +0.000 C 
BRANCH  18  19
ATOM     19  N   UNL     1       3.057   3.495  18.601  0.00  0.00    +0.000 NA
ATOM     20  C   UNL     1       3.013   4.355  19.796  0.00  0.00    +0.000 C 
ATOM     21  C   UNL     1       2.331   3.701  21.001  0.00  0.00    +0.000 C 
ATOM     22  C   UNL     1       0.944   3.198  20.635  0.00  0.00    +0.000 C 
ATOM     23  C   UNL     1       1.066   2.217  19.480  0.00  0.00    +0.000 C 
ATOM     24  C   UNL     1       1.759   2.871  18.286  0.00  0.00    +0.000 C 
ENDBRANCH  18  19
ENDBRANCH   4  18
TORSDOF 6
ENDMDL
MODEL 9
REMARK VINA RESULT:      -6.8      2.979      5.474
REMARK  Name = 
REMARK  9 active torsions:
REMARK  status: ('A' for Active; 'I' for Inactive)
REMARK    1  A    between atoms: C_1  and  O_2
REMARK    2  A    between atoms: O_2  and  C_3
REMARK    3  A    between atoms: N_5  and  C_6
REMARK    4  A    between atoms: C_6  and  C_7
REMARK    5  A    between atoms: N_9  and  C_10
REMARK    6  A    between atoms: C_10  and  C_11
REMARK    7  A    between atoms: C_10  and  C_12
REMARK    8  A    between atoms: C_13  and  C_14
REMARK    9  A    between atoms: C_14  and  N_15
REMARK                            x       y       z     vdW  Elec       q    Type
REMARK                         _______ _______ _______ _____ _____    ______ ____
ROOT
ATOM      1  C   UNL     1       6.093   5.647  16.444  0.00  0.00    +0.000 A 
ATOM      2  C   UNL     1       4.797   5.973  16.586  0.00  0.00    +0.000 A 
ATOM      3  N   UNL     1       4.040   5.854  17.751  0.00  0.00    +0.000 N 
ATOM      4  C   UNL     1       4.613   5.192  18.858  0.00  0.00    +0.000 A 
ATOM      5  C   UNL     1       5.897   4.779  18.830  0.00  0.00    +0.000 A 
ATOM      6  C   UNL     1       6.739   5.010  17.632  0.00  0.00    +0.000 A 
ATOM      7  O   UNL     1       7.927   4.696  17.656  0.00  0.00    +0.000 OA
ENDROOT
BRANCH   1   9
ATOM      8  C   UNL     1       6.839   4.877  14.333  0.00  0.00    +0.000 C 
ATOM      9  O   UNL     1       6.876   5.891  15.334  0.00  0.00    +0.000 OA
ENDBRANCH   1   9
BRANCH   3  10
ATOM     10  C   UNL     1       2.632   6.343  17.743  0.00  0.00    +0.000 C 
BRANCH  10  11
ATOM     11  C   UNL     1       2.479   7.728  18.389  0.00  0.00    +0.000 C 
ATOM     12  O   UNL     1       2.942   8.737  17.859  0.00  0.00    +0.000 OA
ATOM     13  N   UNL     1       1.728   7.772  19.549  0.00  0.00    +0.000 N 
ATOM     14  H   UNL     1       1.561   6.886  20.016  0.00  0.00    +0.000 HD
BRANCH  13  15
ATOM     15  C   UNL     1       1.495   9.022  20.260  0.00  0.00    +0.000 C 
ATOM     16  C   UNL     1       0.325   9.778  19.640  0.00  0.00    +0.000 C 
ATOM     17  C   UNL     1       1.256   8.784  21.750  0.00  0.00    +0.000 C 
ENDBRANCH  13  15
ENDBRANCH  10  11
ENDBRANCH   3  10
BRANCH   4  18
ATOM     18  C   UNL     1       3.817   4.980  20.145  0.00  0.00    +0.000 C 
BRANCH  18  19
ATOM     19  N   UNL     1       2.948   3.779  20.179  0.00  0.00    +0.000 NA
ATOM     20  C   UNL     1       1.531   4.161  20.312  0.00  0.00    +0.000 C 
ATOM     21  C   UNL     1       0.558   2.996  20.110  0.00  0.00    +0.000 C 
ATOM     22  C   UNL     1       0.816   2.294  18.786  0.00  0.00    +0.000 C 
ATOM     23  C   UNL     1       2.256   1.810  18.759  0.00  0.00    +0.000 C 
ATOM     24  C   UNL     1       3.222   2.974  18.974  0.00  0.00    +0.000 C 
ENDBRANCH  18  19
ENDBRANCH   4  18
TORSDOF 6
ENDMDL
