MODEL 1
REMARK VINA RESULT:      -7.6      0.000      0.000
REMARK  Name = 
REMARK  14 active torsions:
REMARK  status: ('A' for Active; 'I' for Inactive)
REMARK    1  A    between atoms: C_1  and  C_2
REMARK    2  A    between atoms: C_2  and  N_3
REMARK    3  A    between atoms: N_3  and  C_4
REMARK    4  A    between atoms: C_4  and  C_5
REMARK    5  A    between atoms: C_6  and  C_8
REMARK    6  A    between atoms: C_9  and  C_10
REMARK    7  A    between atoms: C_12  and  C_13
REMARK    8  A    between atoms: N_17  and  C_18
REMARK    9  A    between atoms: C_18  and  C_19
REMARK   10  A    between atoms: C_19  and  C_20
REMARK   11  A    between atoms: C_20  and  N_21
REMARK   12  A    between atoms: N_21  and  C_22
REMARK   13  A    between atoms: N_21  and  C_23
REMARK   14  A    between atoms: C_31  and  C_32
REMARK                            x       y       z     vdW  Elec       q    Type
REMARK                         _______ _______ _______ _____ _____    ______ ____
ROOT
ATOM      1  C   UNL     1       2.284   8.917  17.601  0.00  0.00    +0.000 C 
ATOM      2  C   UNL     1       2.643   7.827  18.296  0.00  0.00    +0.000 C 
ATOM      3  C   UNL     1       2.065   7.360  19.611  0.00  0.00    +0.000 C 
ATOM      4  O   UNL     1       1.254   7.923  20.318  0.00  0.00    +0.000 OA
ATOM      5  N   UNL     1       2.697   6.141  19.859  0.00  0.00    +0.000 N 
ATOM      6  C   UNL     1       3.627   5.826  18.854  0.00  0.00    +0.000 A 
ATOM      7  C   UNL     1       4.447   4.719  18.748  0.00  0.00    +0.000 A 
ATOM      8  C   UNL     1       5.278   4.618  17.630  0.00  0.00    +0.000 A 
ATOM      9  C   UNL     1       5.287   5.628  16.656  0.00  0.00    +0.000 A 
ATOM     10 CL   UNL     1       6.325   5.474  15.291  0.00  0.00    +0.000 Cl
ATOM     11  C   UNL     1       4.467   6.753  16.770  0.00  0.00    +0.000 A 
ATOM     12  C   UNL     1       3.638   6.837  17.875  0.00  0.00    +0.000 A 
ENDROOT
BRANCH   1  17
ATOM     13  C   UNL     1      -0.222  11.377  18.731  0.00  0.00    +0.000 A 
ATOM     14  C   UNL     1      -0.944  10.303  18.205  0.00  0.00    +0.000 A 
ATOM     15  C   UNL     1      -2.380  10.088  17.886  0.00  0.00    +0.000 C 
ATOM     16  N   UNL     1      -0.053   9.300  17.905  0.00  0.00    +0.000 N 
ATOM     17  C   UNL     1       1.228   9.756  18.019  0.00  0.00    +0.000 A 
ATOM     18  C   UNL     1       1.174  11.056  18.485  0.00  0.00    +0.000 A 
ATOM     19  C   UNL     1       2.338  11.979  18.631  0.00  0.00    +0.000 C 
ATOM     20  H   UNL     1      -0.310   8.403  17.514  0.00  0.00    +0.000 HD
BRANCH  13  22
ATOM     21  N   UNL     1      -1.170  12.780  20.590  0.00  0.00    +0.000 N 
ATOM     22  C   UNL     1      -0.703  12.672  19.260  0.00  0.00    +0.000 C 
ATOM     23  O   UNL     1      -0.644  13.675  18.546  0.00  0.00    +0.000 OA
BRANCH  21  25
ATOM     24  C   UNL     1      -3.292  14.058  20.821  0.00  0.00    +0.000 C 
ATOM     25  C   UNL     1      -1.777  14.062  20.961  0.00  0.00    +0.000 C 
ENDBRANCH  21  25
BRANCH  21  26
ATOM     26  C   UNL     1      -1.271  11.672  21.535  0.00  0.00    +0.000 C 
ATOM     27  C   UNL     1      -1.252  11.996  23.019  0.00  0.00    +0.000 C 
ENDBRANCH  21  26
ENDBRANCH  13  22
ENDBRANCH   1  17
BRANCH   5  28
ATOM     28  C   UNL     1       2.357   5.316  20.995  0.00  0.00    +0.000 C 
BRANCH  28  29
ATOM     29  C   UNL     1       1.320   4.235  20.668  0.00  0.00    +0.000 C 
BRANCH  29  30
ATOM     30  C   UNL     1       1.891   2.813  20.605  0.00  0.00    +0.000 C 
BRANCH  30  31
ATOM     31  N   UNL     1       1.734   2.156  19.295  0.00  0.00    +0.000 NA
ATOM     32  C   UNL     1       1.156   3.048  18.290  0.00  0.00    +0.000 C 
ATOM     33  C   UNL     1       3.023   1.639  18.830  0.00  0.00    +0.000 C 
ENDBRANCH  30  31
ENDBRANCH  29  30
ENDBRANCH  28  29
ENDBRANCH   5  28
TORSDOF 8
ENDMDL
MODEL 2
REMARK VINA RESULT:      -6.9      1.053      1.558
REMARK  Name = 
REMARK  14 active torsions:
REMARK  status: ('A' for Active; 'I' for Inactive)
REMARK    1  A    between atoms: C_1  and  C_2
REMARK    2  A    between atoms: C_2  and  N_3
REMARK    3  A    between atoms: N_3  and  C_4
REMARK    4  A    between atoms: C_4  and  C_5
REMARK    5  A    between atoms: C_6  and  C_8
REMARK    6  A    between atoms: C_9  and  C_10
REMARK    7  A    between atoms: C_12  and  C_13
REMARK    8  A    between atoms: N_17  and  C_18
REMARK    9  A    between atoms: C_18  and  C_19
REMARK   10  A    between atoms: C_19  and  C_20
REMARK   11  A    between atoms: C_20  and  N_21
REMARK   12  A    between atoms: N_21  and  C_22
REMARK   13  A    between atoms: N_21  and  C_23
REMARK   14  A    between atoms: C_31  and  C_32
REMARK                            x       y       z     vdW  Elec       q    Type
REMARK                         _______ _______ _______ _____ _____    ______ ____
ROOT
ATOM      1  C   UNL     1       1.993   9.014  17.811  0.00  0.00    +0.000 C 
ATOM      2  C   UNL     1       2.410   7.913  18.453  0.00  0.00    +0.000 C 
ATOM      3  C   UNL     1       1.876   7.367  19.756  0.00  0.00    +0.000 C 
ATOM      4  O   UNL     1       1.056   7.864  20.501  0.00  0.00    +0.000 OA
ATOM      5  N   UNL     1       2.563   6.167  19.942  0.00  0.00    +0.000 N 
ATOM      6  C   UNL     1       3.488   5.934  18.909  0.00  0.00    +0.000 A 
ATOM      7  C   UNL     1       4.351   4.868  18.743  0.00  0.00    +0.000 A 
ATOM      8  C   UNL     1       5.165   4.849  17.609  0.00  0.00    +0.000 A 
ATOM      9  C   UNL     1       5.113   5.899  16.678  0.00  0.00    +0.000 A 
ATOM     10 CL   UNL     1       6.133   5.846  15.291  0.00  0.00    +0.000 Cl
ATOM     11  C   UNL     1       4.250   6.982  16.853  0.00  0.00    +0.000 A 
ATOM     12  C   UNL     1       3.438   6.984  17.974  0.00  0.00    +0.000 A 
ENDROOT
BRANCH   1  17
ATOM     13  C   UNL     1      -0.589  11.224  19.246  0.00  0.00    +0.000 A 
ATOM     14  C   UNL     1      -1.188  10.582  18.160  0.00  0.00    +0.000 A 
ATOM     15  C   UNL     1      -2.482  10.759  17.449  0.00  0.00    +0.000 C 
ATOM     16  N   UNL     1      -0.307   9.641  17.684  0.00  0.00    +0.000 N 
ATOM     17  C   UNL     1       0.911   9.790  18.282  0.00  0.00    +0.000 A 
ATOM     18  C   UNL     1       0.798  10.791  19.227  0.00  0.00    +0.000 A 
ATOM     19  C   UNL     1       1.921  11.369  20.022  0.00  0.00    +0.000 C 
ATOM     20  H   UNL     1      -0.491   9.028  16.901  0.00  0.00    +0.000 HD
BRANCH  13  22
ATOM     21  N   UNL     1      -0.946  13.639  19.849  0.00  0.00    +0.000 N 
ATOM     22  C   UNL     1      -1.128  12.269  20.144  0.00  0.00    +0.000 C 
ATOM     23  O   UNL     1      -1.788  11.935  21.130  0.00  0.00    +0.000 OA
BRANCH  21  25
ATOM     24  C   UNL     1      -0.429  14.619  22.077  0.00  0.00    +0.000 C 
ATOM     25  C   UNL     1      -1.373  14.587  20.884  0.00  0.00    +0.000 C 
ENDBRANCH  21  25
BRANCH  21  26
ATOM     26  C   UNL     1      -0.201  14.158  18.705  0.00  0.00    +0.000 C 
ATOM     27  C   UNL     1       0.545  15.470  18.877  0.00  0.00    +0.000 C 
ENDBRANCH  21  26
ENDBRANCH  13  22
ENDBRANCH   1  17
BRANCH   5  28
ATOM     28  C   UNL     1       2.280   5.281  21.048  0.00  0.00    +0.000 C 
BRANCH  28  29
ATOM     29  C   UNL     1       1.289   4.167  20.690  0.00  0.00    +0.000 C 
BRANCH  29  30
ATOM     30  C   UNL     1       1.918   2.771  20.597  0.00  0.00    +0.000 C 
BRANCH  30  31
ATOM     31  N   UNL     1       1.771   2.128  19.279  0.00  0.00    +0.000 NA
ATOM     32  C   UNL     1       1.183   3.024  18.284  0.00  0.00    +0.000 C 
ATOM     33  C   UNL     1       3.066   1.632  18.809  0.00  0.00    +0.000 C 
ENDBRANCH  30  31
ENDBRANCH  29  30
ENDBRANCH  28  29
ENDBRANCH   5  28
TORSDOF 8
ENDMDL
MODEL 3
REMARK VINA RESULT:      -6.7      0.778      1.119
REMARK  Name = 
REMARK  14 active torsions:
REMARK  status: ('A' for Active; 'I' for Inactive)
REMARK    1  A    between atoms: C_1  and  C_2
REMARK    2  A    between atoms: C_2  and  N_3
REMARK    3  A    between atoms: N_3  and  C_4
REMARK    4  A    between atoms: C_4  and  C_5
REMARK    5  A    between atoms: C_6  and  C_8
REMARK    6  A    between atoms: C_9  and  C_10
REMARK    7  A    between atoms: C_12  and  C_13
REMARK    8  A    between atoms: N_17  and  C_18
REMARK    9  A    between atoms: C_18  and  C_19
REMARK   10  A    between atoms: C_19  and  C_20
REMARK   11  A    between atoms: C_20  and  N_21
REMARK   12  A    between atoms: N_21  and  C_22
REMARK   13  A    between atoms: N_21  and  C_23
REMARK   14  A    between atoms: C_31  and  C_32
REMARK                            x       y       z     vdW  Elec       q    Type
REMARK                         _______ _______ _______ _____ _____    ______ ____
ROOT
ATOM      1  C   UNL     1       2.112   9.365  17.591  0.00  0.00    +0.000 C 
ATOM      2  C   UNL     1       2.471   8.246  18.236  0.00  0.00    +0.000 C 
ATOM      3  C   UNL     1       1.923   7.741  19.550  0.00  0.00    +0.000 C 
ATOM      4  O   UNL     1       1.144   8.292  20.301  0.00  0.00    +0.000 OA
ATOM      5  N   UNL     1       2.539   6.504  19.736  0.00  0.00    +0.000 N 
ATOM      6  C   UNL     1       3.434   6.209  18.693  0.00  0.00    +0.000 A 
ATOM      7  C   UNL     1       4.230   5.092  18.523  0.00  0.00    +0.000 A 
ATOM      8  C   UNL     1       5.026   5.017  17.378  0.00  0.00    +0.000 A 
ATOM      9  C   UNL     1       5.024   6.062  16.440  0.00  0.00    +0.000 A 
ATOM     10 CL   UNL     1       6.019   5.939  15.041  0.00  0.00    +0.000 Cl
ATOM     11  C   UNL     1       4.229   7.196  16.619  0.00  0.00    +0.000 A 
ATOM     12  C   UNL     1       3.434   7.254  17.751  0.00  0.00    +0.000 A 
ENDROOT
BRANCH   1  17
ATOM     13  C   UNL     1      -0.310  11.816  18.910  0.00  0.00    +0.000 A 
ATOM     14  C   UNL     1      -1.066  10.829  18.272  0.00  0.00    +0.000 A 
ATOM     15  C   UNL     1      -2.503  10.710  17.911  0.00  0.00    +0.000 C 
ATOM     16  N   UNL     1      -0.213   9.821  17.892  0.00  0.00    +0.000 N 
ATOM     17  C   UNL     1       1.084  10.208  18.071  0.00  0.00    +0.000 A 
ATOM     18  C   UNL     1       1.075  11.459  18.657  0.00  0.00    +0.000 A 
ATOM     19  C   UNL     1       2.274  12.311  18.909  0.00  0.00    +0.000 C 
ATOM     20  H   UNL     1      -0.500   8.978  17.413  0.00  0.00    +0.000 HD
BRANCH  13  22
ATOM     21  N   UNL     1      -1.321  13.066  20.844  0.00  0.00    +0.000 N 
ATOM     22  C   UNL     1      -0.747  13.076  19.553  0.00  0.00    +0.000 C 
ATOM     23  O   UNL     1      -0.556  14.146  18.972  0.00  0.00    +0.000 OA
BRANCH  21  25
ATOM     24  C   UNL     1      -1.896  14.440  22.836  0.00  0.00    +0.000 C 
ATOM     25  C   UNL     1      -1.869  14.340  21.319  0.00  0.00    +0.000 C 
ENDBRANCH  21  25
BRANCH  21  26
ATOM     26  C   UNL     1      -1.580  11.867  21.637  0.00  0.00    +0.000 C 
ATOM     27  C   UNL     1      -0.392  11.153  22.259  0.00  0.00    +0.000 C 
ENDBRANCH  21  26
ENDBRANCH  13  22
ENDBRANCH   1  17
BRANCH   5  28
ATOM     28  C   UNL     1       2.219   5.644  20.852  0.00  0.00    +0.000 C 
BRANCH  28  29
ATOM     29  C   UNL     1       1.036   4.709  20.573  0.00  0.00    +0.000 C 
BRANCH  29  30
ATOM     30  C   UNL     1       1.392   3.480  19.726  0.00  0.00    +0.000 C 
BRANCH  30  31
ATOM     31  N   UNL     1       1.975   2.366  20.495  0.00  0.00    +0.000 NA
ATOM     32  C   UNL     1       3.436   2.362  20.452  0.00  0.00    +0.000 C 
ATOM     33  C   UNL     1       1.511   2.412  21.884  0.00  0.00    +0.000 C 
ENDBRANCH  30  31
ENDBRANCH  29  30
ENDBRANCH  28  29
ENDBRANCH   5  28
TORSDOF 8
ENDMDL
MODEL 4
REMARK VINA RESULT:      -6.4      1.064      1.650
REMARK  Name = 
REMARK  14 active torsions:
REMARK  status: ('A' for Active; 'I' for Inactive)
REMARK    1  A    between atoms: C_1  and  C_2
REMARK    2  A    between atoms: C_2  and  N_3
REMARK    3  A    between atoms: N_3  and  C_4
REMARK    4  A    between atoms: C_4  and  C_5
REMARK    5  A    between atoms: C_6  and  C_8
REMARK    6  A    between atoms: C_9  and  C_10
REMARK    7  A    between atoms: C_12  and  C_13
REMARK    8  A    between atoms: N_17  and  C_18
REMARK    9  A    between atoms: C_18  and  C_19
REMARK   10  A    between atoms: C_19  and  C_20
REMARK   11  A    between atoms: C_20  and  N_21
REMARK   12  A    between atoms: N_21  and  C_22
REMARK   13  A    between atoms: N_21  and  C_23
REMARK   14  A    between atoms: C_31  and  C_32
REMARK                            x       y       z     vdW  Elec       q    Type
REMARK                         _______ _______ _______ _____ _____    ______ ____
ROOT
ATOM      1  C   UNL     1       2.396   9.358  17.732  0.00  0.00    +0.000 C 
ATOM      2  C   UNL     1       2.623   8.180  18.332  0.00  0.00    +0.000 C 
ATOM      3  C   UNL     1       2.059   7.712  19.653  0.00  0.00    +0.000 C 
ATOM      4  O   UNL     1       1.390   8.338  20.450  0.00  0.00    +0.000 OA
ATOM      5  N   UNL     1       2.508   6.397  19.780  0.00  0.00    +0.000 N 
ATOM      6  C   UNL     1       3.316   6.018  18.694  0.00  0.00    +0.000 A 
ATOM      7  C   UNL     1       3.946   4.810  18.462  0.00  0.00    +0.000 A 
ATOM      8  C   UNL     1       4.682   4.666  17.285  0.00  0.00    +0.000 A 
ATOM      9  C   UNL     1       4.788   5.730  16.376  0.00  0.00    +0.000 A 
ATOM     10 CL   UNL     1       5.706   5.519  14.935  0.00  0.00    +0.000 Cl
ATOM     11  C   UNL     1       4.162   6.955  16.617  0.00  0.00    +0.000 A 
ATOM     12  C   UNL     1       3.424   7.083  17.781  0.00  0.00    +0.000 A 
ENDROOT
BRANCH   1  17
ATOM     13  C   UNL     1      -0.192  11.633  19.050  0.00  0.00    +0.000 A 
ATOM     14  C   UNL     1       1.024  12.089  19.566  0.00  0.00    +0.000 A 
ATOM     15  C   UNL     1       1.389  13.103  20.590  0.00  0.00    +0.000 C 
ATOM     16  N   UNL     1       2.032  11.358  18.984  0.00  0.00    +0.000 N 
ATOM     17  C   UNL     1       1.510  10.315  18.275  0.00  0.00    +0.000 A 
ATOM     18  C   UNL     1       0.133  10.417  18.325  0.00  0.00    +0.000 A 
ATOM     19  C   UNL     1      -0.834   9.412  17.794  0.00  0.00    +0.000 C 
ATOM     20  H   UNL     1       3.017  11.487  19.176  0.00  0.00    +0.000 HD
BRANCH  13  22
ATOM     21  N   UNL     1      -2.044  12.288  20.621  0.00  0.00    +0.000 N 
ATOM     22  C   UNL     1      -1.567  12.117  19.301  0.00  0.00    +0.000 C 
ATOM     23  O   UNL     1      -2.282  12.424  18.345  0.00  0.00    +0.000 OA
BRANCH  21  25
ATOM     24  C   UNL     1      -3.712  14.087  21.032  0.00  0.00    +0.000 C 
ATOM     25  C   UNL     1      -3.467  12.611  20.759  0.00  0.00    +0.000 C 
ENDBRANCH  21  25
BRANCH  21  26
ATOM     26  C   UNL     1      -1.288  11.978  21.831  0.00  0.00    +0.000 C 
ATOM     27  C   UNL     1      -2.065  11.581  23.075  0.00  0.00    +0.000 C 
ENDBRANCH  21  26
ENDBRANCH  13  22
ENDBRANCH   1  17
BRANCH   5  28
ATOM     28  C   UNL     1       2.115   5.553  20.885  0.00  0.00    +0.000 C 
BRANCH  28  29
ATOM     29  C   UNL     1       1.032   4.534  20.510  0.00  0.00    +0.000 C 
BRANCH  29  30
ATOM     30  C   UNL     1       1.309   3.110  21.006  0.00  0.00    +0.000 C 
BRANCH  30  31
ATOM     31  N   UNL     1       1.611   2.145  19.933  0.00  0.00    +0.000 NA
ATOM     32  C   UNL     1       0.970   2.498  18.668  0.00  0.00    +0.000 C 
ATOM     33  C   UNL     1       3.060   2.029  19.751  0.00  0.00    +0.000 C 
ENDBRANCH  30  31
ENDBRANCH  29  30
ENDBRANCH  28  29
ENDBRANCH   5  28
TORSDOF 8
ENDMDL
MODEL 5
REMARK VINA RESULT:      -6.2      1.271      2.001
REMARK  Name = 
REMARK  14 active torsions:
REMARK  status: ('A' for Active; 'I' for Inactive)
REMARK    1  A    between atoms: C_1  and  C_2
REMARK    2  A    between atoms: C_2  and  N_3
REMARK    3  A    between atoms: N_3  and  C_4
REMARK    4  A    between atoms: C_4  and  C_5
REMARK    5  A    between atoms: C_6  and  C_8
REMARK    6  A    between atoms: C_9  and  C_10
REMARK    7  A    between atoms: C_12  and  C_13
REMARK    8  A    between atoms: N_17  and  C_18
REMARK    9  A    between atoms: C_18  and  C_19
REMARK   10  A    between atoms: C_19  and  C_20
REMARK   11  A    between atoms: C_20  and  N_21
REMARK   12  A    between atoms: N_21  and  C_22
REMARK   13  A    between atoms: N_21  and  C_23
REMARK   14  A    between atoms: C_31  and  C_32
REMARK                            x       y       z     vdW  Elec       q    Type
REMARK                         _______ _______ _______ _____ _____    ______ ____
ROOT
ATOM      1  C   UNL     1       1.714   9.307  18.380  0.00  0.00    +0.000 C 
ATOM      2  C   UNL     1       2.122   8.121  18.857  0.00  0.00    +0.000 C 
ATOM      3  C   UNL     1       1.656   7.444  20.124  0.00  0.00    +0.000 C 
ATOM      4  O   UNL     1       0.916   7.882  20.982  0.00  0.00    +0.000 OA
ATOM      5  N   UNL     1       2.295   6.205  20.116  0.00  0.00    +0.000 N 
ATOM      6  C   UNL     1       3.132   6.061  18.996  0.00  0.00    +0.000 A 
ATOM      7  C   UNL     1       3.929   4.989  18.641  0.00  0.00    +0.000 A 
ATOM      8  C   UNL     1       4.658   5.074  17.453  0.00  0.00    +0.000 A 
ATOM      9  C   UNL     1       4.591   6.228  16.657  0.00  0.00    +0.000 A 
ATOM     10 CL   UNL     1       5.505   6.301  15.200  0.00  0.00    +0.000 Cl
ATOM     11  C   UNL     1       3.795   7.316  17.023  0.00  0.00    +0.000 A 
ATOM     12  C   UNL     1       3.066   7.216  18.196  0.00  0.00    +0.000 A 
ENDROOT
BRANCH   1  17
ATOM     13  C   UNL     1      -1.131  11.208  19.759  0.00  0.00    +0.000 A 
ATOM     14  C   UNL     1      -0.227  11.047  20.811  0.00  0.00    +0.000 A 
ATOM     15  C   UNL     1      -0.293  11.314  22.272  0.00  0.00    +0.000 C 
ATOM     16  N   UNL     1       0.914  10.469  20.306  0.00  0.00    +0.000 N 
ATOM     17  C   UNL     1       0.707  10.063  19.020  0.00  0.00    +0.000 A 
ATOM     18  C   UNL     1      -0.565  10.458  18.650  0.00  0.00    +0.000 A 
ATOM     19  C   UNL     1      -1.250  10.106  17.373  0.00  0.00    +0.000 C 
ATOM     20  H   UNL     1       1.734  10.246  20.854  0.00  0.00    +0.000 HD
BRANCH  13  22
ATOM     21  N   UNL     1      -2.658  13.164  20.172  0.00  0.00    +0.000 N 
ATOM     22  C   UNL     1      -2.475  11.827  19.752  0.00  0.00    +0.000 C 
ATOM     23  O   UNL     1      -3.434  11.181  19.324  0.00  0.00    +0.000 OA
BRANCH  21  25
ATOM     24  C   UNL     1      -4.157  15.002  20.921  0.00  0.00    +0.000 C 
ATOM     25  C   UNL     1      -4.045  13.625  20.284  0.00  0.00    +0.000 C 
ENDBRANCH  21  25
BRANCH  21  26
ATOM     26  C   UNL     1      -1.600  14.034  20.681  0.00  0.00    +0.000 C 
ATOM     27  C   UNL     1      -0.688  14.712  19.673  0.00  0.00    +0.000 C 
ENDBRANCH  21  26
ENDBRANCH  13  22
ENDBRANCH   1  17
BRANCH   5  28
ATOM     28  C   UNL     1       2.049   5.205  21.130  0.00  0.00    +0.000 C 
BRANCH  28  29
ATOM     29  C   UNL     1       1.143   4.066  20.646  0.00  0.00    +0.000 C 
BRANCH  29  30
ATOM     30  C   UNL     1       1.791   2.678  20.706  0.00  0.00    +0.000 C 
BRANCH  30  31
ATOM     31  N   UNL     1       1.755   1.940  19.430  0.00  0.00    +0.000 NA
ATOM     32  C   UNL     1       0.997   2.646  18.398  0.00  0.00    +0.000 C 
ATOM     33  C   UNL     1       3.117   1.672  18.962  0.00  0.00    +0.000 C 
ENDBRANCH  30  31
ENDBRANCH  29  30
ENDBRANCH  28  29
ENDBRANCH   5  28
TORSDOF 8
ENDMDL
MODEL 6
REMARK VINA RESULT:      -6.1      1.341      1.680
REMARK  Name = 
REMARK  14 active torsions:
REMARK  status: ('A' for Active; 'I' for Inactive)
REMARK    1  A    between atoms: C_1  and  C_2
REMARK    2  A    between atoms: C_2  and  N_3
REMARK    3  A    between atoms: N_3  and  C_4
REMARK    4  A    between atoms: C_4  and  C_5
REMARK    5  A    between atoms: C_6  and  C_8
REMARK    6  A    between atoms: C_9  and  C_10
REMARK    7  A    between atoms: C_12  and  C_13
REMARK    8  A    between atoms: N_17  and  C_18
REMARK    9  A    between atoms: C_18  and  C_19
REMARK   10  A    between atoms: C_19  and  C_20
REMARK   11  A    between atoms: C_20  and  N_21
REMARK   12  A    between atoms: N_21  and  C_22
REMARK   13  A    between atoms: N_21  and  C_23
REMARK   14  A    between atoms: C_31  and  C_32
REMARK                            x       y       z     vdW  Elec       q    Type
REMARK                         _______ _______ _______ _____ _____    ______ ____
ROOT
ATOM      1  C   UNL     1       2.536   9.225  17.529  0.00  0.00    +0.000 C 
ATOM      2  C   UNL     1       2.770   8.074  18.176  0.00  0.00    +0.000 C 
ATOM      3  C   UNL     1       2.168   7.634  19.489  0.00  0.00    +0.000 C 
ATOM      4  O   UNL     1       1.452   8.268  20.238  0.00  0.00    +0.000 OA
ATOM      5  N   UNL     1       2.645   6.337  19.678  0.00  0.00    +0.000 N 
ATOM      6  C   UNL     1       3.504   5.945  18.637  0.00  0.00    +0.000 A 
ATOM      7  C   UNL     1       4.174   4.748  18.470  0.00  0.00    +0.000 A 
ATOM      8  C   UNL     1       4.959   4.585  17.327  0.00  0.00    +0.000 A 
ATOM      9  C   UNL     1       5.073   5.622  16.388  0.00  0.00    +0.000 A 
ATOM     10 CL   UNL     1       6.052   5.389  14.990  0.00  0.00    +0.000 Cl
ATOM     11  C   UNL     1       4.406   6.836  16.564  0.00  0.00    +0.000 A 
ATOM     12  C   UNL     1       3.620   6.982  17.694  0.00  0.00    +0.000 A 
ENDROOT
BRANCH   1  17
ATOM     13  C   UNL     1       0.363  11.963  18.708  0.00  0.00    +0.000 A 
ATOM     14  C   UNL     1      -0.468  10.852  18.546  0.00  0.00    +0.000 A 
ATOM     15  C   UNL     1      -1.941  10.657  18.581  0.00  0.00    +0.000 C 
ATOM     16  N   UNL     1       0.325   9.770  18.247  0.00  0.00    +0.000 N 
ATOM     17  C   UNL     1       1.606  10.176  18.005  0.00  0.00    +0.000 A 
ATOM     18  C   UNL     1       1.668  11.537  18.234  0.00  0.00    +0.000 A 
ATOM     19  C   UNL     1       2.847  12.412  17.964  0.00  0.00    +0.000 C 
ATOM     20  H   UNL     1      -0.021   8.833  18.085  0.00  0.00    +0.000 HD
BRANCH  13  22
ATOM     21  N   UNL     1       0.562  13.934  20.258  0.00  0.00    +0.000 N 
ATOM     22  C   UNL     1       0.022  13.352  19.089  0.00  0.00    +0.000 C 
ATOM     23  O   UNL     1      -0.698  14.022  18.346  0.00  0.00    +0.000 OA
BRANCH  21  25
ATOM     24  C   UNL     1       0.914  16.394  20.155  0.00  0.00    +0.000 C 
ATOM     25  C   UNL     1       0.033  15.249  20.632  0.00  0.00    +0.000 C 
ENDBRANCH  21  25
BRANCH  21  26
ATOM     26  C   UNL     1       1.439  13.251  21.205  0.00  0.00    +0.000 C 
ATOM     27  C   UNL     1       2.901  13.663  21.249  0.00  0.00    +0.000 C 
ENDBRANCH  21  26
ENDBRANCH  13  22
ENDBRANCH   1  17
BRANCH   5  28
ATOM     28  C   UNL     1       2.230   5.519  20.794  0.00  0.00    +0.000 C 
BRANCH  28  29
ATOM     29  C   UNL     1       0.943   4.731  20.520  0.00  0.00    +0.000 C 
BRANCH  29  30
ATOM     30  C   UNL     1       1.113   3.208  20.578  0.00  0.00    +0.000 C 
BRANCH  30  31
ATOM     31  N   UNL     1       2.440   2.732  20.148  0.00  0.00    +0.000 NA
ATOM     32  C   UNL     1       3.207   2.148  21.248  0.00  0.00    +0.000 C 
ATOM     33  C   UNL     1       2.302   1.763  19.059  0.00  0.00    +0.000 C 
ENDBRANCH  30  31
ENDBRANCH  29  30
ENDBRANCH  28  29
ENDBRANCH   5  28
TORSDOF 8
ENDMDL
MODEL 7
REMARK VINA RESULT:      -6.1      2.579      4.078
REMARK  Name = 
REMARK  14 active torsions:
REMARK  status: ('A' for Active; 'I' for Inactive)
REMARK    1  A    between atoms: C_1  and  C_2
REMARK    2  A    between atoms: C_2  and  N_3
REMARK    3  A    between atoms: N_3  and  C_4
REMARK    4  A    between atoms: C_4  and  C_5
REMARK    5  A    between atoms: C_6  and  C_8
REMARK    6  A    between atoms: C_9  and  C_10
REMARK    7  A    between atoms: C_12  and  C_13
REMARK    8  A    between atoms: N_17  and  C_18
REMARK    9  A    between atoms: C_18  and  C_19
REMARK   10  A    between atoms: C_19  and  C_20
REMARK   11  A    between atoms: C_20  and  N_21
REMARK   12  A    between atoms: N_21  and  C_22
REMARK   13  A    between atoms: N_21  and  C_23
REMARK   14  A    between atoms: C_31  and  C_32
REMARK                            x       y       z     vdW  Elec       q    Type
REMARK                         _______ _______ _______ _____ _____    ______ ____
ROOT
ATOM      1  C   UNL     1       0.802   7.486  20.926  0.00  0.00    +0.000 C 
ATOM      2  C   UNL     1       1.652   6.936  20.045  0.00  0.00    +0.000 C 
ATOM      3  C   UNL     1       2.318   7.625  18.878  0.00  0.00    +0.000 C 
ATOM      4  O   UNL     1       2.137   8.753  18.467  0.00  0.00    +0.000 OA
ATOM      5  N   UNL     1       3.174   6.661  18.343  0.00  0.00    +0.000 N 
ATOM      6  C   UNL     1       3.078   5.442  19.037  0.00  0.00    +0.000 A 
ATOM      7  C   UNL     1       3.755   4.259  18.807  0.00  0.00    +0.000 A 
ATOM      8  C   UNL     1       3.505   3.181  19.658  0.00  0.00    +0.000 A 
ATOM      9  C   UNL     1       2.577   3.299  20.704  0.00  0.00    +0.000 A 
ATOM     10 CL   UNL     1       2.291   1.949  21.734  0.00  0.00    +0.000 Cl
ATOM     11  C   UNL     1       1.885   4.492  20.928  0.00  0.00    +0.000 A 
ATOM     12  C   UNL     1       2.149   5.558  20.087  0.00  0.00    +0.000 A 
ENDROOT
BRANCH   1  17
ATOM     13  C   UNL     1       0.153  11.113  21.110  0.00  0.00    +0.000 A 
ATOM     14  C   UNL     1      -0.350  10.692  19.877  0.00  0.00    +0.000 A 
ATOM     15  C   UNL     1      -0.872  11.407  18.683  0.00  0.00    +0.000 C 
ATOM     16  N   UNL     1      -0.260   9.321  19.828  0.00  0.00    +0.000 N 
ATOM     17  C   UNL     1       0.468   8.858  20.886  0.00  0.00    +0.000 A 
ATOM     18  C   UNL     1       0.786   9.938  21.686  0.00  0.00    +0.000 A 
ATOM     19  C   UNL     1       1.684   9.905  22.878  0.00  0.00    +0.000 C 
ATOM     20  H   UNL     1      -0.562   8.755  19.046  0.00  0.00    +0.000 HD
BRANCH  13  22
ATOM     21  N   UNL     1      -0.788  12.961  22.533  0.00  0.00    +0.000 N 
ATOM     22  C   UNL     1       0.233  12.474  21.685  0.00  0.00    +0.000 C 
ATOM     23  O   UNL     1       1.228  13.166  21.461  0.00  0.00    +0.000 OA
BRANCH  21  25
ATOM     24  C   UNL     1      -1.382  14.673  24.238  0.00  0.00    +0.000 C 
ATOM     25  C   UNL     1      -0.696  14.374  22.913  0.00  0.00    +0.000 C 
ENDBRANCH  21  25
BRANCH  21  26
ATOM     26  C   UNL     1      -2.003  12.231  22.887  0.00  0.00    +0.000 C 
ATOM     27  C   UNL     1      -3.245  12.466  22.045  0.00  0.00    +0.000 C 
ENDBRANCH  21  26
ENDBRANCH  13  22
ENDBRANCH   1  17
BRANCH   5  28
ATOM     28  C   UNL     1       4.068   6.950  17.246  0.00  0.00    +0.000 C 
BRANCH  28  29
ATOM     29  C   UNL     1       5.520   7.159  17.691  0.00  0.00    +0.000 C 
BRANCH  29  30
ATOM     30  C   UNL     1       6.564   6.579  16.727  0.00  0.00    +0.000 C 
BRANCH  30  31
ATOM     31  N   UNL     1       7.661   5.852  17.392  0.00  0.00    +0.000 NA
ATOM     32  C   UNL     1       7.832   6.254  18.787  0.00  0.00    +0.000 C 
ATOM     33  C   UNL     1       7.436   4.407  17.307  0.00  0.00    +0.000 C 
ENDBRANCH  30  31
ENDBRANCH  29  30
ENDBRANCH  28  29
ENDBRANCH   5  28
TORSDOF 8
ENDMDL
MODEL 8
REMARK VINA RESULT:      -6.0      3.209      8.859
REMARK  Name = 
REMARK  14 active torsions:
REMARK  status: ('A' for Active; 'I' for Inactive)
REMARK    1  A    between atoms: C_1  and  C_2
REMARK    2  A    between atoms: C_2  and  N_3
REMARK    3  A    between atoms: N_3  and  C_4
REMARK    4  A    between atoms: C_4  and  C_5
REMARK    5  A    between atoms: C_6  and  C_8
REMARK    6  A    between atoms: C_9  and  C_10
REMARK    7  A    between atoms: C_12  and  C_13
REMARK    8  A    between atoms: N_17  and  C_18
REMARK    9  A    between atoms: C_18  and  C_19
REMARK   10  A    between atoms: C_19  and  C_20
REMARK   11  A    between atoms: C_20  and  N_21
REMARK   12  A    between atoms: N_21  and  C_22
REMARK   13  A    between atoms: N_21  and  C_23
REMARK   14  A    between atoms: C_31  and  C_32
REMARK                            x       y       z     vdW  Elec       q    Type
REMARK                         _______ _______ _______ _____ _____    ______ ____
ROOT
ATOM      1  C   UNL     1       1.544   9.338  20.208  0.00  0.00    +0.000 C 
ATOM      2  C   UNL     1       0.622  10.069  19.565  0.00  0.00    +0.000 C 
ATOM      3  C   UNL     1      -0.161   9.665  18.338  0.00  0.00    +0.000 C 
ATOM      4  O   UNL     1      -0.034   8.665  17.660  0.00  0.00    +0.000 OA
ATOM      5  N   UNL     1      -1.051  10.718  18.126  0.00  0.00    +0.000 N 
ATOM      6  C   UNL     1      -0.875  11.743  19.073  0.00  0.00    +0.000 A 
ATOM      7  C   UNL     1      -1.555  12.940  19.190  0.00  0.00    +0.000 A 
ATOM      8  C   UNL     1      -1.212  13.793  20.241  0.00  0.00    +0.000 A 
ATOM      9  C   UNL     1      -0.190  13.443  21.137  0.00  0.00    +0.000 A 
ATOM     10 CL   UNL     1       0.209  14.519  22.420  0.00  0.00    +0.000 Cl
ATOM     11  C   UNL     1       0.505  12.239  21.010  0.00  0.00    +0.000 A 
ATOM     12  C   UNL     1       0.148  11.395  19.973  0.00  0.00    +0.000 A 
ENDROOT
BRANCH   1  17
ATOM     13  C   UNL     1       2.537   6.034  18.902  0.00  0.00    +0.000 A 
ATOM     14  C   UNL     1       2.084   5.815  20.205  0.00  0.00    +0.000 A 
ATOM     15  C   UNL     1       2.108   4.641  21.117  0.00  0.00    +0.000 C 
ATOM     16  N   UNL     1       1.568   6.998  20.679  0.00  0.00    +0.000 N 
ATOM     17  C   UNL     1       1.857   8.017  19.818  0.00  0.00    +0.000 A 
ATOM     18  C   UNL     1       2.499   7.475  18.721  0.00  0.00    +0.000 A 
ATOM     19  C   UNL     1       3.107   8.247  17.599  0.00  0.00    +0.000 C 
ATOM     20  H   UNL     1       1.165   7.119  21.599  0.00  0.00    +0.000 HD
BRANCH  13  22
ATOM     21  N   UNL     1       4.523   4.986  17.769  0.00  0.00    +0.000 N 
ATOM     22  C   UNL     1       3.123   5.083  17.931  0.00  0.00    +0.000 C 
ATOM     23  O   UNL     1       2.378   4.332  17.298  0.00  0.00    +0.000 OA
BRANCH  21  25
ATOM     24  C   UNL     1       5.382   4.937  15.435  0.00  0.00    +0.000 C 
ATOM     25  C   UNL     1       4.992   4.138  16.669  0.00  0.00    +0.000 C 
ENDBRANCH  21  25
BRANCH  21  26
ATOM     26  C   UNL     1       5.507   5.806  18.473  0.00  0.00    +0.000 C 
ATOM     27  C   UNL     1       6.836   5.168  18.838  0.00  0.00    +0.000 C 
ENDBRANCH  21  26
ENDBRANCH  13  22
ENDBRANCH   1  17
BRANCH   5  28
ATOM     28  C   UNL     1      -2.049  10.684  17.082  0.00  0.00    +0.000 C 
BRANCH  28  29
ATOM     29  C   UNL     1      -3.465  10.425  17.610  0.00  0.00    +0.000 C 
BRANCH  29  30
ATOM     30  C   UNL     1      -4.558  11.243  16.911  0.00  0.00    +0.000 C 
BRANCH  30  31
ATOM     31  N   UNL     1      -5.538  11.851  17.829  0.00  0.00    +0.000 NA
ATOM     32  C   UNL     1      -6.424  12.797  17.153  0.00  0.00    +0.000 C 
ATOM     33  C   UNL     1      -6.324  10.808  18.492  0.00  0.00    +0.000 C 
ENDBRANCH  30  31
ENDBRANCH  29  30
ENDBRANCH  28  29
ENDBRANCH   5  28
TORSDOF 8
ENDMDL
MODEL 9
REMARK VINA RESULT:      -5.9      4.124      7.283
REMARK  Name = 
REMARK  14 active torsions:
REMARK  status: ('A' for Active; 'I' for Inactive)
REMARK    1  A    between atoms: C_1  and  C_2
REMARK    2  A    between atoms: C_2  and  N_3
REMARK    3  A    between atoms: N_3  and  C_4
REMARK    4  A    between atoms: C_4  and  C_5
REMARK    5  A    between atoms: C_6  and  C_8
REMARK    6  A    between atoms: C_9  and  C_10
REMARK    7  A    between atoms: C_12  and  C_13
REMARK    8  A    between atoms: N_17  and  C_18
REMARK    9  A    between atoms: C_18  and  C_19
REMARK   10  A    between atoms: C_19  and  C_20
REMARK   11  A    between atoms: C_20  and  N_21
REMARK   12  A    between atoms: N_21  and  C_22
REMARK   13  A    between atoms: N_21  and  C_23
REMARK   14  A    between atoms: C_31  and  C_32
REMARK                            x       y       z     vdW  Elec       q    Type
REMARK                         _______ _______ _______ _____ _____    ______ ____
ROOT
ATOM      1  C   UNL     1      -0.789  11.131  22.236  0.00  0.00    +0.000 C 
ATOM      2  C   UNL     1      -0.919  10.957  20.913  0.00  0.00    +0.000 C 
ATOM      3  C   UNL     1      -1.888  11.666  19.996  0.00  0.00    +0.000 C 
ATOM      4  O   UNL     1      -2.780  12.435  20.294  0.00  0.00    +0.000 OA
ATOM      5  N   UNL     1      -1.558  11.213  18.718  0.00  0.00    +0.000 N 
ATOM      6  C   UNL     1      -0.512  10.276  18.755  0.00  0.00    +0.000 A 
ATOM      7  C   UNL     1       0.086   9.603  17.707  0.00  0.00    +0.000 A 
ATOM      8  C   UNL     1       1.136   8.730  17.997  0.00  0.00    +0.000 A 
ATOM      9  C   UNL     1       1.554   8.534  19.323  0.00  0.00    +0.000 A 
ATOM     10 CL   UNL     1       2.851   7.448  19.646  0.00  0.00    +0.000 Cl
ATOM     11  C   UNL     1       0.941   9.205  20.383  0.00  0.00    +0.000 A 
ATOM     12  C   UNL     1      -0.090  10.078  20.083  0.00  0.00    +0.000 A 
ENDROOT
BRANCH   1  17
ATOM     13  C   UNL     1      -2.530  13.889  23.960  0.00  0.00    +0.000 A 
ATOM     14  C   UNL     1      -3.407  12.802  23.986  0.00  0.00    +0.000 A 
ATOM     15  C   UNL     1      -4.832  12.641  24.377  0.00  0.00    +0.000 C 
ATOM     16  N   UNL     1      -2.742  11.709  23.483  0.00  0.00    +0.000 N 
ATOM     17  C   UNL     1      -1.548  12.091  22.942  0.00  0.00    +0.000 A 
ATOM     18  C   UNL     1      -1.393  13.444  23.173  0.00  0.00    +0.000 A 
ATOM     19  C   UNL     1      -0.292  14.298  22.639  0.00  0.00    +0.000 C 
ATOM     20  H   UNL     1      -3.143  10.785  23.394  0.00  0.00    +0.000 HD
BRANCH  13  22
ATOM     21  N   UNL     1      -3.283  16.260  23.589  0.00  0.00    +0.000 N 
ATOM     22  C   UNL     1      -2.728  15.276  24.438  0.00  0.00    +0.000 C 
ATOM     23  O   UNL     1      -2.452  15.555  25.606  0.00  0.00    +0.000 OA
BRANCH  21  25
ATOM     24  C   UNL     1      -4.682  18.206  24.254  0.00  0.00    +0.000 C 
ATOM     25  C   UNL     1      -3.281  17.634  24.102  0.00  0.00    +0.000 C 
ENDBRANCH  21  25
BRANCH  21  26
ATOM     26  C   UNL     1      -3.664  16.047  22.195  0.00  0.00    +0.000 C 
ATOM     27  C   UNL     1      -5.046  15.483  21.913  0.00  0.00    +0.000 C 
ENDBRANCH  21  26
ENDBRANCH  13  22
ENDBRANCH   1  17
BRANCH   5  28
ATOM     28  C   UNL     1      -2.206  11.721  17.531  0.00  0.00    +0.000 C 
BRANCH  28  29
ATOM     29  C   UNL     1      -3.439  10.906  17.121  0.00  0.00    +0.000 C 
BRANCH  29  30
ATOM     30  C   UNL     1      -4.653  11.756  16.727  0.00  0.00    +0.000 C 
BRANCH  30  31
ATOM     31  N   UNL     1      -5.614  11.980  17.822  0.00  0.00    +0.000 NA
ATOM     32  C   UNL     1      -6.843  12.627  17.364  0.00  0.00    +0.000 C 
ATOM     33  C   UNL     1      -5.928  10.712  18.486  0.00  0.00    +0.000 C 
ENDBRANCH  30  31
ENDBRANCH  29  30
ENDBRANCH  28  29
ENDBRANCH   5  28
TORSDOF 8
ENDMDL
