MODEL 1
REMARK VINA RESULT:      -5.9      0.000      0.000
REMARK  Name = 
REMARK  13 active torsions:
REMARK  status: ('A' for Active; 'I' for Inactive)
REMARK    1  A    between atoms: C_1  and  C_2
REMARK    2  A    between atoms: C_2  and  C_3
REMARK    3  A    between atoms: C_3  and  C_4
REMARK    4  A    between atoms: C_4  and  C_5
REMARK    5  A    between atoms: C_5  and  C_6
REMARK    6  A    between atoms: C_6  and  C_7
REMARK    7  A    between atoms: C_7  and  C_8
REMARK    8  A    between atoms: C_8  and  C_9
REMARK    9  A    between atoms: C_9  and  C_27
REMARK   10  A    between atoms: C_10  and  C_11
REMARK   11  A    between atoms: C_10  and  C_17
REMARK   12  A    between atoms: C_20  and  S_21
REMARK   13  A    between atoms: S_21  and  C_22
REMARK                            x       y       z     vdW  Elec       q    Type
REMARK                         _______ _______ _______ _____ _____    ______ ____
ROOT
ATOM      1  C   UNL     1      -0.108  12.441  18.538  0.00  0.00    +0.000 C 
ATOM      2  C   UNL     1       1.100  11.985  18.962  0.00  0.00    +0.000 C 
ENDROOT
BRANCH   2   3
ATOM      3  C   UNL     1       2.208  12.895  19.364  0.00  0.00    +0.000 A 
ATOM      4  C   UNL     1       2.974  13.549  18.387  0.00  0.00    +0.000 A 
ATOM      5  C   UNL     1       3.887  14.546  18.747  0.00  0.00    +0.000 A 
ATOM      6  C   UNL     1       4.049  14.894  20.088  0.00  0.00    +0.000 A 
ATOM      7  C   UNL     1       3.314  14.235  21.070  0.00  0.00    +0.000 A 
ATOM      8  C   UNL     1       2.394  13.243  20.710  0.00  0.00    +0.000 A 
ENDBRANCH   2   3
BRANCH   2   9
ATOM      9  C   UNL     1       1.375  10.517  18.997  0.00  0.00    +0.000 A 
ATOM     10  C   UNL     1       2.030   9.930  17.906  0.00  0.00    +0.000 A 
ATOM     11  C   UNL     1       2.369   8.579  17.921  0.00  0.00    +0.000 A 
ATOM     12  C   UNL     1       2.058   7.809  19.045  0.00  0.00    +0.000 A 
ATOM     13  C   UNL     1       1.380   8.371  20.132  0.00  0.00    +0.000 A 
ATOM     14  C   UNL     1       1.046   9.728  20.109  0.00  0.00    +0.000 A 
BRANCH  12  15
ATOM     15  S   UNL     1       2.522   6.094  19.074  0.00  0.00    +0.000 S 
ATOM     16  C   UNL     1       1.764   5.499  20.565  0.00  0.00    +0.000 C 
ATOM     17  O   UNL     1       1.877   5.442  17.950  0.00  0.00    +0.000 OA
ATOM     18  O   UNL     1       3.960   6.029  19.247  0.00  0.00    +0.000 OA
ENDBRANCH  12  15
ENDBRANCH   2   9
BRANCH   1  19
ATOM     19  C   UNL     1      -1.227  11.491  18.284  0.00  0.00    +0.000 A 
ATOM     20  C   UNL     1      -1.133  10.553  17.243  0.00  0.00    +0.000 A 
ATOM     21  C   UNL     1      -2.213   9.717  16.943  0.00  0.00    +0.000 A 
ATOM     22  C   UNL     1      -3.385   9.800  17.692  0.00  0.00    +0.000 A 
ATOM     23  C   UNL     1      -3.471  10.702  18.752  0.00  0.00    +0.000 A 
ATOM     24  C   UNL     1      -2.395  11.542  19.050  0.00  0.00    +0.000 A 
ENDBRANCH   1  19
BRANCH   1  25
ATOM     25  C   UNL     1      -0.535  13.890  18.352  0.00  0.00    +0.000 C 
BRANCH  25  26
ATOM     26  C   UNL     1      -0.498  14.818  19.572  0.00  0.00    +0.000 C 
BRANCH  26  27
ATOM     27  C   UNL     1      -1.657  14.724  20.574  0.00  0.00    +0.000 C 
BRANCH  27  28
ATOM     28  C   UNL     1      -1.150  13.961  21.807  0.00  0.00    +0.000 C 
BRANCH  28  29
ATOM     29  C   UNL     1      -2.250  13.541  22.777  0.00  0.00    +0.000 C 
BRANCH  29  30
ATOM     30  C   UNL     1      -2.267  12.015  22.929  0.00  0.00    +0.000 C 
BRANCH  30  32
ATOM     31  C   UNL     1      -0.693  10.057  23.171  0.00  0.00    +0.000 C 
ATOM     32  C   UNL     1      -0.931  11.405  22.512  0.00  0.00    +0.000 C 
ENDBRANCH  30  32
ENDBRANCH  29  30
ENDBRANCH  28  29
ENDBRANCH  27  28
ENDBRANCH  26  27
ENDBRANCH  25  26
ENDBRANCH   1  25
TORSDOF 11
ENDMDL
MODEL 2
REMARK VINA RESULT:      -5.8      4.397      7.604
REMARK  Name = 
REMARK  13 active torsions:
REMARK  status: ('A' for Active; 'I' for Inactive)
REMARK    1  A    between atoms: C_1  and  C_2
REMARK    2  A    between atoms: C_2  and  C_3
REMARK    3  A    between atoms: C_3  and  C_4
REMARK    4  A    between atoms: C_4  and  C_5
REMARK    5  A    between atoms: C_5  and  C_6
REMARK    6  A    between atoms: C_6  and  C_7
REMARK    7  A    between atoms: C_7  and  C_8
REMARK    8  A    between atoms: C_8  and  C_9
REMARK    9  A    between atoms: C_9  and  C_27
REMARK   10  A    between atoms: C_10  and  C_11
REMARK   11  A    between atoms: C_10  and  C_17
REMARK   12  A    between atoms: C_20  and  S_21
REMARK   13  A    between atoms: S_21  and  C_22
REMARK                            x       y       z     vdW  Elec       q    Type
REMARK                         _______ _______ _______ _____ _____    ______ ____
ROOT
ATOM      1  C   UNL     1      -0.562  13.744  22.015  0.00  0.00    +0.000 C 
ATOM      2  C   UNL     1      -1.296  12.612  22.176  0.00  0.00    +0.000 C 
ENDROOT
BRANCH   2   3
ATOM      3  C   UNL     1      -0.711  11.248  22.057  0.00  0.00    +0.000 A 
ATOM      4  C   UNL     1      -0.568  10.440  23.195  0.00  0.00    +0.000 A 
ATOM      5  C   UNL     1      -0.200   9.096  23.073  0.00  0.00    +0.000 A 
ATOM      6  C   UNL     1       0.038   8.549  21.811  0.00  0.00    +0.000 A 
ATOM      7  C   UNL     1      -0.075   9.347  20.676  0.00  0.00    +0.000 A 
ATOM      8  C   UNL     1      -0.452  10.689  20.797  0.00  0.00    +0.000 A 
ENDBRANCH   2   3
BRANCH   2   9
ATOM      9  C   UNL     1      -2.764  12.704  22.442  0.00  0.00    +0.000 A 
ATOM     10  C   UNL     1      -3.646  12.687  21.352  0.00  0.00    +0.000 A 
ATOM     11  C   UNL     1      -5.025  12.702  21.552  0.00  0.00    +0.000 A 
ATOM     12  C   UNL     1      -5.526  12.723  22.856  0.00  0.00    +0.000 A 
ATOM     13  C   UNL     1      -4.662  12.768  23.954  0.00  0.00    +0.000 A 
ATOM     14  C   UNL     1      -3.280  12.750  23.745  0.00  0.00    +0.000 A 
BRANCH  12  15
ATOM     15  S   UNL     1      -7.285  12.708  23.107  0.00  0.00    +0.000 S 
ATOM     16  C   UNL     1      -7.545  14.078  24.205  0.00  0.00    +0.000 C 
ATOM     17  O   UNL     1      -7.916  13.023  21.838  0.00  0.00    +0.000 OA
ATOM     18  O   UNL     1      -7.619  11.492  23.822  0.00  0.00    +0.000 OA
ENDBRANCH  12  15
ENDBRANCH   2   9
BRANCH   1  19
ATOM     19  C   UNL     1      -1.165  15.080  22.286  0.00  0.00    +0.000 A 
ATOM     20  C   UNL     1      -1.095  15.637  23.574  0.00  0.00    +0.000 A 
ATOM     21  C   UNL     1      -1.733  16.847  23.857  0.00  0.00    +0.000 A 
ATOM     22  C   UNL     1      -2.428  17.518  22.853  0.00  0.00    +0.000 A 
ATOM     23  C   UNL     1      -2.468  16.991  21.562  0.00  0.00    +0.000 A 
ATOM     24  C   UNL     1      -1.836  15.778  21.278  0.00  0.00    +0.000 A 
ENDBRANCH   1  19
BRANCH   1  25
ATOM     25  C   UNL     1       0.912  13.845  21.655  0.00  0.00    +0.000 C 
BRANCH  25  26
ATOM     26  C   UNL     1       1.323  13.586  20.200  0.00  0.00    +0.000 C 
BRANCH  26  27
ATOM     27  C   UNL     1       0.903  14.621  19.147  0.00  0.00    +0.000 C 
BRANCH  27  28
ATOM     28  C   UNL     1      -0.379  14.111  18.472  0.00  0.00    +0.000 C 
BRANCH  28  29
ATOM     29  C   UNL     1      -0.412  12.601  18.255  0.00  0.00    +0.000 C 
BRANCH  29  30
ATOM     30  C   UNL     1      -1.854  12.131  18.026  0.00  0.00    +0.000 C 
BRANCH  30  32
ATOM     31  C   UNL     1      -2.600  10.639  16.132  0.00  0.00    +0.000 C 
ATOM     32  C   UNL     1      -1.888  10.708  17.473  0.00  0.00    +0.000 C 
ENDBRANCH  30  32
ENDBRANCH  29  30
ENDBRANCH  28  29
ENDBRANCH  27  28
ENDBRANCH  26  27
ENDBRANCH  25  26
ENDBRANCH   1  25
TORSDOF 11
ENDMDL
MODEL 3
REMARK VINA RESULT:      -5.8      5.124      9.581
REMARK  Name = 
REMARK  13 active torsions:
REMARK  status: ('A' for Active; 'I' for Inactive)
REMARK    1  A    between atoms: C_1  and  C_2
REMARK    2  A    between atoms: C_2  and  C_3
REMARK    3  A    between atoms: C_3  and  C_4
REMARK    4  A    between atoms: C_4  and  C_5
REMARK    5  A    between atoms: C_5  and  C_6
REMARK    6  A    between atoms: C_6  and  C_7
REMARK    7  A    between atoms: C_7  and  C_8
REMARK    8  A    between atoms: C_8  and  C_9
REMARK    9  A    between atoms: C_9  and  C_27
REMARK   10  A    between atoms: C_10  and  C_11
REMARK   11  A    between atoms: C_10  and  C_17
REMARK   12  A    between atoms: C_20  and  S_21
REMARK   13  A    between atoms: S_21  and  C_22
REMARK                            x       y       z     vdW  Elec       q    Type
REMARK                         _______ _______ _______ _____ _____    ______ ____
ROOT
ATOM      1  C   UNL     1       4.259   4.175  18.116  0.00  0.00    +0.000 C 
ATOM      2  C   UNL     1       4.514   5.468  18.445  0.00  0.00    +0.000 C 
ENDROOT
BRANCH   2   3
ATOM      3  C   UNL     1       5.800   6.144  18.117  0.00  0.00    +0.000 A 
ATOM      4  C   UNL     1       5.843   7.137  17.126  0.00  0.00    +0.000 A 
ATOM      5  C   UNL     1       6.995   7.909  16.941  0.00  0.00    +0.000 A 
ATOM      6  C   UNL     1       8.118   7.691  17.739  0.00  0.00    +0.000 A 
ATOM      7  C   UNL     1       8.098   6.692  18.709  0.00  0.00    +0.000 A 
ATOM      8  C   UNL     1       6.943   5.925  18.901  0.00  0.00    +0.000 A 
ENDBRANCH   2   3
BRANCH   2   9
ATOM      9  C   UNL     1       3.501   6.262  19.205  0.00  0.00    +0.000 A 
ATOM     10  C   UNL     1       3.009   7.444  18.635  0.00  0.00    +0.000 A 
ATOM     11  C   UNL     1       2.015   8.182  19.274  0.00  0.00    +0.000 A 
ATOM     12  C   UNL     1       1.500   7.726  20.490  0.00  0.00    +0.000 A 
ATOM     13  C   UNL     1       1.997   6.563  21.087  0.00  0.00    +0.000 A 
ATOM     14  C   UNL     1       2.993   5.828  20.438  0.00  0.00    +0.000 A 
BRANCH  12  15
ATOM     15  S   UNL     1       0.208   8.652  21.284  0.00  0.00    +0.000 S 
ATOM     16  C   UNL     1      -0.244   9.848  20.053  0.00  0.00    +0.000 C 
ATOM     17  O   UNL     1      -0.920   7.760  21.481  0.00  0.00    +0.000 OA
ATOM     18  O   UNL     1       0.798   9.362  22.402  0.00  0.00    +0.000 OA
ENDBRANCH  12  15
ENDBRANCH   2   9
BRANCH   1  19
ATOM     19  C   UNL     1       2.906   3.592  18.340  0.00  0.00    +0.000 A 
ATOM     20  C   UNL     1       1.799   4.088  17.630  0.00  0.00    +0.000 A 
ATOM     21  C   UNL     1       0.515   3.608  17.897  0.00  0.00    +0.000 A 
ATOM     22  C   UNL     1       0.328   2.617  18.859  0.00  0.00    +0.000 A 
ATOM     23  C   UNL     1       1.427   2.093  19.540  0.00  0.00    +0.000 A 
ATOM     24  C   UNL     1       2.712   2.576  19.279  0.00  0.00    +0.000 A 
ENDBRANCH   1  19
BRANCH   1  25
ATOM     25  C   UNL     1       5.197   3.195  17.429  0.00  0.00    +0.000 C 
BRANCH  25  26
ATOM     26  C   UNL     1       5.504   3.406  15.941  0.00  0.00    +0.000 C 
BRANCH  26  27
ATOM     27  C   UNL     1       6.868   4.007  15.574  0.00  0.00    +0.000 C 
BRANCH  27  28
ATOM     28  C   UNL     1       6.722   4.708  14.215  0.00  0.00    +0.000 C 
BRANCH  28  29
ATOM     29  C   UNL     1       5.710   4.054  13.280  0.00  0.00    +0.000 C 
BRANCH  29  30
ATOM     30  C   UNL     1       6.430   3.417  12.084  0.00  0.00    +0.000 C 
BRANCH  30  32
ATOM     31  C   UNL     1       6.699   1.193  10.921  0.00  0.00    +0.000 C 
ATOM     32  C   UNL     1       5.745   2.121  11.657  0.00  0.00    +0.000 C 
ENDBRANCH  30  32
ENDBRANCH  29  30
ENDBRANCH  28  29
ENDBRANCH  27  28
ENDBRANCH  26  27
ENDBRANCH  25  26
ENDBRANCH   1  25
TORSDOF 11
ENDMDL
MODEL 4
REMARK VINA RESULT:      -5.7      4.805      9.290
REMARK  Name = 
REMARK  13 active torsions:
REMARK  status: ('A' for Active; 'I' for Inactive)
REMARK    1  A    between atoms: C_1  and  C_2
REMARK    2  A    between atoms: C_2  and  C_3
REMARK    3  A    between atoms: C_3  and  C_4
REMARK    4  A    between atoms: C_4  and  C_5
REMARK    5  A    between atoms: C_5  and  C_6
REMARK    6  A    between atoms: C_6  and  C_7
REMARK    7  A    between atoms: C_7  and  C_8
REMARK    8  A    between atoms: C_8  and  C_9
REMARK    9  A    between atoms: C_9  and  C_27
REMARK   10  A    between atoms: C_10  and  C_11
REMARK   11  A    between atoms: C_10  and  C_17
REMARK   12  A    between atoms: C_20  and  S_21
REMARK   13  A    between atoms: S_21  and  C_22
REMARK                            x       y       z     vdW  Elec       q    Type
REMARK                         _______ _______ _______ _____ _____    ______ ____
ROOT
ATOM      1  C   UNL     1       4.179   4.402  18.341  0.00  0.00    +0.000 C 
ATOM      2  C   UNL     1       4.419   5.735  18.463  0.00  0.00    +0.000 C 
ENDROOT
BRANCH   2   3
ATOM      3  C   UNL     1       5.737   6.349  18.144  0.00  0.00    +0.000 A 
ATOM      4  C   UNL     1       5.820   7.401  17.218  0.00  0.00    +0.000 A 
ATOM      5  C   UNL     1       7.014   8.110  17.051  0.00  0.00    +0.000 A 
ATOM      6  C   UNL     1       8.140   7.769  17.801  0.00  0.00    +0.000 A 
ATOM      7  C   UNL     1       8.079   6.711  18.704  0.00  0.00    +0.000 A 
ATOM      8  C   UNL     1       6.882   6.007  18.879  0.00  0.00    +0.000 A 
ENDBRANCH   2   3
BRANCH   2   9
ATOM      9  C   UNL     1       3.349   6.643  18.977  0.00  0.00    +0.000 A 
ATOM     10  C   UNL     1       2.861   6.438  20.276  0.00  0.00    +0.000 A 
ATOM     11  C   UNL     1       1.913   7.299  20.823  0.00  0.00    +0.000 A 
ATOM     12  C   UNL     1       1.457   8.383  20.069  0.00  0.00    +0.000 A 
ATOM     13  C   UNL     1       1.912   8.587  18.763  0.00  0.00    +0.000 A 
ATOM     14  C   UNL     1       2.865   7.720  18.221  0.00  0.00    +0.000 A 
BRANCH  12  15
ATOM     15  S   UNL     1       0.273   9.498  20.785  0.00  0.00    +0.000 S 
ATOM     16  C   UNL     1      -0.553   8.488  21.988  0.00  0.00    +0.000 C 
ATOM     17  O   UNL     1       1.008  10.530  21.492  0.00  0.00    +0.000 OA
ATOM     18  O   UNL     1      -0.688   9.842  19.755  0.00  0.00    +0.000 OA
ENDBRANCH  12  15
ENDBRANCH   2   9
BRANCH   1  19
ATOM     19  C   UNL     1       2.805   3.861  18.536  0.00  0.00    +0.000 A 
ATOM     20  C   UNL     1       2.520   3.039  19.639  0.00  0.00    +0.000 A 
ATOM     21  C   UNL     1       1.258   2.457  19.782  0.00  0.00    +0.000 A 
ATOM     22  C   UNL     1       0.267   2.706  18.835  0.00  0.00    +0.000 A 
ATOM     23  C   UNL     1       0.530   3.553  17.758  0.00  0.00    +0.000 A 
ATOM     24  C   UNL     1       1.793   4.131  17.610  0.00  0.00    +0.000 A 
ENDBRANCH   1  19
BRANCH   1  25
ATOM     25  C   UNL     1       5.165   3.322  17.923  0.00  0.00    +0.000 C 
BRANCH  25  26
ATOM     26  C   UNL     1       5.627   3.287  16.462  0.00  0.00    +0.000 C 
BRANCH  26  27
ATOM     27  C   UNL     1       4.810   4.087  15.437  0.00  0.00    +0.000 C 
BRANCH  27  28
ATOM     28  C   UNL     1       5.795   4.886  14.571  0.00  0.00    +0.000 C 
BRANCH  28  29
ATOM     29  C   UNL     1       6.849   4.032  13.875  0.00  0.00    +0.000 C 
BRANCH  29  30
ATOM     30  C   UNL     1       6.608   4.024  12.360  0.00  0.00    +0.000 C 
BRANCH  30  32
ATOM     31  C   UNL     1       4.350   3.252  11.538  0.00  0.00    +0.000 C 
ATOM     32  C   UNL     1       5.752   2.830  11.945  0.00  0.00    +0.000 C 
ENDBRANCH  30  32
ENDBRANCH  29  30
ENDBRANCH  28  29
ENDBRANCH  27  28
ENDBRANCH  26  27
ENDBRANCH  25  26
ENDBRANCH   1  25
TORSDOF 11
ENDMDL
MODEL 5
REMARK VINA RESULT:      -5.5      4.570      7.759
REMARK  Name = 
REMARK  13 active torsions:
REMARK  status: ('A' for Active; 'I' for Inactive)
REMARK    1  A    between atoms: C_1  and  C_2
REMARK    2  A    between atoms: C_2  and  C_3
REMARK    3  A    between atoms: C_3  and  C_4
REMARK    4  A    between atoms: C_4  and  C_5
REMARK    5  A    between atoms: C_5  and  C_6
REMARK    6  A    between atoms: C_6  and  C_7
REMARK    7  A    between atoms: C_7  and  C_8
REMARK    8  A    between atoms: C_8  and  C_9
REMARK    9  A    between atoms: C_9  and  C_27
REMARK   10  A    between atoms: C_10  and  C_11
REMARK   11  A    between atoms: C_10  and  C_17
REMARK   12  A    between atoms: C_20  and  S_21
REMARK   13  A    between atoms: S_21  and  C_22
REMARK                            x       y       z     vdW  Elec       q    Type
REMARK                         _______ _______ _______ _____ _____    ______ ____
ROOT
ATOM      1  C   UNL     1      -0.497  13.717  22.033  0.00  0.00    +0.000 C 
ATOM      2  C   UNL     1      -1.257  12.592  22.097  0.00  0.00    +0.000 C 
ENDROOT
BRANCH   2   3
ATOM      3  C   UNL     1      -0.726  11.241  21.764  0.00  0.00    +0.000 A 
ATOM      4  C   UNL     1      -0.524  10.873  20.424  0.00  0.00    +0.000 A 
ATOM      5  C   UNL     1       0.148   9.689  20.104  0.00  0.00    +0.000 A 
ATOM      6  C   UNL     1       0.617   8.855  21.120  0.00  0.00    +0.000 A 
ATOM      7  C   UNL     1       0.401   9.196  22.453  0.00  0.00    +0.000 A 
ATOM      8  C   UNL     1      -0.263  10.385  22.774  0.00  0.00    +0.000 A 
ENDBRANCH   2   3
BRANCH   2   9
ATOM      9  C   UNL     1      -2.700  12.684  22.473  0.00  0.00    +0.000 A 
ATOM     10  C   UNL     1      -3.653  12.810  21.451  0.00  0.00    +0.000 A 
ATOM     11  C   UNL     1      -5.014  12.832  21.747  0.00  0.00    +0.000 A 
ATOM     12  C   UNL     1      -5.427  12.716  23.077  0.00  0.00    +0.000 A 
ATOM     13  C   UNL     1      -4.490  12.617  24.111  0.00  0.00    +0.000 A 
ATOM     14  C   UNL     1      -3.127  12.594  23.805  0.00  0.00    +0.000 A 
BRANCH  12  15
ATOM     15  S   UNL     1      -7.165  12.711  23.445  0.00  0.00    +0.000 S 
ATOM     16  C   UNL     1      -7.916  12.786  21.839  0.00  0.00    +0.000 C 
ATOM     17  O   UNL     1      -7.489  11.425  24.034  0.00  0.00    +0.000 OA
ATOM     18  O   UNL     1      -7.472  13.945  24.141  0.00  0.00    +0.000 OA
ENDBRANCH  12  15
ENDBRANCH   2   9
BRANCH   1  19
ATOM     19  C   UNL     1      -1.035  15.020  22.514  0.00  0.00    +0.000 A 
ATOM     20  C   UNL     1      -0.789  15.441  23.832  0.00  0.00    +0.000 A 
ATOM     21  C   UNL     1      -1.364  16.619  24.317  0.00  0.00    +0.000 A 
ATOM     22  C   UNL     1      -2.171  17.393  23.486  0.00  0.00    +0.000 A 
ATOM     23  C   UNL     1      -2.388  17.001  22.165  0.00  0.00    +0.000 A 
ATOM     24  C   UNL     1      -1.819  15.821  21.680  0.00  0.00    +0.000 A 
ENDBRANCH   1  19
BRANCH   1  25
ATOM     25  C   UNL     1       0.954  13.827  21.589  0.00  0.00    +0.000 C 
BRANCH  25  26
ATOM     26  C   UNL     1       1.243  13.990  20.092  0.00  0.00    +0.000 C 
BRANCH  26  27
ATOM     27  C   UNL     1       0.051  14.247  19.160  0.00  0.00    +0.000 C 
BRANCH  27  28
ATOM     28  C   UNL     1       0.182  15.676  18.613  0.00  0.00    +0.000 C 
BRANCH  28  29
ATOM     29  C   UNL     1       1.360  16.458  19.184  0.00  0.00    +0.000 C 
BRANCH  29  30
ATOM     30  C   UNL     1       2.366  16.787  18.073  0.00  0.00    +0.000 C 
BRANCH  30  32
ATOM     31  C   UNL     1       4.244  15.107  17.929  0.00  0.00    +0.000 C 
ATOM     32  C   UNL     1       3.790  16.440  18.500  0.00  0.00    +0.000 C 
ENDBRANCH  30  32
ENDBRANCH  29  30
ENDBRANCH  28  29
ENDBRANCH  27  28
ENDBRANCH  26  27
ENDBRANCH  25  26
ENDBRANCH   1  25
TORSDOF 11
ENDMDL
MODEL 6
REMARK VINA RESULT:      -5.5      4.805     10.141
REMARK  Name = 
REMARK  13 active torsions:
REMARK  status: ('A' for Active; 'I' for Inactive)
REMARK    1  A    between atoms: C_1  and  C_2
REMARK    2  A    between atoms: C_2  and  C_3
REMARK    3  A    between atoms: C_3  and  C_4
REMARK    4  A    between atoms: C_4  and  C_5
REMARK    5  A    between atoms: C_5  and  C_6
REMARK    6  A    between atoms: C_6  and  C_7
REMARK    7  A    between atoms: C_7  and  C_8
REMARK    8  A    between atoms: C_8  and  C_9
REMARK    9  A    between atoms: C_9  and  C_27
REMARK   10  A    between atoms: C_10  and  C_11
REMARK   11  A    between atoms: C_10  and  C_17
REMARK   12  A    between atoms: C_20  and  S_21
REMARK   13  A    between atoms: S_21  and  C_22
REMARK                            x       y       z     vdW  Elec       q    Type
REMARK                         _______ _______ _______ _____ _____    ______ ____
ROOT
ATOM      1  C   UNL     1       4.444   4.944  18.133  0.00  0.00    +0.000 C 
ATOM      2  C   UNL     1       3.203   5.209  18.618  0.00  0.00    +0.000 C 
ENDROOT
BRANCH   2   3
ATOM      3  C   UNL     1       2.224   4.139  18.954  0.00  0.00    +0.000 A 
ATOM      4  C   UNL     1       1.500   3.499  17.935  0.00  0.00    +0.000 A 
ATOM      5  C   UNL     1       0.724   2.370  18.215  0.00  0.00    +0.000 A 
ATOM      6  C   UNL     1       0.655   1.874  19.517  0.00  0.00    +0.000 A 
ATOM      7  C   UNL     1       1.347   2.515  20.542  0.00  0.00    +0.000 A 
ATOM      8  C   UNL     1       2.131   3.639  20.261  0.00  0.00    +0.000 A 
ENDBRANCH   2   3
BRANCH   2   9
ATOM      9  C   UNL     1       2.755   6.624  18.793  0.00  0.00    +0.000 A 
ATOM     10  C   UNL     1       2.602   7.425  17.653  0.00  0.00    +0.000 A 
ATOM     11  C   UNL     1       2.123   8.729  17.758  0.00  0.00    +0.000 A 
ATOM     12  C   UNL     1       1.781   9.232  19.016  0.00  0.00    +0.000 A 
ATOM     13  C   UNL     1       1.952   8.457  20.167  0.00  0.00    +0.000 A 
ATOM     14  C   UNL     1       2.432   7.149  20.052  0.00  0.00    +0.000 A 
BRANCH  12  15
ATOM     15  S   UNL     1       1.138  10.884  19.142  0.00  0.00    +0.000 S 
ATOM     16  C   UNL     1       2.294  11.838  18.192  0.00  0.00    +0.000 C 
ATOM     17  O   UNL     1      -0.141  10.914  18.457  0.00  0.00    +0.000 OA
ATOM     18  O   UNL     1       1.250  11.296  20.527  0.00  0.00    +0.000 OA
ENDBRANCH  12  15
ENDBRANCH   2   9
BRANCH   1  19
ATOM     19  C   UNL     1       5.434   6.042  17.949  0.00  0.00    +0.000 A 
ATOM     20  C   UNL     1       5.210   7.038  16.984  0.00  0.00    +0.000 A 
ATOM     21  C   UNL     1       6.173   8.021  16.745  0.00  0.00    +0.000 A 
ATOM     22  C   UNL     1       7.357   8.028  17.479  0.00  0.00    +0.000 A 
ATOM     23  C   UNL     1       7.569   7.066  18.467  0.00  0.00    +0.000 A 
ATOM     24  C   UNL     1       6.610   6.078  18.703  0.00  0.00    +0.000 A 
ENDBRANCH   1  19
BRANCH   1  25
ATOM     25  C   UNL     1       5.036   3.580  17.809  0.00  0.00    +0.000 C 
BRANCH  25  26
ATOM     26  C   UNL     1       5.436   3.290  16.357  0.00  0.00    +0.000 C 
BRANCH  26  27
ATOM     27  C   UNL     1       6.729   3.931  15.833  0.00  0.00    +0.000 C 
BRANCH  27  28
ATOM     28  C   UNL     1       6.402   4.630  14.505  0.00  0.00    +0.000 C 
BRANCH  28  29
ATOM     29  C   UNL     1       5.451   3.847  13.605  0.00  0.00    +0.000 C 
BRANCH  29  30
ATOM     30  C   UNL     1       6.206   3.302  12.385  0.00  0.00    +0.000 C 
BRANCH  30  32
ATOM     31  C   UNL     1       3.941   3.263  11.273  0.00  0.00    +0.000 C 
ATOM     32  C   UNL     1       5.267   2.542  11.452  0.00  0.00    +0.000 C 
ENDBRANCH  30  32
ENDBRANCH  29  30
ENDBRANCH  28  29
ENDBRANCH  27  28
ENDBRANCH  26  27
ENDBRANCH  25  26
ENDBRANCH   1  25
TORSDOF 11
ENDMDL
MODEL 7
REMARK VINA RESULT:      -5.5      4.594      7.854
REMARK  Name = 
REMARK  13 active torsions:
REMARK  status: ('A' for Active; 'I' for Inactive)
REMARK    1  A    between atoms: C_1  and  C_2
REMARK    2  A    between atoms: C_2  and  C_3
REMARK    3  A    between atoms: C_3  and  C_4
REMARK    4  A    between atoms: C_4  and  C_5
REMARK    5  A    between atoms: C_5  and  C_6
REMARK    6  A    between atoms: C_6  and  C_7
REMARK    7  A    between atoms: C_7  and  C_8
REMARK    8  A    between atoms: C_8  and  C_9
REMARK    9  A    between atoms: C_9  and  C_27
REMARK   10  A    between atoms: C_10  and  C_11
REMARK   11  A    between atoms: C_10  and  C_17
REMARK   12  A    between atoms: C_20  and  S_21
REMARK   13  A    between atoms: S_21  and  C_22
REMARK                            x       y       z     vdW  Elec       q    Type
REMARK                         _______ _______ _______ _____ _____    ______ ____
ROOT
ATOM      1  C   UNL     1      -0.503  13.652  21.989  0.00  0.00    +0.000 C 
ATOM      2  C   UNL     1      -1.276  12.541  22.110  0.00  0.00    +0.000 C 
ENDROOT
BRANCH   2   3
ATOM      3  C   UNL     1      -0.765  11.170  21.834  0.00  0.00    +0.000 A 
ATOM      4  C   UNL     1      -0.542  10.753  20.512  0.00  0.00    +0.000 A 
ATOM      5  C   UNL     1       0.114   9.546  20.247  0.00  0.00    +0.000 A 
ATOM      6  C   UNL     1       0.545   8.739  21.301  0.00  0.00    +0.000 A 
ATOM      7  C   UNL     1       0.307   9.129  22.617  0.00  0.00    +0.000 A 
ATOM      8  C   UNL     1      -0.340  10.341  22.882  0.00  0.00    +0.000 A 
ENDBRANCH   2   3
BRANCH   2   9
ATOM      9  C   UNL     1      -2.716  12.668  22.491  0.00  0.00    +0.000 A 
ATOM     10  C   UNL     1      -3.667  12.837  21.476  0.00  0.00    +0.000 A 
ATOM     11  C   UNL     1      -5.026  12.894  21.776  0.00  0.00    +0.000 A 
ATOM     12  C   UNL     1      -5.438  12.768  23.105  0.00  0.00    +0.000 A 
ATOM     13  C   UNL     1      -4.502  12.626  24.134  0.00  0.00    +0.000 A 
ATOM     14  C   UNL     1      -3.140  12.569  23.824  0.00  0.00    +0.000 A 
BRANCH  12  15
ATOM     15  S   UNL     1      -7.175  12.807  23.479  0.00  0.00    +0.000 S 
ATOM     16  C   UNL     1      -7.916  13.170  21.908  0.00  0.00    +0.000 C 
ATOM     17  O   UNL     1      -7.574  11.466  23.866  0.00  0.00    +0.000 OA
ATOM     18  O   UNL     1      -7.412  13.935  24.358  0.00  0.00    +0.000 OA
ENDBRANCH  12  15
ENDBRANCH   2   9
BRANCH   1  19
ATOM     19  C   UNL     1      -1.022  14.982  22.415  0.00  0.00    +0.000 A 
ATOM     20  C   UNL     1      -1.604  15.846  21.472  0.00  0.00    +0.000 A 
ATOM     21  C   UNL     1      -2.013  17.129  21.846  0.00  0.00    +0.000 A 
ATOM     22  C   UNL     1      -1.860  17.551  23.165  0.00  0.00    +0.000 A 
ATOM     23  C   UNL     1      -1.319  16.684  24.115  0.00  0.00    +0.000 A 
ATOM     24  C   UNL     1      -0.904  15.404  23.742  0.00  0.00    +0.000 A 
ENDBRANCH   1  19
BRANCH   1  25
ATOM     25  C   UNL     1       0.945  13.723  21.529  0.00  0.00    +0.000 C 
BRANCH  25  26
ATOM     26  C   UNL     1       1.223  13.970  20.042  0.00  0.00    +0.000 C 
BRANCH  26  27
ATOM     27  C   UNL     1       2.178  13.006  19.326  0.00  0.00    +0.000 C 
BRANCH  27  28
ATOM     28  C   UNL     1       3.095  13.840  18.419  0.00  0.00    +0.000 C 
BRANCH  28  29
ATOM     29  C   UNL     1       3.354  15.255  18.925  0.00  0.00    +0.000 C 
BRANCH  29  30
ATOM     30  C   UNL     1       3.123  16.271  17.799  0.00  0.00    +0.000 C 
BRANCH  30  32
ATOM     31  C   UNL     1       1.705  17.578  19.426  0.00  0.00    +0.000 C 
ATOM     32  C   UNL     1       1.821  17.040  18.010  0.00  0.00    +0.000 C 
ENDBRANCH  30  32
ENDBRANCH  29  30
ENDBRANCH  28  29
ENDBRANCH  27  28
ENDBRANCH  26  27
ENDBRANCH  25  26
ENDBRANCH   1  25
TORSDOF 11
ENDMDL
MODEL 8
REMARK VINA RESULT:      -5.4      6.711     10.216
REMARK  Name = 
REMARK  13 active torsions:
REMARK  status: ('A' for Active; 'I' for Inactive)
REMARK    1  A    between atoms: C_1  and  C_2
REMARK    2  A    between atoms: C_2  and  C_3
REMARK    3  A    between atoms: C_3  and  C_4
REMARK    4  A    between atoms: C_4  and  C_5
REMARK    5  A    between atoms: C_5  and  C_6
REMARK    6  A    between atoms: C_6  and  C_7
REMARK    7  A    between atoms: C_7  and  C_8
REMARK    8  A    between atoms: C_8  and  C_9
REMARK    9  A    between atoms: C_9  and  C_27
REMARK   10  A    between atoms: C_10  and  C_11
REMARK   11  A    between atoms: C_10  and  C_17
REMARK   12  A    between atoms: C_20  and  S_21
REMARK   13  A    between atoms: S_21  and  C_22
REMARK                            x       y       z     vdW  Elec       q    Type
REMARK                         _______ _______ _______ _____ _____    ______ ____
ROOT
ATOM      1  C   UNL     1       9.738  15.063  21.521  0.00  0.00    +0.000 C 
ATOM      2  C   UNL     1       9.373  13.755  21.472  0.00  0.00    +0.000 C 
ENDROOT
BRANCH   2   3
ATOM      3  C   UNL     1       9.875  12.817  20.431  0.00  0.00    +0.000 A 
ATOM      4  C   UNL     1       9.056  12.460  19.348  0.00  0.00    +0.000 A 
ATOM      5  C   UNL     1       9.576  11.737  18.269  0.00  0.00    +0.000 A 
ATOM      6  C   UNL     1      10.918  11.354  18.267  0.00  0.00    +0.000 A 
ATOM      7  C   UNL     1      11.735  11.679  19.347  0.00  0.00    +0.000 A 
ATOM      8  C   UNL     1      11.217  12.411  20.422  0.00  0.00    +0.000 A 
ENDBRANCH   2   3
BRANCH   2   9
ATOM      9  C   UNL     1       8.394  13.214  22.464  0.00  0.00    +0.000 A 
ATOM     10  C   UNL     1       8.877  12.444  23.532  0.00  0.00    +0.000 A 
ATOM     11  C   UNL     1       8.013  11.974  24.518  0.00  0.00    +0.000 A 
ATOM     12  C   UNL     1       6.653  12.287  24.442  0.00  0.00    +0.000 A 
ATOM     13  C   UNL     1       6.150  13.030  23.369  0.00  0.00    +0.000 A 
ATOM     14  C   UNL     1       7.024  13.500  22.385  0.00  0.00    +0.000 A 
BRANCH  12  15
ATOM     15  S   UNL     1       5.561  11.714  25.720  0.00  0.00    +0.000 S 
ATOM     16  C   UNL     1       6.677  11.153  26.981  0.00  0.00    +0.000 C 
ATOM     17  O   UNL     1       4.841  12.864  26.235  0.00  0.00    +0.000 OA
ATOM     18  O   UNL     1       4.848  10.560  25.207  0.00  0.00    +0.000 OA
ENDBRANCH  12  15
ENDBRANCH   2   9
BRANCH   1  19
ATOM     19  C   UNL     1       9.320  15.921  22.665  0.00  0.00    +0.000 A 
ATOM     20  C   UNL     1      10.023  15.868  23.880  0.00  0.00    +0.000 A 
ATOM     21  C   UNL     1       9.585  16.604  24.984  0.00  0.00    +0.000 A 
ATOM     22  C   UNL     1       8.454  17.411  24.878  0.00  0.00    +0.000 A 
ATOM     23  C   UNL     1       7.774  17.499  23.663  0.00  0.00    +0.000 A 
ATOM     24  C   UNL     1       8.207  16.760  22.560  0.00  0.00    +0.000 A 
ENDBRANCH   1  19
BRANCH   1  25
ATOM     25  C   UNL     1      10.644  15.805  20.551  0.00  0.00    +0.000 C 
BRANCH  25  26
ATOM     26  C   UNL     1      10.222  15.884  19.079  0.00  0.00    +0.000 C 
BRANCH  26  27
ATOM     27  C   UNL     1       8.837  16.468  18.766  0.00  0.00    +0.000 C 
BRANCH  27  28
ATOM     28  C   UNL     1       8.133  15.511  17.792  0.00  0.00    +0.000 C 
BRANCH  28  29
ATOM     29  C   UNL     1       6.671  15.238  18.132  0.00  0.00    +0.000 C 
BRANCH  29  30
ATOM     30  C   UNL     1       6.347  15.764  19.536  0.00  0.00    +0.000 C 
BRANCH  30  32
ATOM     31  C   UNL     1       3.827  15.839  19.415  0.00  0.00    +0.000 C 
ATOM     32  C   UNL     1       5.037  15.176  20.054  0.00  0.00    +0.000 C 
ENDBRANCH  30  32
ENDBRANCH  29  30
ENDBRANCH  28  29
ENDBRANCH  27  28
ENDBRANCH  26  27
ENDBRANCH  25  26
ENDBRANCH   1  25
TORSDOF 11
ENDMDL
MODEL 9
REMARK VINA RESULT:      -5.3      3.543      6.637
REMARK  Name = 
REMARK  13 active torsions:
REMARK  status: ('A' for Active; 'I' for Inactive)
REMARK    1  A    between atoms: C_1  and  C_2
REMARK    2  A    between atoms: C_2  and  C_3
REMARK    3  A    between atoms: C_3  and  C_4
REMARK    4  A    between atoms: C_4  and  C_5
REMARK    5  A    between atoms: C_5  and  C_6
REMARK    6  A    between atoms: C_6  and  C_7
REMARK    7  A    between atoms: C_7  and  C_8
REMARK    8  A    between atoms: C_8  and  C_9
REMARK    9  A    between atoms: C_9  and  C_27
REMARK   10  A    between atoms: C_10  and  C_11
REMARK   11  A    between atoms: C_10  and  C_17
REMARK   12  A    between atoms: C_20  and  S_21
REMARK   13  A    between atoms: S_21  and  C_22
REMARK                            x       y       z     vdW  Elec       q    Type
REMARK                         _______ _______ _______ _____ _____    ______ ____
ROOT
ATOM      1  C   UNL     1      -0.306  13.108  20.318  0.00  0.00    +0.000 C 
ATOM      2  C   UNL     1       0.856  12.555  19.883  0.00  0.00    +0.000 C 
ENDROOT
BRANCH   2   3
ATOM      3  C   UNL     1       1.016  11.093  19.651  0.00  0.00    +0.000 A 
ATOM      4  C   UNL     1       1.486  10.622  18.415  0.00  0.00    +0.000 A 
ATOM      5  C   UNL     1       1.821   9.274  18.247  0.00  0.00    +0.000 A 
ATOM      6  C   UNL     1       1.679   8.381  19.309  0.00  0.00    +0.000 A 
ATOM      7  C   UNL     1       1.188   8.830  20.533  0.00  0.00    +0.000 A 
ATOM      8  C   UNL     1       0.863  10.180  20.704  0.00  0.00    +0.000 A 
ENDBRANCH   2   3
BRANCH   2   9
ATOM      9  C   UNL     1       2.058  13.416  19.661  0.00  0.00    +0.000 A 
ATOM     10  C   UNL     1       2.850  13.761  20.765  0.00  0.00    +0.000 A 
ATOM     11  C   UNL     1       4.015  14.506  20.599  0.00  0.00    +0.000 A 
ATOM     12  C   UNL     1       4.399  14.899  19.315  0.00  0.00    +0.000 A 
ATOM     13  C   UNL     1       3.607  14.587  18.205  0.00  0.00    +0.000 A 
ATOM     14  C   UNL     1       2.440  13.838  18.380  0.00  0.00    +0.000 A 
BRANCH  12  15
ATOM     15  S   UNL     1       5.904  15.819  19.105  0.00  0.00    +0.000 S 
ATOM     16  C   UNL     1       6.729  14.946  17.798  0.00  0.00    +0.000 C 
ATOM     17  O   UNL     1       5.552  17.138  18.613  0.00  0.00    +0.000 OA
ATOM     18  O   UNL     1       6.690  15.662  20.313  0.00  0.00    +0.000 OA
ENDBRANCH  12  15
ENDBRANCH   2   9
BRANCH   1  19
ATOM     19  C   UNL     1      -0.455  14.588  20.397  0.00  0.00    +0.000 A 
ATOM     20  C   UNL     1      -0.407  15.236  21.643  0.00  0.00    +0.000 A 
ATOM     21  C   UNL     1      -0.632  16.612  21.735  0.00  0.00    +0.000 A 
ATOM     22  C   UNL     1      -0.890  17.352  20.583  0.00  0.00    +0.000 A 
ATOM     23  C   UNL     1      -0.900  16.723  19.339  0.00  0.00    +0.000 A 
ATOM     24  C   UNL     1      -0.681  15.346  19.245  0.00  0.00    +0.000 A 
ENDBRANCH   1  19
BRANCH   1  25
ATOM     25  C   UNL     1      -1.594  12.384  20.680  0.00  0.00    +0.000 C 
BRANCH  25  26
ATOM     26  C   UNL     1      -2.671  12.234  19.599  0.00  0.00    +0.000 C 
BRANCH  26  27
ATOM     27  C   UNL     1      -2.212  11.855  18.184  0.00  0.00    +0.000 C 
BRANCH  27  28
ATOM     28  C   UNL     1      -2.081  10.325  18.127  0.00  0.00    +0.000 C 
BRANCH  28  29
ATOM     29  C   UNL     1      -3.247   9.625  17.436  0.00  0.00    +0.000 C 
BRANCH  29  30
ATOM     30  C   UNL     1      -3.657  10.398  16.175  0.00  0.00    +0.000 C 
BRANCH  30  32
ATOM     31  C   UNL     1      -3.617  10.049  13.676  0.00  0.00    +0.000 C 
ATOM     32  C   UNL     1      -2.824   9.967  14.970  0.00  0.00    +0.000 C 
ENDBRANCH  30  32
ENDBRANCH  29  30
ENDBRANCH  28  29
ENDBRANCH  27  28
ENDBRANCH  26  27
ENDBRANCH  25  26
ENDBRANCH   1  25
TORSDOF 11
ENDMDL
