MODEL 1
REMARK VINA RESULT:      -7.4      0.000      0.000
REMARK  Name = 
REMARK  5 active torsions:
REMARK  status: ('A' for Active; 'I' for Inactive)
REMARK    1  A    between atoms: C_2  and  O_3
REMARK    2  A    between atoms: C_2  and  C_4
REMARK    3  A    between atoms: C_8  and  O_9
REMARK    4  A    between atoms: O_9  and  C_10
REMARK    5  A    between atoms: C_10  and  C_11
REMARK                            x       y       z     vdW  Elec       q    Type
REMARK                         _______ _______ _______ _____ _____    ______ ____
ROOT
ATOM      1  C   UNL     1       6.949   5.476  18.180  0.00  0.00    +0.000 A 
ATOM      2  C   UNL     1       7.401   4.603  17.183  0.00  0.00    +0.000 A 
ATOM      3  C   UNL     1       6.562   4.268  16.121  0.00  0.00    +0.000 A 
ATOM      4  C   UNL     1       5.262   4.771  16.075  0.00  0.00    +0.000 A 
ATOM      5  C   UNL     1       4.779   5.578  17.110  0.00  0.00    +0.000 A 
ATOM      6  C   UNL     1       5.633   5.954  18.149  0.00  0.00    +0.000 A 
ENDROOT
BRANCH   1   8
ATOM      7  O   UNL     1       7.891   5.242  20.349  0.00  0.00    +0.000 OA
ATOM      8  C   UNL     1       7.824   5.869  19.310  0.00  0.00    +0.000 C 
BRANCH   8   9
ATOM      9  O   UNL     1       8.514   7.008  19.087  0.00  0.00    +0.000 OA
ATOM     10  H   UNL     1       9.398   6.883  18.693  0.00  0.00    +0.000 HD
ENDBRANCH   8   9
ENDBRANCH   1   8
BRANCH   5  11
ATOM     11  O   UNL     1       3.495   6.046  17.191  0.00  0.00    +0.000 OA
BRANCH  11  12
ATOM     12  C   UNL     1       3.015   6.276  18.520  0.00  0.00    +0.000 C 
BRANCH  12  13
ATOM     13  C   UNL     1       2.245   5.072  18.998  0.00  0.00    +0.000 A 
ATOM     14  C   UNL     1       1.991   4.883  20.363  0.00  0.00    +0.000 A 
ATOM     15  C   UNL     1       1.278   3.766  20.798  0.00  0.00    +0.000 A 
ATOM     16  C   UNL     1       0.813   2.830  19.875  0.00  0.00    +0.000 A 
ATOM     17  C   UNL     1       1.053   3.012  18.517  0.00  0.00    +0.000 A 
ATOM     18  C   UNL     1       1.765   4.129  18.078  0.00  0.00    +0.000 A 
ENDBRANCH  12  13
ENDBRANCH  11  12
ENDBRANCH   5  11
TORSDOF 5
ENDMDL
MODEL 2
REMARK VINA RESULT:      -7.3      2.045      2.991
REMARK  Name = 
REMARK  5 active torsions:
REMARK  status: ('A' for Active; 'I' for Inactive)
REMARK    1  A    between atoms: C_2  and  O_3
REMARK    2  A    between atoms: C_2  and  C_4
REMARK    3  A    between atoms: C_8  and  O_9
REMARK    4  A    between atoms: O_9  and  C_10
REMARK    5  A    between atoms: C_10  and  C_11
REMARK                            x       y       z     vdW  Elec       q    Type
REMARK                         _______ _______ _______ _____ _____    ______ ____
ROOT
ATOM      1  C   UNL     1       5.783   5.093  16.724  0.00  0.00    +0.000 A 
ATOM      2  C   UNL     1       5.444   6.310  17.328  0.00  0.00    +0.000 A 
ATOM      3  C   UNL     1       4.162   6.497  17.842  0.00  0.00    +0.000 A 
ATOM      4  C   UNL     1       3.209   5.486  17.719  0.00  0.00    +0.000 A 
ATOM      5  C   UNL     1       3.518   4.300  17.045  0.00  0.00    +0.000 A 
ATOM      6  C   UNL     1       4.815   4.093  16.572  0.00  0.00    +0.000 A 
ENDROOT
BRANCH   1   8
ATOM      7  O   UNL     1       7.506   5.244  15.094  0.00  0.00    +0.000 OA
ATOM      8  C   UNL     1       7.145   4.856  16.189  0.00  0.00    +0.000 C 
BRANCH   8   9
ATOM      9  O   UNL     1       7.934   4.140  17.018  0.00  0.00    +0.000 OA
ATOM     10  H   UNL     1       8.239   3.285  16.659  0.00  0.00    +0.000 HD
ENDBRANCH   8   9
ENDBRANCH   1   8
BRANCH   5  11
ATOM     11  O   UNL     1       2.624   3.292  16.802  0.00  0.00    +0.000 OA
BRANCH  11  12
ATOM     12  C   UNL     1       2.791   2.123  17.610  0.00  0.00    +0.000 C 
BRANCH  12  13
ATOM     13  C   UNL     1       2.397   2.426  19.033  0.00  0.00    +0.000 A 
ATOM     14  C   UNL     1       3.343   2.370  20.064  0.00  0.00    +0.000 A 
ATOM     15  C   UNL     1       2.970   2.652  21.378  0.00  0.00    +0.000 A 
ATOM     16  C   UNL     1       1.651   2.992  21.673  0.00  0.00    +0.000 A 
ATOM     17  C   UNL     1       0.704   3.059  20.656  0.00  0.00    +0.000 A 
ATOM     18  C   UNL     1       1.074   2.778  19.339  0.00  0.00    +0.000 A 
ENDBRANCH  12  13
ENDBRANCH  11  12
ENDBRANCH   5  11
TORSDOF 5
ENDMDL
MODEL 3
REMARK VINA RESULT:      -7.3      0.589      1.509
REMARK  Name = 
REMARK  5 active torsions:
REMARK  status: ('A' for Active; 'I' for Inactive)
REMARK    1  A    between atoms: C_2  and  O_3
REMARK    2  A    between atoms: C_2  and  C_4
REMARK    3  A    between atoms: C_8  and  O_9
REMARK    4  A    between atoms: O_9  and  C_10
REMARK    5  A    between atoms: C_10  and  C_11
REMARK                            x       y       z     vdW  Elec       q    Type
REMARK                         _______ _______ _______ _____ _____    ______ ____
ROOT
ATOM      1  C   UNL     1       6.835   5.537  17.986  0.00  0.00    +0.000 A 
ATOM      2  C   UNL     1       7.337   4.684  16.996  0.00  0.00    +0.000 A 
ATOM      3  C   UNL     1       6.472   4.130  16.053  0.00  0.00    +0.000 A 
ATOM      4  C   UNL     1       5.105   4.396  16.122  0.00  0.00    +0.000 A 
ATOM      5  C   UNL     1       4.589   5.182  17.157  0.00  0.00    +0.000 A 
ATOM      6  C   UNL     1       5.458   5.776  18.073  0.00  0.00    +0.000 A 
ENDROOT
BRANCH   1   8
ATOM      7  O   UNL     1       8.382   7.163  18.769  0.00  0.00    +0.000 OA
ATOM      8  C   UNL     1       7.732   6.159  18.989  0.00  0.00    +0.000 C 
BRANCH   8   9
ATOM      9  O   UNL     1       7.784   5.485  20.158  0.00  0.00    +0.000 OA
ATOM     10  H   UNL     1       7.742   4.513  20.074  0.00  0.00    +0.000 HD
ENDBRANCH   8   9
ENDBRANCH   1   8
BRANCH   5  11
ATOM     11  O   UNL     1       3.255   5.424  17.353  0.00  0.00    +0.000 OA
BRANCH  11  12
ATOM     12  C   UNL     1       2.911   5.914  18.653  0.00  0.00    +0.000 C 
BRANCH  12  13
ATOM     13  C   UNL     1       2.303   4.804  19.470  0.00  0.00    +0.000 A 
ATOM     14  C   UNL     1       1.402   3.902  18.891  0.00  0.00    +0.000 A 
ATOM     15  C   UNL     1       0.843   2.876  19.654  0.00  0.00    +0.000 A 
ATOM     16  C   UNL     1       1.179   2.744  21.000  0.00  0.00    +0.000 A 
ATOM     17  C   UNL     1       2.079   3.630  21.585  0.00  0.00    +0.000 A 
ATOM     18  C   UNL     1       2.641   4.656  20.823  0.00  0.00    +0.000 A 
ENDBRANCH  12  13
ENDBRANCH  11  12
ENDBRANCH   5  11
TORSDOF 5
ENDMDL
MODEL 4
REMARK VINA RESULT:      -7.2      1.882      2.974
REMARK  Name = 
REMARK  5 active torsions:
REMARK  status: ('A' for Active; 'I' for Inactive)
REMARK    1  A    between atoms: C_2  and  O_3
REMARK    2  A    between atoms: C_2  and  C_4
REMARK    3  A    between atoms: C_8  and  O_9
REMARK    4  A    between atoms: O_9  and  C_10
REMARK    5  A    between atoms: C_10  and  C_11
REMARK                            x       y       z     vdW  Elec       q    Type
REMARK                         _______ _______ _______ _____ _____    ______ ____
ROOT
ATOM      1  C   UNL     1       6.478   4.989  16.076  0.00  0.00    +0.000 A 
ATOM      2  C   UNL     1       7.335   4.818  17.170  0.00  0.00    +0.000 A 
ATOM      3  C   UNL     1       6.887   5.115  18.457  0.00  0.00    +0.000 A 
ATOM      4  C   UNL     1       5.600   5.619  18.646  0.00  0.00    +0.000 A 
ATOM      5  C   UNL     1       4.769   5.868  17.550  0.00  0.00    +0.000 A 
ATOM      6  C   UNL     1       5.199   5.526  16.266  0.00  0.00    +0.000 A 
ENDROOT
BRANCH   1   8
ATOM      7  O   UNL     1       7.708   5.341  14.073  0.00  0.00    +0.000 OA
ATOM      8  C   UNL     1       6.917   4.661  14.699  0.00  0.00    +0.000 C 
BRANCH   8   9
ATOM      9  O   UNL     1       6.331   3.555  14.195  0.00  0.00    +0.000 OA
ATOM     10  H   UNL     1       6.949   2.869  13.880  0.00  0.00    +0.000 HD
ENDBRANCH   8   9
ENDBRANCH   1   8
BRANCH   5  11
ATOM     11  O   UNL     1       3.527   6.439  17.634  0.00  0.00    +0.000 OA
BRANCH  11  12
ATOM     12  C   UNL     1       2.958   6.466  18.946  0.00  0.00    +0.000 C 
BRANCH  12  13
ATOM     13  C   UNL     1       2.207   5.184  19.201  0.00  0.00    +0.000 A 
ATOM     14  C   UNL     1       1.776   4.385  18.135  0.00  0.00    +0.000 A 
ATOM     15  C   UNL     1       1.081   3.199  18.379  0.00  0.00    +0.000 A 
ATOM     16  C   UNL     1       0.813   2.804  19.688  0.00  0.00    +0.000 A 
ATOM     17  C   UNL     1       1.243   3.586  20.756  0.00  0.00    +0.000 A 
ATOM     18  C   UNL     1       1.940   4.771  20.515  0.00  0.00    +0.000 A 
ENDBRANCH  12  13
ENDBRANCH  11  12
ENDBRANCH   5  11
TORSDOF 5
ENDMDL
MODEL 5
REMARK VINA RESULT:      -7.2      2.300      3.444
REMARK  Name = 
REMARK  5 active torsions:
REMARK  status: ('A' for Active; 'I' for Inactive)
REMARK    1  A    between atoms: C_2  and  O_3
REMARK    2  A    between atoms: C_2  and  C_4
REMARK    3  A    between atoms: C_8  and  O_9
REMARK    4  A    between atoms: O_9  and  C_10
REMARK    5  A    between atoms: C_10  and  C_11
REMARK                            x       y       z     vdW  Elec       q    Type
REMARK                         _______ _______ _______ _____ _____    ______ ____
ROOT
ATOM      1  C   UNL     1       5.981   5.162  16.020  0.00  0.00    +0.000 A 
ATOM      2  C   UNL     1       5.146   6.284  15.953  0.00  0.00    +0.000 A 
ATOM      3  C   UNL     1       4.429   6.685  17.079  0.00  0.00    +0.000 A 
ATOM      4  C   UNL     1       4.516   5.946  18.259  0.00  0.00    +0.000 A 
ATOM      5  C   UNL     1       5.285   4.779  18.308  0.00  0.00    +0.000 A 
ATOM      6  C   UNL     1       6.041   4.403  17.196  0.00  0.00    +0.000 A 
ENDROOT
BRANCH   1   8
ATOM      7  O   UNL     1       7.691   5.373  14.383  0.00  0.00    +0.000 OA
ATOM      8  C   UNL     1       6.773   4.724  14.847  0.00  0.00    +0.000 C 
BRANCH   8   9
ATOM      9  O   UNL     1       6.356   3.551  14.322  0.00  0.00    +0.000 OA
ATOM     10  H   UNL     1       6.521   3.448  13.365  0.00  0.00    +0.000 HD
ENDBRANCH   8   9
ENDBRANCH   1   8
BRANCH   5  11
ATOM     11  O   UNL     1       5.361   3.947  19.392  0.00  0.00    +0.000 OA
BRANCH  11  12
ATOM     12  C   UNL     1       4.713   2.680  19.233  0.00  0.00    +0.000 C 
BRANCH  12  13
ATOM     13  C   UNL     1       3.237   2.826  19.501  0.00  0.00    +0.000 A 
ATOM     14  C   UNL     1       2.308   2.709  18.460  0.00  0.00    +0.000 A 
ATOM     15  C   UNL     1       0.943   2.845  18.716  0.00  0.00    +0.000 A 
ATOM     16  C   UNL     1       0.497   3.100  20.011  0.00  0.00    +0.000 A 
ATOM     17  C   UNL     1       1.410   3.211  21.054  0.00  0.00    +0.000 A 
ATOM     18  C   UNL     1       2.776   3.073  20.802  0.00  0.00    +0.000 A 
ENDBRANCH  12  13
ENDBRANCH  11  12
ENDBRANCH   5  11
TORSDOF 5
ENDMDL
MODEL 6
REMARK VINA RESULT:      -7.2      1.910      2.722
REMARK  Name = 
REMARK  5 active torsions:
REMARK  status: ('A' for Active; 'I' for Inactive)
REMARK    1  A    between atoms: C_2  and  O_3
REMARK    2  A    between atoms: C_2  and  C_4
REMARK    3  A    between atoms: C_8  and  O_9
REMARK    4  A    between atoms: O_9  and  C_10
REMARK    5  A    between atoms: C_10  and  C_11
REMARK                            x       y       z     vdW  Elec       q    Type
REMARK                         _______ _______ _______ _____ _____    ______ ____
ROOT
ATOM      1  C   UNL     1       6.469   4.959  16.165  0.00  0.00    +0.000 A 
ATOM      2  C   UNL     1       7.332   4.866  17.264  0.00  0.00    +0.000 A 
ATOM      3  C   UNL     1       6.854   5.129  18.547  0.00  0.00    +0.000 A 
ATOM      4  C   UNL     1       5.528   5.523  18.728  0.00  0.00    +0.000 A 
ATOM      5  C   UNL     1       4.685   5.697  17.626  0.00  0.00    +0.000 A 
ATOM      6  C   UNL     1       5.148   5.387  16.346  0.00  0.00    +0.000 A 
ENDROOT
BRANCH   1   8
ATOM      7  O   UNL     1       7.716   5.379  14.186  0.00  0.00    +0.000 OA
ATOM      8  C   UNL     1       6.941   4.663  14.792  0.00  0.00    +0.000 C 
BRANCH   8   9
ATOM      9  O   UNL     1       6.404   3.542  14.266  0.00  0.00    +0.000 OA
ATOM     10  H   UNL     1       6.847   3.212  13.461  0.00  0.00    +0.000 HD
ENDBRANCH   8   9
ENDBRANCH   1   8
BRANCH   5  11
ATOM     11  O   UNL     1       3.399   6.161  17.702  0.00  0.00    +0.000 OA
BRANCH  11  12
ATOM     12  C   UNL     1       2.890   6.330  19.029  0.00  0.00    +0.000 C 
BRANCH  12  13
ATOM     13  C   UNL     1       2.253   5.047  19.496  0.00  0.00    +0.000 A 
ATOM     14  C   UNL     1       2.276   4.689  20.850  0.00  0.00    +0.000 A 
ATOM     15  C   UNL     1       1.683   3.499  21.275  0.00  0.00    +0.000 A 
ATOM     16  C   UNL     1       1.063   2.659  20.352  0.00  0.00    +0.000 A 
ATOM     17  C   UNL     1       1.027   3.008  19.005  0.00  0.00    +0.000 A 
ATOM     18  C   UNL     1       1.618   4.198  18.577  0.00  0.00    +0.000 A 
ENDBRANCH  12  13
ENDBRANCH  11  12
ENDBRANCH   5  11
TORSDOF 5
ENDMDL
MODEL 7
REMARK VINA RESULT:      -7.1      1.115      1.684
REMARK  Name = 
REMARK  5 active torsions:
REMARK  status: ('A' for Active; 'I' for Inactive)
REMARK    1  A    between atoms: C_2  and  O_3
REMARK    2  A    between atoms: C_2  and  C_4
REMARK    3  A    between atoms: C_8  and  O_9
REMARK    4  A    between atoms: O_9  and  C_10
REMARK    5  A    between atoms: C_10  and  C_11
REMARK                            x       y       z     vdW  Elec       q    Type
REMARK                         _______ _______ _______ _____ _____    ______ ____
ROOT
ATOM      1  C   UNL     1       6.849   5.493  17.974  0.00  0.00    +0.000 A 
ATOM      2  C   UNL     1       7.384   4.708  16.945  0.00  0.00    +0.000 A 
ATOM      3  C   UNL     1       6.536   4.124  16.004  0.00  0.00    +0.000 A 
ATOM      4  C   UNL     1       5.156   4.291  16.112  0.00  0.00    +0.000 A 
ATOM      5  C   UNL     1       4.612   5.007  17.184  0.00  0.00    +0.000 A 
ATOM      6  C   UNL     1       5.461   5.632  18.099  0.00  0.00    +0.000 A 
ENDROOT
BRANCH   1   8
ATOM      7  O   UNL     1       8.350   7.164  18.750  0.00  0.00    +0.000 OA
ATOM      8  C   UNL     1       7.725   6.145  18.975  0.00  0.00    +0.000 C 
BRANCH   8   9
ATOM      9  O   UNL     1       7.788   5.482  20.150  0.00  0.00    +0.000 OA
ATOM     10  H   UNL     1       7.218   4.691  20.207  0.00  0.00    +0.000 HD
ENDBRANCH   8   9
ENDBRANCH   1   8
BRANCH   5  11
ATOM     11  O   UNL     1       3.270   5.149  17.417  0.00  0.00    +0.000 OA
BRANCH  11  12
ATOM     12  C   UNL     1       2.533   3.925  17.491  0.00  0.00    +0.000 C 
BRANCH  12  13
ATOM     13  C   UNL     1       2.395   3.500  18.930  0.00  0.00    +0.000 A 
ATOM     14  C   UNL     1       3.446   2.848  19.587  0.00  0.00    +0.000 A 
ATOM     15  C   UNL     1       3.311   2.458  20.920  0.00  0.00    +0.000 A 
ATOM     16  C   UNL     1       2.126   2.716  21.606  0.00  0.00    +0.000 A 
ATOM     17  C   UNL     1       1.077   3.370  20.967  0.00  0.00    +0.000 A 
ATOM     18  C   UNL     1       1.210   3.763  19.634  0.00  0.00    +0.000 A 
ENDBRANCH  12  13
ENDBRANCH  11  12
ENDBRANCH   5  11
TORSDOF 5
ENDMDL
MODEL 8
REMARK VINA RESULT:      -7.1      1.423      1.910
REMARK  Name = 
REMARK  5 active torsions:
REMARK  status: ('A' for Active; 'I' for Inactive)
REMARK    1  A    between atoms: C_2  and  O_3
REMARK    2  A    between atoms: C_2  and  C_4
REMARK    3  A    between atoms: C_8  and  O_9
REMARK    4  A    between atoms: O_9  and  C_10
REMARK    5  A    between atoms: C_10  and  C_11
REMARK                            x       y       z     vdW  Elec       q    Type
REMARK                         _______ _______ _______ _____ _____    ______ ____
ROOT
ATOM      1  C   UNL     1       6.653   5.768  18.251  0.00  0.00    +0.000 A 
ATOM      2  C   UNL     1       6.419   6.753  17.284  0.00  0.00    +0.000 A 
ATOM      3  C   UNL     1       5.430   6.560  16.321  0.00  0.00    +0.000 A 
ATOM      4  C   UNL     1       4.703   5.370  16.299  0.00  0.00    +0.000 A 
ATOM      5  C   UNL     1       4.988   4.350  17.213  0.00  0.00    +0.000 A 
ATOM      6  C   UNL     1       5.945   4.561  18.207  0.00  0.00    +0.000 A 
ENDROOT
BRANCH   1   8
ATOM      7  O   UNL     1       7.755   5.254  20.293  0.00  0.00    +0.000 OA
ATOM      8  C   UNL     1       7.682   5.954  19.301  0.00  0.00    +0.000 C 
BRANCH   8   9
ATOM      9  O   UNL     1       8.510   6.995  19.067  0.00  0.00    +0.000 OA
ATOM     10  H   UNL     1       8.092   7.763  18.633  0.00  0.00    +0.000 HD
ENDBRANCH   8   9
ENDBRANCH   1   8
BRANCH   5  11
ATOM     11  O   UNL     1       4.387   3.119  17.211  0.00  0.00    +0.000 OA
BRANCH  11  12
ATOM     12  C   UNL     1       2.959   3.141  17.300  0.00  0.00    +0.000 C 
BRANCH  12  13
ATOM     13  C   UNL     1       2.540   3.260  18.743  0.00  0.00    +0.000 A 
ATOM     14  C   UNL     1       3.184   2.511  19.737  0.00  0.00    +0.000 A 
ATOM     15  C   UNL     1       2.791   2.627  21.071  0.00  0.00    +0.000 A 
ATOM     16  C   UNL     1       1.754   3.490  21.422  0.00  0.00    +0.000 A 
ATOM     17  C   UNL     1       1.113   4.244  20.444  0.00  0.00    +0.000 A 
ATOM     18  C   UNL     1       1.504   4.132  19.109  0.00  0.00    +0.000 A 
ENDBRANCH  12  13
ENDBRANCH  11  12
ENDBRANCH   5  11
TORSDOF 5
ENDMDL
MODEL 9
REMARK VINA RESULT:      -7.1      2.273      3.194
REMARK  Name = 
REMARK  5 active torsions:
REMARK  status: ('A' for Active; 'I' for Inactive)
REMARK    1  A    between atoms: C_2  and  O_3
REMARK    2  A    between atoms: C_2  and  C_4
REMARK    3  A    between atoms: C_8  and  O_9
REMARK    4  A    between atoms: O_9  and  C_10
REMARK    5  A    between atoms: C_10  and  C_11
REMARK                            x       y       z     vdW  Elec       q    Type
REMARK                         _______ _______ _______ _____ _____    ______ ____
ROOT
ATOM      1  C   UNL     1       5.906   5.115  16.029  0.00  0.00    +0.000 A 
ATOM      2  C   UNL     1       5.105   6.263  16.010  0.00  0.00    +0.000 A 
ATOM      3  C   UNL     1       4.439   6.665  17.168  0.00  0.00    +0.000 A 
ATOM      4  C   UNL     1       4.542   5.901  18.330  0.00  0.00    +0.000 A 
ATOM      5  C   UNL     1       5.275   4.710  18.331  0.00  0.00    +0.000 A 
ATOM      6  C   UNL     1       5.980   4.332  17.188  0.00  0.00    +0.000 A 
ENDROOT
BRANCH   1   8
ATOM      7  O   UNL     1       6.285   3.745  14.125  0.00  0.00    +0.000 OA
ATOM      8  C   UNL     1       6.644   4.675  14.822  0.00  0.00    +0.000 C 
BRANCH   8   9
ATOM      9  O   UNL     1       7.769   5.384  14.588  0.00  0.00    +0.000 OA
ATOM     10  H   UNL     1       7.666   6.123  13.960  0.00  0.00    +0.000 HD
ENDBRANCH   8   9
ENDBRANCH   1   8
BRANCH   5  11
ATOM     11  O   UNL     1       5.360   3.855  19.398  0.00  0.00    +0.000 OA
BRANCH  11  12
ATOM     12  C   UNL     1       4.699   2.598  19.223  0.00  0.00    +0.000 C 
BRANCH  12  13
ATOM     13  C   UNL     1       3.223   2.760  19.479  0.00  0.00    +0.000 A 
ATOM     14  C   UNL     1       2.756   3.172  20.734  0.00  0.00    +0.000 A 
ATOM     15  C   UNL     1       1.388   3.319  20.964  0.00  0.00    +0.000 A 
ATOM     16  C   UNL     1       0.476   3.057  19.943  0.00  0.00    +0.000 A 
ATOM     17  C   UNL     1       0.928   2.654  18.690  0.00  0.00    +0.000 A 
ATOM     18  C   UNL     1       2.296   2.507  18.457  0.00  0.00    +0.000 A 
ENDBRANCH  12  13
ENDBRANCH  11  12
ENDBRANCH   5  11
TORSDOF 5
ENDMDL
