MODEL 1
REMARK VINA RESULT:      -6.9      0.000      0.000
REMARK  Name = 
REMARK  6 active torsions:
REMARK  status: ('A' for Active; 'I' for Inactive)
REMARK    1  A    between atoms: C_1  and  O_2
REMARK    2  A    between atoms: O_2  and  P_3
REMARK    3  A    between atoms: P_3  and  O_5
REMARK    4  A    between atoms: P_3  and  C_7
REMARK    5  A    between atoms: O_5  and  C_6
REMARK    6  A    between atoms: C_8  and  C_9
REMARK                            x       y       z     vdW  Elec       q    Type
REMARK                         _______ _______ _______ _____ _____    ______ ____
ROOT
ATOM      1  C   UNL     1       3.847   5.562  18.340  0.00  0.00    +0.000 A 
ATOM      2  C   UNL     1       4.278   6.132  17.155  0.00  0.00    +0.000 A 
ATOM      3  C   UNL     1       5.181   5.694  16.068  0.00  0.00    +0.000 C 
ATOM      4  O   UNL     1       3.748   7.364  16.986  0.00  0.00    +0.000 OA
ATOM      5  C   UNL     1       2.967   7.596  18.056  0.00  0.00    +0.000 A 
ATOM      6  C   UNL     1       2.972   6.533  18.938  0.00  0.00    +0.000 A 
ATOM      7  C   UNL     1       2.168   6.618  20.149  0.00  0.00    +0.000 C 
ATOM      8  O   UNL     1       2.144   5.710  20.972  0.00  0.00    +0.000 OA
ATOM      9  C   UNL     1       1.356   7.908  20.318  0.00  0.00    +0.000 A 
ATOM     10  N   UNL     1       0.571   8.003  21.428  0.00  0.00    +0.000 NA
ATOM     11  C   UNL     1      -0.168   9.134  21.581  0.00  0.00    +0.000 A 
ATOM     12  C   UNL     1      -0.173  10.190  20.682  0.00  0.00    +0.000 A 
ATOM     13  C   UNL     1       0.630  10.087  19.557  0.00  0.00    +0.000 A 
ATOM     14  C   UNL     1       1.406   8.934  19.370  0.00  0.00    +0.000 A 
ATOM     15  C   UNL     1       2.251   8.830  18.167  0.00  0.00    +0.000 C 
ATOM     16  O   UNL     1       2.290   9.752  17.363  0.00  0.00    +0.000 OA
ENDROOT
BRANCH   1  17
ATOM     17  P   UNL     1       4.435   3.958  18.768  0.00  0.00    +0.000 P 
ATOM     18  O   UNL     1       5.928   4.142  18.797  0.00  0.00    +0.000 OA
BRANCH  17  20
ATOM     19  C   UNL     1       4.397   2.082  20.539  0.00  0.00    +0.000 C 
ATOM     20  O   UNL     1       3.821   3.291  20.084  0.00  0.00    +0.000 OA
ENDBRANCH  17  20
BRANCH  17  21
ATOM     21  O   UNL     1       4.038   2.941  17.575  0.00  0.00    +0.000 OA
ATOM     22  C   UNL     1       2.682   2.652  17.320  0.00  0.00    +0.000 C 
ENDBRANCH  17  21
ENDBRANCH   1  17
TORSDOF 3
ENDMDL
MODEL 2
REMARK VINA RESULT:      -6.7      0.833      1.352
REMARK  Name = 
REMARK  6 active torsions:
REMARK  status: ('A' for Active; 'I' for Inactive)
REMARK    1  A    between atoms: C_1  and  O_2
REMARK    2  A    between atoms: O_2  and  P_3
REMARK    3  A    between atoms: P_3  and  O_5
REMARK    4  A    between atoms: P_3  and  C_7
REMARK    5  A    between atoms: O_5  and  C_6
REMARK    6  A    between atoms: C_8  and  C_9
REMARK                            x       y       z     vdW  Elec       q    Type
REMARK                         _______ _______ _______ _____ _____    ______ ____
ROOT
ATOM      1  C   UNL     1       3.890   5.779  18.218  0.00  0.00    +0.000 A 
ATOM      2  C   UNL     1       4.280   6.398  17.042  0.00  0.00    +0.000 A 
ATOM      3  C   UNL     1       5.185   6.027  15.932  0.00  0.00    +0.000 C 
ATOM      4  O   UNL     1       3.699   7.612  16.914  0.00  0.00    +0.000 OA
ATOM      5  C   UNL     1       2.925   7.783  18.001  0.00  0.00    +0.000 A 
ATOM      6  C   UNL     1       2.985   6.698  18.853  0.00  0.00    +0.000 A 
ATOM      7  C   UNL     1       2.197   6.717  20.077  0.00  0.00    +0.000 C 
ATOM      8  O   UNL     1       2.221   5.787  20.875  0.00  0.00    +0.000 OA
ATOM      9  C   UNL     1       1.335   7.968  20.292  0.00  0.00    +0.000 A 
ATOM     10  N   UNL     1       0.564   8.001  21.415  0.00  0.00    +0.000 NA
ATOM     11  C   UNL     1      -0.218   9.097  21.609  0.00  0.00    +0.000 A 
ATOM     12  C   UNL     1      -0.279  10.176  20.739  0.00  0.00    +0.000 A 
ATOM     13  C   UNL     1       0.511  10.136  19.600  0.00  0.00    +0.000 A 
ATOM     14  C   UNL     1       1.331   9.021  19.372  0.00  0.00    +0.000 A 
ATOM     15  C   UNL     1       2.162   8.983  18.155  0.00  0.00    +0.000 C 
ATOM     16  O   UNL     1       2.152   9.928  17.376  0.00  0.00    +0.000 OA
ENDROOT
BRANCH   1  17
ATOM     17  P   UNL     1       4.548   4.189  18.593  0.00  0.00    +0.000 P 
ATOM     18  O   UNL     1       4.326   3.422  17.317  0.00  0.00    +0.000 OA
BRANCH  17  20
ATOM     19  C   UNL     1       6.728   5.368  19.310  0.00  0.00    +0.000 C 
ATOM     20  O   UNL     1       6.046   4.140  19.146  0.00  0.00    +0.000 OA
ENDBRANCH  17  20
BRANCH  17  21
ATOM     21  O   UNL     1       3.657   3.541  19.776  0.00  0.00    +0.000 OA
ATOM     22  C   UNL     1       2.591   2.675  19.460  0.00  0.00    +0.000 C 
ENDBRANCH  17  21
ENDBRANCH   1  17
TORSDOF 3
ENDMDL
MODEL 3
REMARK VINA RESULT:      -6.7      1.636      3.231
REMARK  Name = 
REMARK  6 active torsions:
REMARK  status: ('A' for Active; 'I' for Inactive)
REMARK    1  A    between atoms: C_1  and  O_2
REMARK    2  A    between atoms: O_2  and  P_3
REMARK    3  A    between atoms: P_3  and  O_5
REMARK    4  A    between atoms: P_3  and  C_7
REMARK    5  A    between atoms: O_5  and  C_6
REMARK    6  A    between atoms: C_8  and  C_9
REMARK                            x       y       z     vdW  Elec       q    Type
REMARK                         _______ _______ _______ _____ _____    ______ ____
ROOT
ATOM      1  C   UNL     1       3.116   4.874  19.462  0.00  0.00    +0.000 A 
ATOM      2  C   UNL     1       2.504   4.460  20.632  0.00  0.00    +0.000 A 
ATOM      3  C   UNL     1       2.499   3.197  21.402  0.00  0.00    +0.000 C 
ATOM      4  O   UNL     1       1.739   5.444  21.157  0.00  0.00    +0.000 OA
ATOM      5  C   UNL     1       1.857   6.501  20.334  0.00  0.00    +0.000 A 
ATOM      6  C   UNL     1       2.690   6.233  19.266  0.00  0.00    +0.000 A 
ATOM      7  C   UNL     1       2.934   7.278  18.282  0.00  0.00    +0.000 C 
ATOM      8  O   UNL     1       3.655   7.092  17.308  0.00  0.00    +0.000 OA
ATOM      9  C   UNL     1       2.239   8.619  18.551  0.00  0.00    +0.000 A 
ATOM     10  N   UNL     1       2.472   9.625  17.662  0.00  0.00    +0.000 NA
ATOM     11  C   UNL     1       1.876  10.824  17.899  0.00  0.00    +0.000 A 
ATOM     12  C   UNL     1       1.050  11.085  18.983  0.00  0.00    +0.000 A 
ATOM     13  C   UNL     1       0.815  10.055  19.881  0.00  0.00    +0.000 A 
ATOM     14  C   UNL     1       1.414   8.805  19.665  0.00  0.00    +0.000 A 
ATOM     15  C   UNL     1       1.165   7.718  20.629  0.00  0.00    +0.000 C 
ATOM     16  O   UNL     1       0.423   7.905  21.584  0.00  0.00    +0.000 OA
ENDROOT
BRANCH   1  17
ATOM     17  P   UNL     1       4.147   3.736  18.600  0.00  0.00    +0.000 P 
ATOM     18  O   UNL     1       5.483   3.919  19.267  0.00  0.00    +0.000 OA
BRANCH  17  20
ATOM     19  C   UNL     1       2.457   1.959  17.799  0.00  0.00    +0.000 C 
ATOM     20  O   UNL     1       3.643   2.221  18.522  0.00  0.00    +0.000 OA
ENDBRANCH  17  20
BRANCH  17  21
ATOM     21  O   UNL     1       4.243   4.211  17.057  0.00  0.00    +0.000 OA
ATOM     22  C   UNL     1       5.465   4.103  16.363  0.00  0.00    +0.000 C 
ENDBRANCH  17  21
ENDBRANCH   1  17
TORSDOF 3
ENDMDL
MODEL 4
REMARK VINA RESULT:      -6.7      0.704      1.603
REMARK  Name = 
REMARK  6 active torsions:
REMARK  status: ('A' for Active; 'I' for Inactive)
REMARK    1  A    between atoms: C_1  and  O_2
REMARK    2  A    between atoms: O_2  and  P_3
REMARK    3  A    between atoms: P_3  and  O_5
REMARK    4  A    between atoms: P_3  and  C_7
REMARK    5  A    between atoms: O_5  and  C_6
REMARK    6  A    between atoms: C_8  and  C_9
REMARK                            x       y       z     vdW  Elec       q    Type
REMARK                         _______ _______ _______ _____ _____    ______ ____
ROOT
ATOM      1  C   UNL     1       3.831   5.776  18.245  0.00  0.00    +0.000 A 
ATOM      2  C   UNL     1       4.244   6.385  17.072  0.00  0.00    +0.000 A 
ATOM      3  C   UNL     1       5.148   5.994  15.969  0.00  0.00    +0.000 C 
ATOM      4  O   UNL     1       3.690   7.612  16.940  0.00  0.00    +0.000 OA
ATOM      5  C   UNL     1       2.912   7.800  18.021  0.00  0.00    +0.000 A 
ATOM      6  C   UNL     1       2.942   6.714  18.873  0.00  0.00    +0.000 A 
ATOM      7  C   UNL     1       2.145   6.751  20.091  0.00  0.00    +0.000 C 
ATOM      8  O   UNL     1       2.142   5.820  20.889  0.00  0.00    +0.000 OA
ATOM      9  C   UNL     1       1.310   8.021  20.300  0.00  0.00    +0.000 A 
ATOM     10  N   UNL     1       0.530   8.071  21.417  0.00  0.00    +0.000 NA
ATOM     11  C   UNL     1      -0.228   9.183  21.605  0.00  0.00    +0.000 A 
ATOM     12  C   UNL     1      -0.259  10.264  20.735  0.00  0.00    +0.000 A 
ATOM     13  C   UNL     1       0.539  10.206  19.603  0.00  0.00    +0.000 A 
ATOM     14  C   UNL     1       1.335   9.073  19.380  0.00  0.00    +0.000 A 
ATOM     15  C   UNL     1       2.174   9.017  18.169  0.00  0.00    +0.000 C 
ATOM     16  O   UNL     1       2.191   9.962  17.391  0.00  0.00    +0.000 OA
ENDROOT
BRANCH   1  17
ATOM     17  P   UNL     1       4.451   4.172  18.625  0.00  0.00    +0.000 P 
ATOM     18  O   UNL     1       3.873   3.901  19.988  0.00  0.00    +0.000 OA
BRANCH  17  20
ATOM     19  C   UNL     1       3.152   2.092  17.822  0.00  0.00    +0.000 C 
ATOM     20  O   UNL     1       4.183   3.021  17.549  0.00  0.00    +0.000 OA
ENDBRANCH  17  20
BRANCH  17  21
ATOM     21  O   UNL     1       6.062   4.265  18.728  0.00  0.00    +0.000 OA
ATOM     22  C   UNL     1       6.662   5.371  19.362  0.00  0.00    +0.000 C 
ENDBRANCH  17  21
ENDBRANCH   1  17
TORSDOF 3
ENDMDL
MODEL 5
REMARK VINA RESULT:      -6.6      3.725      5.141
REMARK  Name = 
REMARK  6 active torsions:
REMARK  status: ('A' for Active; 'I' for Inactive)
REMARK    1  A    between atoms: C_1  and  O_2
REMARK    2  A    between atoms: O_2  and  P_3
REMARK    3  A    between atoms: P_3  and  O_5
REMARK    4  A    between atoms: P_3  and  C_7
REMARK    5  A    between atoms: O_5  and  C_6
REMARK    6  A    between atoms: C_8  and  C_9
REMARK                            x       y       z     vdW  Elec       q    Type
REMARK                         _______ _______ _______ _____ _____    ______ ____
ROOT
ATOM      1  C   UNL     1       5.726   4.943  16.950  0.00  0.00    +0.000 A 
ATOM      2  C   UNL     1       5.535   4.191  15.804  0.00  0.00    +0.000 A 
ATOM      3  C   UNL     1       6.230   4.099  14.502  0.00  0.00    +0.000 C 
ATOM      4  O   UNL     1       4.460   3.379  15.928  0.00  0.00    +0.000 OA
ATOM      5  C   UNL     1       3.955   3.596  17.155  0.00  0.00    +0.000 A 
ATOM      6  C   UNL     1       4.679   4.544  17.851  0.00  0.00    +0.000 A 
ATOM      7  C   UNL     1       4.270   4.892  19.204  0.00  0.00    +0.000 C 
ATOM      8  O   UNL     1       4.869   5.734  19.863  0.00  0.00    +0.000 OA
ATOM      9  C   UNL     1       3.054   4.130  19.746  0.00  0.00    +0.000 A 
ATOM     10  N   UNL     1       2.666   4.413  21.022  0.00  0.00    +0.000 NA
ATOM     11  C   UNL     1       1.600   3.732  21.521  0.00  0.00    +0.000 A 
ATOM     12  C   UNL     1       0.888   2.773  20.816  0.00  0.00    +0.000 A 
ATOM     13  C   UNL     1       1.287   2.492  19.518  0.00  0.00    +0.000 A 
ATOM     14  C   UNL     1       2.382   3.178  18.973  0.00  0.00    +0.000 A 
ATOM     15  C   UNL     1       2.804   2.869  17.595  0.00  0.00    +0.000 C 
ATOM     16  O   UNL     1       2.185   2.045  16.935  0.00  0.00    +0.000 OA
ENDROOT
BRANCH   1  17
ATOM     17  P   UNL     1       7.065   6.086  16.995  0.00  0.00    +0.000 P 
ATOM     18  O   UNL     1       7.617   6.015  15.597  0.00  0.00    +0.000 OA
BRANCH  17  20
ATOM     19  C   UNL     1       7.805   8.487  17.582  0.00  0.00    +0.000 C 
ATOM     20  O   UNL     1       6.736   7.564  17.506  0.00  0.00    +0.000 OA
ENDBRANCH  17  20
BRANCH  17  21
ATOM     21  O   UNL     1       8.167   5.531  18.040  0.00  0.00    +0.000 OA
ATOM     22  C   UNL     1       7.924   5.612  19.426  0.00  0.00    +0.000 C 
ENDBRANCH  17  21
ENDBRANCH   1  17
TORSDOF 3
ENDMDL
MODEL 6
REMARK VINA RESULT:      -6.6      1.028      1.029
REMARK  Name = 
REMARK  6 active torsions:
REMARK  status: ('A' for Active; 'I' for Inactive)
REMARK    1  A    between atoms: C_1  and  O_2
REMARK    2  A    between atoms: O_2  and  P_3
REMARK    3  A    between atoms: P_3  and  O_5
REMARK    4  A    between atoms: P_3  and  C_7
REMARK    5  A    between atoms: O_5  and  C_6
REMARK    6  A    between atoms: C_8  and  C_9
REMARK                            x       y       z     vdW  Elec       q    Type
REMARK                         _______ _______ _______ _____ _____    ______ ____
ROOT
ATOM      1  C   UNL     1       3.351   5.194  18.783  0.00  0.00    +0.000 A 
ATOM      2  C   UNL     1       3.882   5.527  17.548  0.00  0.00    +0.000 A 
ATOM      3  C   UNL     1       4.721   4.814  16.560  0.00  0.00    +0.000 C 
ATOM      4  O   UNL     1       3.555   6.792  17.202  0.00  0.00    +0.000 OA
ATOM      5  C   UNL     1       2.805   7.283  18.205  0.00  0.00    +0.000 A 
ATOM      6  C   UNL     1       2.631   6.360  19.217  0.00  0.00    +0.000 A 
ATOM      7  C   UNL     1       1.834   6.729  20.379  0.00  0.00    +0.000 C 
ATOM      8  O   UNL     1       1.656   5.954  21.312  0.00  0.00    +0.000 OA
ATOM      9  C   UNL     1       1.232   8.139  20.350  0.00  0.00    +0.000 A 
ATOM     10  N   UNL     1       0.456   8.502  21.411  0.00  0.00    +0.000 NA
ATOM     11  C   UNL     1      -0.098   9.743  21.389  0.00  0.00    +0.000 A 
ATOM     12  C   UNL     1       0.075  10.658  20.361  0.00  0.00    +0.000 A 
ATOM     13  C   UNL     1       0.868  10.283  19.287  0.00  0.00    +0.000 A 
ATOM     14  C   UNL     1       1.456   9.009  19.278  0.00  0.00    +0.000 A 
ATOM     15  C   UNL     1       2.291   8.616  18.129  0.00  0.00    +0.000 C 
ATOM     16  O   UNL     1       2.485   9.405  17.214  0.00  0.00    +0.000 OA
ENDROOT
BRANCH   1  17
ATOM     17  P   UNL     1       3.674   3.591  19.436  0.00  0.00    +0.000 P 
ATOM     18  O   UNL     1       5.176   3.556  19.519  0.00  0.00    +0.000 OA
BRANCH  17  20
ATOM     19  C   UNL     1       1.600   2.708  20.691  0.00  0.00    +0.000 C 
ATOM     20  O   UNL     1       2.923   3.199  20.791  0.00  0.00    +0.000 OA
ENDBRANCH  17  20
BRANCH  17  21
ATOM     21  O   UNL     1       3.166   2.497  18.359  0.00  0.00    +0.000 OA
ATOM     22  C   UNL     1       3.780   1.230  18.302  0.00  0.00    +0.000 C 
ENDBRANCH  17  21
ENDBRANCH   1  17
TORSDOF 3
ENDMDL
MODEL 7
REMARK VINA RESULT:      -6.4      1.718      3.242
REMARK  Name = 
REMARK  6 active torsions:
REMARK  status: ('A' for Active; 'I' for Inactive)
REMARK    1  A    between atoms: C_1  and  O_2
REMARK    2  A    between atoms: O_2  and  P_3
REMARK    3  A    between atoms: P_3  and  O_5
REMARK    4  A    between atoms: P_3  and  C_7
REMARK    5  A    between atoms: O_5  and  C_6
REMARK    6  A    between atoms: C_8  and  C_9
REMARK                            x       y       z     vdW  Elec       q    Type
REMARK                         _______ _______ _______ _____ _____    ______ ____
ROOT
ATOM      1  C   UNL     1       3.053   5.162  19.517  0.00  0.00    +0.000 A 
ATOM      2  C   UNL     1       2.414   4.714  20.661  0.00  0.00    +0.000 A 
ATOM      3  C   UNL     1       2.417   3.440  21.413  0.00  0.00    +0.000 C 
ATOM      4  O   UNL     1       1.608   5.671  21.175  0.00  0.00    +0.000 OA
ATOM      5  C   UNL     1       1.725   6.743  20.372  0.00  0.00    +0.000 A 
ATOM      6  C   UNL     1       2.599   6.512  19.328  0.00  0.00    +0.000 A 
ATOM      7  C   UNL     1       2.848   7.578  18.367  0.00  0.00    +0.000 C 
ATOM      8  O   UNL     1       3.604   7.425  17.415  0.00  0.00    +0.000 OA
ATOM      9  C   UNL     1       2.110   8.896  18.632  0.00  0.00    +0.000 A 
ATOM     10  N   UNL     1       2.346   9.922  17.766  0.00  0.00    +0.000 NA
ATOM     11  C   UNL     1       1.712  11.101  18.000  0.00  0.00    +0.000 A 
ATOM     12  C   UNL     1       0.845  11.325  19.060  0.00  0.00    +0.000 A 
ATOM     13  C   UNL     1       0.607  10.276  19.935  0.00  0.00    +0.000 A 
ATOM     14  C   UNL     1       1.245   9.045  19.721  0.00  0.00    +0.000 A 
ATOM     15  C   UNL     1       0.992   7.937  20.661  0.00  0.00    +0.000 C 
ATOM     16  O   UNL     1       0.215   8.090  21.594  0.00  0.00    +0.000 OA
ENDROOT
BRANCH   1  17
ATOM     17  P   UNL     1       4.140   4.063  18.674  0.00  0.00    +0.000 P 
ATOM     18  O   UNL     1       3.916   4.411  17.227  0.00  0.00    +0.000 OA
BRANCH  17  20
ATOM     19  C   UNL     1       6.345   5.315  19.149  0.00  0.00    +0.000 C 
ATOM     20  O   UNL     1       5.672   4.071  19.129  0.00  0.00    +0.000 OA
ENDBRANCH  17  20
BRANCH  17  21
ATOM     21  O   UNL     1       3.642   2.550  18.950  0.00  0.00    +0.000 OA
ATOM     22  C   UNL     1       2.865   1.879  17.985  0.00  0.00    +0.000 C 
ENDBRANCH  17  21
ENDBRANCH   1  17
TORSDOF 3
ENDMDL
MODEL 8
REMARK VINA RESULT:      -6.3      1.078      1.326
REMARK  Name = 
REMARK  6 active torsions:
REMARK  status: ('A' for Active; 'I' for Inactive)
REMARK    1  A    between atoms: C_1  and  O_2
REMARK    2  A    between atoms: O_2  and  P_3
REMARK    3  A    between atoms: P_3  and  O_5
REMARK    4  A    between atoms: P_3  and  C_7
REMARK    5  A    between atoms: O_5  and  C_6
REMARK    6  A    between atoms: C_8  and  C_9
REMARK                            x       y       z     vdW  Elec       q    Type
REMARK                         _______ _______ _______ _____ _____    ______ ____
ROOT
ATOM      1  C   UNL     1       3.533   4.601  18.495  0.00  0.00    +0.000 A 
ATOM      2  C   UNL     1       4.080   5.008  17.290  0.00  0.00    +0.000 A 
ATOM      3  C   UNL     1       4.895   4.344  16.251  0.00  0.00    +0.000 C 
ATOM      4  O   UNL     1       3.799   6.308  17.042  0.00  0.00    +0.000 OA
ATOM      5  C   UNL     1       3.065   6.747  18.080  0.00  0.00    +0.000 A 
ATOM      6  C   UNL     1       2.854   5.756  19.018  0.00  0.00    +0.000 A 
ATOM      7  C   UNL     1       2.068   6.063  20.205  0.00  0.00    +0.000 C 
ATOM      8  O   UNL     1       1.859   5.226  21.075  0.00  0.00    +0.000 OA
ATOM      9  C   UNL     1       1.517   7.492  20.284  0.00  0.00    +0.000 A 
ATOM     10  N   UNL     1       0.752   7.800  21.369  0.00  0.00    +0.000 NA
ATOM     11  C   UNL     1       0.243   9.059  21.443  0.00  0.00    +0.000 A 
ATOM     12  C   UNL     1       0.453  10.043  20.488  0.00  0.00    +0.000 A 
ATOM     13  C   UNL     1       1.234   9.723  19.388  0.00  0.00    +0.000 A 
ATOM     14  C   UNL     1       1.776   8.434  19.282  0.00  0.00    +0.000 A 
ATOM     15  C   UNL     1       2.600   8.099  18.106  0.00  0.00    +0.000 C 
ATOM     16  O   UNL     1       2.825   8.949  17.255  0.00  0.00    +0.000 OA
ENDROOT
BRANCH   1  17
ATOM     17  P   UNL     1       3.795   2.942  19.023  0.00  0.00    +0.000 P 
ATOM     18  O   UNL     1       3.797   2.173  17.730  0.00  0.00    +0.000 OA
BRANCH  17  20
ATOM     19  C   UNL     1       5.037   1.529  20.788  0.00  0.00    +0.000 C 
ATOM     20  O   UNL     1       5.063   2.674  19.959  0.00  0.00    +0.000 OA
ENDBRANCH  17  20
BRANCH  17  21
ATOM     21  O   UNL     1       2.527   2.492  19.919  0.00  0.00    +0.000 OA
ATOM     22  C   UNL     1       1.294   2.206  19.299  0.00  0.00    +0.000 C 
ENDBRANCH  17  21
ENDBRANCH   1  17
TORSDOF 3
ENDMDL
MODEL 9
REMARK VINA RESULT:      -6.2      1.689      3.480
REMARK  Name = 
REMARK  6 active torsions:
REMARK  status: ('A' for Active; 'I' for Inactive)
REMARK    1  A    between atoms: C_1  and  O_2
REMARK    2  A    between atoms: O_2  and  P_3
REMARK    3  A    between atoms: P_3  and  O_5
REMARK    4  A    between atoms: P_3  and  C_7
REMARK    5  A    between atoms: O_5  and  C_6
REMARK    6  A    between atoms: C_8  and  C_9
REMARK                            x       y       z     vdW  Elec       q    Type
REMARK                         _______ _______ _______ _____ _____    ______ ____
ROOT
ATOM      1  C   UNL     1       3.163   5.158  19.219  0.00  0.00    +0.000 A 
ATOM      2  C   UNL     1       2.615   4.642  20.380  0.00  0.00    +0.000 A 
ATOM      3  C   UNL     1       2.693   3.333  21.064  0.00  0.00    +0.000 C 
ATOM      4  O   UNL     1       1.831   5.555  20.997  0.00  0.00    +0.000 OA
ATOM      5  C   UNL     1       1.872   6.667  20.243  0.00  0.00    +0.000 A 
ATOM      6  C   UNL     1       2.673   6.507  19.130  0.00  0.00    +0.000 A 
ATOM      7  C   UNL     1       2.834   7.624  18.209  0.00  0.00    +0.000 C 
ATOM      8  O   UNL     1       3.524   7.533  17.200  0.00  0.00    +0.000 OA
ATOM      9  C   UNL     1       2.094   8.911  18.592  0.00  0.00    +0.000 A 
ATOM     10  N   UNL     1       2.251   9.983  17.764  0.00  0.00    +0.000 NA
ATOM     11  C   UNL     1       1.614  11.136  18.102  0.00  0.00    +0.000 A 
ATOM     12  C   UNL     1       0.821  11.289  19.229  0.00  0.00    +0.000 A 
ATOM     13  C   UNL     1       0.664  10.193  20.065  0.00  0.00    +0.000 A 
ATOM     14  C   UNL     1       1.306   8.988  19.745  0.00  0.00    +0.000 A 
ATOM     15  C   UNL     1       1.141   7.830  20.642  0.00  0.00    +0.000 C 
ATOM     16  O   UNL     1       0.429   7.921  21.634  0.00  0.00    +0.000 OA
ENDROOT
BRANCH   1  17
ATOM     17  P   UNL     1       4.207   4.126  18.246  0.00  0.00    +0.000 P 
ATOM     18  O   UNL     1       3.542   2.779  18.351  0.00  0.00    +0.000 OA
BRANCH  17  20
ATOM     19  C   UNL     1       5.505   3.913  16.027  0.00  0.00    +0.000 C 
ATOM     20  O   UNL     1       4.506   4.605  16.751  0.00  0.00    +0.000 OA
ENDBRANCH  17  20
BRANCH  17  21
ATOM     21  O   UNL     1       5.660   4.069  18.953  0.00  0.00    +0.000 OA
ATOM     22  C   UNL     1       6.310   5.264  19.321  0.00  0.00    +0.000 C 
ENDBRANCH  17  21
ENDBRANCH   1  17
TORSDOF 3
ENDMDL
