MODEL 1
REMARK VINA RESULT:      -8.9      0.000      0.000
REMARK  Name = 
REMARK  9 active torsions:
REMARK  status: ('A' for Active; 'I' for Inactive)
REMARK    1  A    between atoms: C_1  and  O_2
REMARK    2  A    between atoms: O_2  and  C_3
REMARK    3  A    between atoms: C_5  and  C_6
REMARK    4  A    between atoms: C_13  and  C_14
REMARK    5  A    between atoms: C_14  and  O_15
REMARK    6  A    between atoms: O_15  and  C_16
REMARK    7  A    between atoms: C_20  and  O_21
REMARK    8  A    between atoms: O_21  and  C_22
REMARK    9  A    between atoms: C_22  and  C_23
REMARK                            x       y       z     vdW  Elec       q    Type
REMARK                         _______ _______ _______ _____ _____    ______ ____
ROOT
ATOM      1  C   UNL     1       0.903   9.048  21.370  0.00  0.00    +0.000 A 
ATOM      2  C   UNL     1       0.343   9.280  22.632  0.00  0.00    +0.000 A 
ATOM      3  C   UNL     1      -0.538  10.345  22.827  0.00  0.00    +0.000 A 
ATOM      4  C   UNL     1      -0.883  11.162  21.745  0.00  0.00    +0.000 A 
ATOM      5  C   UNL     1      -0.375  10.911  20.468  0.00  0.00    +0.000 A 
ATOM      6  C   UNL     1       0.535   9.858  20.283  0.00  0.00    +0.000 A 
ENDROOT
BRANCH   1   7
ATOM      7  O   UNL     1       1.740   7.959  21.314  0.00  0.00    +0.000 OA
BRANCH   7   8
ATOM      8  C   UNL     1       1.342   6.876  20.464  0.00  0.00    +0.000 C 
BRANCH   8  14
ATOM      9  C   UNL     1       3.243   5.313  19.732  0.00  0.00    +0.000 A 
ATOM     10  C   UNL     1       4.308   5.015  18.872  0.00  0.00    +0.000 A 
ATOM     11  C   UNL     1       4.653   5.867  17.813  0.00  0.00    +0.000 A 
ATOM     12  C   UNL     1       3.881   7.013  17.600  0.00  0.00    +0.000 A 
ATOM     13  C   UNL     1       2.819   7.320  18.458  0.00  0.00    +0.000 A 
ATOM     14  C   UNL     1       2.497   6.495  19.552  0.00  0.00    +0.000 A 
BRANCH  11  15
ATOM     15  C   UNL     1       5.819   5.557  16.987  0.00  0.00    +0.000 A 
ATOM     16  N   UNL     1       6.782   4.647  17.373  0.00  0.00    +0.000 NA
ATOM     17  N   UNL     1       7.713   4.644  16.432  0.00  0.00    +0.000 NA
ATOM     18  N   UNL     1       7.280   5.531  15.531  0.00  0.00    +0.000 N 
ATOM     19  N   UNL     1       6.109   6.128  15.803  0.00  0.00    +0.000 NA
ATOM     20  H   UNL     1       7.816   5.740  14.692  0.00  0.00    +0.000 HD
ENDBRANCH  11  15
BRANCH   9  22
ATOM     21  C   UNL     1       2.747   3.116  20.532  0.00  0.00    +0.000 C 
ATOM     22  O   UNL     1       2.890   4.514  20.794  0.00  0.00    +0.000 OA
ENDBRANCH   9  22
ENDBRANCH   8  14
ENDBRANCH   7   8
ENDBRANCH   1   7
BRANCH   5  23
ATOM     23  O   UNL     1      -0.803  11.795  19.502  0.00  0.00    +0.000 OA
BRANCH  23  24
ATOM     24  C   UNL     1      -1.288  11.227  18.281  0.00  0.00    +0.000 C 
BRANCH  24  25
ATOM     25  C   UNL     1      -2.778  11.469  18.100  0.00  0.00    +0.000 A 
ATOM     26  C   UNL     1      -3.358  11.265  16.854  0.00  0.00    +0.000 A 
ATOM     27  C   UNL     1      -4.689  11.620  16.665  0.00  0.00    +0.000 A 
ATOM     28  C   UNL     1      -5.452  12.063  17.747  0.00  0.00    +0.000 A 
ATOM     29  C   UNL     1      -6.828  12.316  17.603  0.00  0.00    +0.000 A 
ATOM     30  C   UNL     1      -7.607  12.609  18.716  0.00  0.00    +0.000 A 
ATOM     31  C   UNL     1      -7.005  12.710  19.963  0.00  0.00    +0.000 A 
ATOM     32  C   UNL     1      -5.618  12.533  20.086  0.00  0.00    +0.000 A 
ATOM     33  C   UNL     1      -4.817  12.187  19.000  0.00  0.00    +0.000 A 
ATOM     34  N   UNL     1      -3.494  11.942  19.160  0.00  0.00    +0.000 NA
ENDBRANCH  24  25
ENDBRANCH  23  24
ENDBRANCH   5  23
TORSDOF 8
ENDMDL
MODEL 2
REMARK VINA RESULT:      -8.8      2.344      4.063
REMARK  Name = 
REMARK  9 active torsions:
REMARK  status: ('A' for Active; 'I' for Inactive)
REMARK    1  A    between atoms: C_1  and  O_2
REMARK    2  A    between atoms: O_2  and  C_3
REMARK    3  A    between atoms: C_5  and  C_6
REMARK    4  A    between atoms: C_13  and  C_14
REMARK    5  A    between atoms: C_14  and  O_15
REMARK    6  A    between atoms: O_15  and  C_16
REMARK    7  A    between atoms: C_20  and  O_21
REMARK    8  A    between atoms: O_21  and  C_22
REMARK    9  A    between atoms: C_22  and  C_23
REMARK                            x       y       z     vdW  Elec       q    Type
REMARK                         _______ _______ _______ _____ _____    ______ ____
ROOT
ATOM      1  C   UNL     1       2.361   5.295  19.436  0.00  0.00    +0.000 A 
ATOM      2  C   UNL     1       1.964   5.534  20.757  0.00  0.00    +0.000 A 
ATOM      3  C   UNL     1       1.601   6.820  21.161  0.00  0.00    +0.000 A 
ATOM      4  C   UNL     1       1.607   7.864  20.230  0.00  0.00    +0.000 A 
ATOM      5  C   UNL     1       1.948   7.630  18.896  0.00  0.00    +0.000 A 
ATOM      6  C   UNL     1       2.343   6.343  18.501  0.00  0.00    +0.000 A 
ENDROOT
BRANCH   1   7
ATOM      7  O   UNL     1       2.676   3.984  19.169  0.00  0.00    +0.000 OA
BRANCH   7   8
ATOM      8  C   UNL     1       4.042   3.592  19.355  0.00  0.00    +0.000 C 
BRANCH   8  14
ATOM      9  C   UNL     1       6.030   4.631  18.105  0.00  0.00    +0.000 A 
ATOM     10  C   UNL     1       6.713   4.887  16.910  0.00  0.00    +0.000 A 
ATOM     11  C   UNL     1       6.239   4.410  15.679  0.00  0.00    +0.000 A 
ATOM     12  C   UNL     1       5.081   3.628  15.669  0.00  0.00    +0.000 A 
ATOM     13  C   UNL     1       4.389   3.372  16.859  0.00  0.00    +0.000 A 
ATOM     14  C   UNL     1       4.832   3.888  18.091  0.00  0.00    +0.000 A 
BRANCH  11  15
ATOM     15  C   UNL     1       6.941   4.766  14.447  0.00  0.00    +0.000 A 
ATOM     16  N   UNL     1       6.624   4.212  13.224  0.00  0.00    +0.000 NA
ATOM     17  N   UNL     1       7.476   4.708  12.340  0.00  0.00    +0.000 NA
ATOM     18  N   UNL     1       8.254   5.528  13.051  0.00  0.00    +0.000 N 
ATOM     19  N   UNL     1       7.976   5.624  14.361  0.00  0.00    +0.000 NA
ATOM     20  H   UNL     1       9.017   6.045  12.618  0.00  0.00    +0.000 HD
ENDBRANCH  11  15
BRANCH   9  22
ATOM     21  C   UNL     1       7.764   5.667  19.384  0.00  0.00    +0.000 C 
ATOM     22  O   UNL     1       6.453   5.101  19.327  0.00  0.00    +0.000 OA
ENDBRANCH   9  22
ENDBRANCH   8  14
ENDBRANCH   7   8
ENDBRANCH   1   7
BRANCH   5  23
ATOM     23  O   UNL     1       1.906   8.750  18.094  0.00  0.00    +0.000 OA
BRANCH  23  24
ATOM     24  C   UNL     1       1.636   9.996  18.745  0.00  0.00    +0.000 C 
BRANCH  24  25
ATOM     25  C   UNL     1       0.197  10.441  18.531  0.00  0.00    +0.000 A 
ATOM     26  C   UNL     1      -0.402  11.286  19.458  0.00  0.00    +0.000 A 
ATOM     27  C   UNL     1      -1.756  11.575  19.328  0.00  0.00    +0.000 A 
ATOM     28  C   UNL     1      -2.462  11.115  18.215  0.00  0.00    +0.000 A 
ATOM     29  C   UNL     1      -3.800  11.493  18.004  0.00  0.00    +0.000 A 
ATOM     30  C   UNL     1      -4.446  11.155  16.819  0.00  0.00    +0.000 A 
ATOM     31  C   UNL     1      -3.779  10.389  15.874  0.00  0.00    +0.000 A 
ATOM     32  C   UNL     1      -2.470   9.950  16.126  0.00  0.00    +0.000 A 
ATOM     33  C   UNL     1      -1.777  10.315  17.278  0.00  0.00    +0.000 A 
ATOM     34  N   UNL     1      -0.486   9.945  17.460  0.00  0.00    +0.000 NA
ENDBRANCH  24  25
ENDBRANCH  23  24
ENDBRANCH   5  23
TORSDOF 8
ENDMDL
MODEL 3
REMARK VINA RESULT:      -8.6      5.663     10.274
REMARK  Name = 
REMARK  9 active torsions:
REMARK  status: ('A' for Active; 'I' for Inactive)
REMARK    1  A    between atoms: C_1  and  O_2
REMARK    2  A    between atoms: O_2  and  C_3
REMARK    3  A    between atoms: C_5  and  C_6
REMARK    4  A    between atoms: C_13  and  C_14
REMARK    5  A    between atoms: C_14  and  O_15
REMARK    6  A    between atoms: O_15  and  C_16
REMARK    7  A    between atoms: C_20  and  O_21
REMARK    8  A    between atoms: O_21  and  C_22
REMARK    9  A    between atoms: C_22  and  C_23
REMARK                            x       y       z     vdW  Elec       q    Type
REMARK                         _______ _______ _______ _____ _____    ______ ____
ROOT
ATOM      1  C   UNL     1       5.689   6.254  17.301  0.00  0.00    +0.000 A 
ATOM      2  C   UNL     1       6.210   5.272  18.152  0.00  0.00    +0.000 A 
ATOM      3  C   UNL     1       7.423   5.481  18.810  0.00  0.00    +0.000 A 
ATOM      4  C   UNL     1       8.101   6.693  18.639  0.00  0.00    +0.000 A 
ATOM      5  C   UNL     1       7.566   7.705  17.837  0.00  0.00    +0.000 A 
ATOM      6  C   UNL     1       6.363   7.477  17.152  0.00  0.00    +0.000 A 
ENDROOT
BRANCH   1   7
ATOM      7  O   UNL     1       4.482   5.925  16.731  0.00  0.00    +0.000 OA
BRANCH   7   8
ATOM      8  C   UNL     1       3.569   5.166  17.532  0.00  0.00    +0.000 C 
BRANCH   8  14
ATOM      9  C   UNL     1       2.558   5.644  19.843  0.00  0.00    +0.000 A 
ATOM     10  C   UNL     1       1.934   6.523  20.738  0.00  0.00    +0.000 A 
ATOM     11  C   UNL     1       1.648   7.849  20.382  0.00  0.00    +0.000 A 
ATOM     12  C   UNL     1       2.039   8.299  19.118  0.00  0.00    +0.000 A 
ATOM     13  C   UNL     1       2.658   7.425  18.216  0.00  0.00    +0.000 A 
ATOM     14  C   UNL     1       2.904   6.080  18.549  0.00  0.00    +0.000 A 
BRANCH  11  15
ATOM     15  C   UNL     1       0.927   8.709  21.319  0.00  0.00    +0.000 A 
ATOM     16  N   UNL     1       1.524   9.255  22.438  0.00  0.00    +0.000 NA
ATOM     17  N   UNL     1       0.588   9.930  23.087  0.00  0.00    +0.000 NA
ATOM     18  N   UNL     1      -0.512   9.771  22.346  0.00  0.00    +0.000 N 
ATOM     19  N   UNL     1      -0.376   9.036  21.231  0.00  0.00    +0.000 NA
ATOM     20  H   UNL     1      -1.401  10.183  22.621  0.00  0.00    +0.000 HD
ENDBRANCH  11  15
BRANCH   9  22
ATOM     21  C   UNL     1       2.324   3.836  21.390  0.00  0.00    +0.000 C 
ATOM     22  O   UNL     1       2.833   4.332  20.150  0.00  0.00    +0.000 OA
ENDBRANCH   9  22
ENDBRANCH   8  14
ENDBRANCH   7   8
ENDBRANCH   1   7
BRANCH   5  23
ATOM     23  O   UNL     1       8.341   8.842  17.765  0.00  0.00    +0.000 OA
BRANCH  23  24
ATOM     24  C   UNL     1       8.897   9.319  18.994  0.00  0.00    +0.000 C 
BRANCH  24  25
ATOM     25  C   UNL     1       9.077  10.829  18.981  0.00  0.00    +0.000 A 
ATOM     26  C   UNL     1       8.713  11.551  17.850  0.00  0.00    +0.000 A 
ATOM     27  C   UNL     1       9.010  12.909  17.795  0.00  0.00    +0.000 A 
ATOM     28  C   UNL     1       9.556  13.548  18.909  0.00  0.00    +0.000 A 
ATOM     29  C   UNL     1       9.754  14.941  18.916  0.00  0.00    +0.000 A 
ATOM     30  C   UNL     1      10.155  15.586  20.080  0.00  0.00    +0.000 A 
ATOM     31  C   UNL     1      10.417  14.838  21.219  0.00  0.00    +0.000 A 
ATOM     32  C   UNL     1      10.291  13.440  21.182  0.00  0.00    +0.000 A 
ATOM     33  C   UNL     1       9.842  12.768  20.048  0.00  0.00    +0.000 A 
ATOM     34  N   UNL     1       9.652  11.426  20.064  0.00  0.00    +0.000 NA
ENDBRANCH  24  25
ENDBRANCH  23  24
ENDBRANCH   5  23
TORSDOF 8
ENDMDL
MODEL 4
REMARK VINA RESULT:      -8.6      1.479      2.097
REMARK  Name = 
REMARK  9 active torsions:
REMARK  status: ('A' for Active; 'I' for Inactive)
REMARK    1  A    between atoms: C_1  and  O_2
REMARK    2  A    between atoms: O_2  and  C_3
REMARK    3  A    between atoms: C_5  and  C_6
REMARK    4  A    between atoms: C_13  and  C_14
REMARK    5  A    between atoms: C_14  and  O_15
REMARK    6  A    between atoms: O_15  and  C_16
REMARK    7  A    between atoms: C_20  and  O_21
REMARK    8  A    between atoms: O_21  and  C_22
REMARK    9  A    between atoms: C_22  and  C_23
REMARK                            x       y       z     vdW  Elec       q    Type
REMARK                         _______ _______ _______ _____ _____    ______ ____
ROOT
ATOM      1  C   UNL     1       1.767   8.012  20.182  0.00  0.00    +0.000 A 
ATOM      2  C   UNL     1       1.147   8.008  21.437  0.00  0.00    +0.000 A 
ATOM      3  C   UNL     1       0.196   8.978  21.757  0.00  0.00    +0.000 A 
ATOM      4  C   UNL     1      -0.157   9.939  20.803  0.00  0.00    +0.000 A 
ATOM      5  C   UNL     1       0.412   9.924  19.527  0.00  0.00    +0.000 A 
ATOM      6  C   UNL     1       1.391   8.965  19.221  0.00  0.00    +0.000 A 
ENDROOT
BRANCH   1   7
ATOM      7  O   UNL     1       2.670   6.993  19.994  0.00  0.00    +0.000 OA
BRANCH   7   8
ATOM      8  C   UNL     1       2.234   5.875  19.210  0.00  0.00    +0.000 C 
BRANCH   8  14
ATOM      9  C   UNL     1       3.466   4.339  17.562  0.00  0.00    +0.000 A 
ATOM     10  C   UNL     1       4.401   4.161  16.534  0.00  0.00    +0.000 A 
ATOM     11  C   UNL     1       5.110   5.244  15.994  0.00  0.00    +0.000 A 
ATOM     12  C   UNL     1       4.835   6.527  16.475  0.00  0.00    +0.000 A 
ATOM     13  C   UNL     1       3.906   6.713  17.506  0.00  0.00    +0.000 A 
ATOM     14  C   UNL     1       3.226   5.625  18.086  0.00  0.00    +0.000 A 
BRANCH  11  15
ATOM     15  C   UNL     1       6.132   5.003  14.977  0.00  0.00    +0.000 A 
ATOM     16  N   UNL     1       7.364   5.625  15.000  0.00  0.00    +0.000 NA
ATOM     17  N   UNL     1       8.019   5.228  13.919  0.00  0.00    +0.000 NA
ATOM     18  N   UNL     1       7.173   4.396  13.304  0.00  0.00    +0.000 N 
ATOM     19  N   UNL     1       5.989   4.200  13.905  0.00  0.00    +0.000 NA
ATOM     20  H   UNL     1       7.419   3.944  12.425  0.00  0.00    +0.000 HD
ENDBRANCH  11  15
BRANCH   9  22
ATOM     21  C   UNL     1       3.529   2.331  18.857  0.00  0.00    +0.000 C 
ATOM     22  O   UNL     1       2.769   3.299  18.131  0.00  0.00    +0.000 OA
ENDBRANCH   9  22
ENDBRANCH   8  14
ENDBRANCH   7   8
ENDBRANCH   1   7
BRANCH   5  23
ATOM     23  O   UNL     1      -0.033  10.927  18.694  0.00  0.00    +0.000 OA
BRANCH  23  24
ATOM     24  C   UNL     1      -1.186  10.636  17.898  0.00  0.00    +0.000 C 
BRANCH  24  25
ATOM     25  C   UNL     1      -2.435  11.303  18.452  0.00  0.00    +0.000 A 
ATOM     26  C   UNL     1      -2.316  12.225  19.486  0.00  0.00    +0.000 A 
ATOM     27  C   UNL     1      -3.471  12.724  20.078  0.00  0.00    +0.000 A 
ATOM     28  C   UNL     1      -4.722  12.389  19.556  0.00  0.00    +0.000 A 
ATOM     29  C   UNL     1      -5.895  12.974  20.064  0.00  0.00    +0.000 A 
ATOM     30  C   UNL     1      -7.118  12.750  19.441  0.00  0.00    +0.000 A 
ATOM     31  C   UNL     1      -7.179  11.895  18.349  0.00  0.00    +0.000 A 
ATOM     32  C   UNL     1      -6.016  11.254  17.896  0.00  0.00    +0.000 A 
ATOM     33  C   UNL     1      -4.768  11.497  18.465  0.00  0.00    +0.000 A 
ATOM     34  N   UNL     1      -3.648  10.928  17.956  0.00  0.00    +0.000 NA
ENDBRANCH  24  25
ENDBRANCH  23  24
ENDBRANCH   5  23
TORSDOF 8
ENDMDL
MODEL 5
REMARK VINA RESULT:      -8.5      5.363     10.472
REMARK  Name = 
REMARK  9 active torsions:
REMARK  status: ('A' for Active; 'I' for Inactive)
REMARK    1  A    between atoms: C_1  and  O_2
REMARK    2  A    between atoms: O_2  and  C_3
REMARK    3  A    between atoms: C_5  and  C_6
REMARK    4  A    between atoms: C_13  and  C_14
REMARK    5  A    between atoms: C_14  and  O_15
REMARK    6  A    between atoms: O_15  and  C_16
REMARK    7  A    between atoms: C_20  and  O_21
REMARK    8  A    between atoms: O_21  and  C_22
REMARK    9  A    between atoms: C_22  and  C_23
REMARK                            x       y       z     vdW  Elec       q    Type
REMARK                         _______ _______ _______ _____ _____    ______ ____
ROOT
ATOM      1  C   UNL     1       5.222   5.761  17.161  0.00  0.00    +0.000 A 
ATOM      2  C   UNL     1       5.901   4.556  16.944  0.00  0.00    +0.000 A 
ATOM      3  C   UNL     1       7.276   4.471  17.172  0.00  0.00    +0.000 A 
ATOM      4  C   UNL     1       7.966   5.590  17.649  0.00  0.00    +0.000 A 
ATOM      5  C   UNL     1       7.293   6.783  17.924  0.00  0.00    +0.000 A 
ATOM      6  C   UNL     1       5.917   6.874  17.663  0.00  0.00    +0.000 A 
ENDROOT
BRANCH   1   7
ATOM      7  O   UNL     1       3.871   5.701  16.913  0.00  0.00    +0.000 OA
BRANCH   7   8
ATOM      8  C   UNL     1       3.080   4.906  17.805  0.00  0.00    +0.000 C 
BRANCH   8  14
ATOM      9  C   UNL     1       1.861   5.278  20.034  0.00  0.00    +0.000 A 
ATOM     10  C   UNL     1       1.298   6.143  20.980  0.00  0.00    +0.000 A 
ATOM     11  C   UNL     1       1.328   7.535  20.810  0.00  0.00    +0.000 A 
ATOM     12  C   UNL     1       1.975   8.055  19.685  0.00  0.00    +0.000 A 
ATOM     13  C   UNL     1       2.535   7.196  18.731  0.00  0.00    +0.000 A 
ATOM     14  C   UNL     1       2.467   5.798  18.872  0.00  0.00    +0.000 A 
BRANCH  11  15
ATOM     15  C   UNL     1       0.660   8.396  21.783  0.00  0.00    +0.000 A 
ATOM     16  N   UNL     1       1.349   9.277  22.593  0.00  0.00    +0.000 NA
ATOM     17  N   UNL     1       0.459   9.856  23.383  0.00  0.00    +0.000 NA
ATOM     18  N   UNL     1      -0.708   9.316  23.022  0.00  0.00    +0.000 N 
ATOM     19  N   UNL     1      -0.664   8.412  22.031  0.00  0.00    +0.000 NA
ATOM     20  H   UNL     1      -1.578   9.578  23.482  0.00  0.00    +0.000 HD
ENDBRANCH  11  15
BRANCH   9  22
ATOM     21  C   UNL     1       1.996   3.373  21.472  0.00  0.00    +0.000 C 
ATOM     22  O   UNL     1       1.831   3.908  20.157  0.00  0.00    +0.000 OA
ENDBRANCH   9  22
ENDBRANCH   8  14
ENDBRANCH   7   8
ENDBRANCH   1   7
BRANCH   5  23
ATOM     23  O   UNL     1       8.101   7.797  18.391  0.00  0.00    +0.000 OA
BRANCH  23  24
ATOM     24  C   UNL     1       8.145   8.995  17.610  0.00  0.00    +0.000 C 
BRANCH  24  25
ATOM     25  C   UNL     1       8.804  10.137  18.368  0.00  0.00    +0.000 A 
ATOM     26  C   UNL     1       9.184   9.949  19.692  0.00  0.00    +0.000 A 
ATOM     27  C   UNL     1       9.658  11.038  20.416  0.00  0.00    +0.000 A 
ATOM     28  C   UNL     1       9.856  12.264  19.780  0.00  0.00    +0.000 A 
ATOM     29  C   UNL     1      10.444  13.344  20.463  0.00  0.00    +0.000 A 
ATOM     30  C   UNL     1      10.775  14.509  19.781  0.00  0.00    +0.000 A 
ATOM     31  C   UNL     1      10.465  14.621  18.433  0.00  0.00    +0.000 A 
ATOM     32  C   UNL     1       9.809  13.569  17.776  0.00  0.00    +0.000 A 
ATOM     33  C   UNL     1       9.510  12.369  18.417  0.00  0.00    +0.000 A 
ATOM     34  N   UNL     1       8.948  11.338  17.739  0.00  0.00    +0.000 NA
ENDBRANCH  24  25
ENDBRANCH  23  24
ENDBRANCH   5  23
TORSDOF 8
ENDMDL
MODEL 6
REMARK VINA RESULT:      -8.5      1.088      2.207
REMARK  Name = 
REMARK  9 active torsions:
REMARK  status: ('A' for Active; 'I' for Inactive)
REMARK    1  A    between atoms: C_1  and  O_2
REMARK    2  A    between atoms: O_2  and  C_3
REMARK    3  A    between atoms: C_5  and  C_6
REMARK    4  A    between atoms: C_13  and  C_14
REMARK    5  A    between atoms: C_14  and  O_15
REMARK    6  A    between atoms: O_15  and  C_16
REMARK    7  A    between atoms: C_20  and  O_21
REMARK    8  A    between atoms: O_21  and  C_22
REMARK    9  A    between atoms: C_22  and  C_23
REMARK                            x       y       z     vdW  Elec       q    Type
REMARK                         _______ _______ _______ _____ _____    ______ ____
ROOT
ATOM      1  C   UNL     1       0.720   9.504  20.921  0.00  0.00    +0.000 A 
ATOM      2  C   UNL     1       0.460   8.808  22.107  0.00  0.00    +0.000 A 
ATOM      3  C   UNL     1      -0.251   9.419  23.142  0.00  0.00    +0.000 A 
ATOM      4  C   UNL     1      -0.729  10.723  22.974  0.00  0.00    +0.000 A 
ATOM      5  C   UNL     1      -0.525  11.411  21.776  0.00  0.00    +0.000 A 
ATOM      6  C   UNL     1       0.217  10.805  20.750  0.00  0.00    +0.000 A 
ENDROOT
BRANCH   1   7
ATOM      7  O   UNL     1       1.413   8.780  19.981  0.00  0.00    +0.000 OA
BRANCH   7   8
ATOM      8  C   UNL     1       1.672   7.403  20.281  0.00  0.00    +0.000 C 
BRANCH   8  14
ATOM      9  C   UNL     1       3.347   5.610  19.523  0.00  0.00    +0.000 A 
ATOM     10  C   UNL     1       4.342   5.173  18.640  0.00  0.00    +0.000 A 
ATOM     11  C   UNL     1       4.758   5.963  17.558  0.00  0.00    +0.000 A 
ATOM     12  C   UNL     1       4.126   7.191  17.347  0.00  0.00    +0.000 A 
ATOM     13  C   UNL     1       3.134   7.638  18.229  0.00  0.00    +0.000 A 
ATOM     14  C   UNL     1       2.745   6.872  19.345  0.00  0.00    +0.000 A 
BRANCH  11  15
ATOM     15  C   UNL     1       5.853   5.502  16.706  0.00  0.00    +0.000 A 
ATOM     16  N   UNL     1       6.817   4.619  17.148  0.00  0.00    +0.000 NA
ATOM     17  N   UNL     1       7.678   4.455  16.155  0.00  0.00    +0.000 NA
ATOM     18  N   UNL     1       7.204   5.226  15.173  0.00  0.00    +0.000 N 
ATOM     19  N   UNL     1       6.072   5.897  15.437  0.00  0.00    +0.000 NA
ATOM     20  H   UNL     1       7.684   5.300  14.278  0.00  0.00    +0.000 HD
ENDBRANCH  11  15
BRANCH   9  22
ATOM     21  C   UNL     1       1.898   3.910  20.377  0.00  0.00    +0.000 C 
ATOM     22  O   UNL     1       2.929   4.873  20.607  0.00  0.00    +0.000 OA
ENDBRANCH   9  22
ENDBRANCH   8  14
ENDBRANCH   7   8
ENDBRANCH   1   7
BRANCH   5  23
ATOM     23  O   UNL     1      -1.055  12.683  21.754  0.00  0.00    +0.000 OA
BRANCH  23  24
ATOM     24  C   UNL     1      -2.481  12.786  21.806  0.00  0.00    +0.000 C 
BRANCH  24  25
ATOM     25  C   UNL     1      -3.118  12.451  20.466  0.00  0.00    +0.000 A 
ATOM     26  C   UNL     1      -4.485  12.640  20.293  0.00  0.00    +0.000 A 
ATOM     27  C   UNL     1      -5.079  12.202  19.114  0.00  0.00    +0.000 A 
ATOM     28  C   UNL     1      -4.289  11.692  18.083  0.00  0.00    +0.000 A 
ATOM     29  C   UNL     1      -4.855  11.354  16.841  0.00  0.00    +0.000 A 
ATOM     30  C   UNL     1      -4.040  10.992  15.774  0.00  0.00    +0.000 A 
ATOM     31  C   UNL     1      -2.668  10.907  15.962  0.00  0.00    +0.000 A 
ATOM     32  C   UNL     1      -2.118  11.172  17.226  0.00  0.00    +0.000 A 
ATOM     33  C   UNL     1      -2.900  11.587  18.301  0.00  0.00    +0.000 A 
ATOM     34  N   UNL     1      -2.334  11.915  19.488  0.00  0.00    +0.000 NA
ENDBRANCH  24  25
ENDBRANCH  23  24
ENDBRANCH   5  23
TORSDOF 8
ENDMDL
MODEL 7
REMARK VINA RESULT:      -8.5      3.327      5.691
REMARK  Name = 
REMARK  9 active torsions:
REMARK  status: ('A' for Active; 'I' for Inactive)
REMARK    1  A    between atoms: C_1  and  O_2
REMARK    2  A    between atoms: O_2  and  C_3
REMARK    3  A    between atoms: C_5  and  C_6
REMARK    4  A    between atoms: C_13  and  C_14
REMARK    5  A    between atoms: C_14  and  O_15
REMARK    6  A    between atoms: O_15  and  C_16
REMARK    7  A    between atoms: C_20  and  O_21
REMARK    8  A    between atoms: O_21  and  C_22
REMARK    9  A    between atoms: C_22  and  C_23
REMARK                            x       y       z     vdW  Elec       q    Type
REMARK                         _______ _______ _______ _____ _____    ______ ____
ROOT
ATOM      1  C   UNL     1       3.624   3.937  20.054  0.00  0.00    +0.000 A 
ATOM      2  C   UNL     1       2.861   2.765  20.114  0.00  0.00    +0.000 A 
ATOM      3  C   UNL     1       1.499   2.824  20.416  0.00  0.00    +0.000 A 
ATOM      4  C   UNL     1       0.893   4.067  20.628  0.00  0.00    +0.000 A 
ATOM      5  C   UNL     1       1.628   5.250  20.518  0.00  0.00    +0.000 A 
ATOM      6  C   UNL     1       3.004   5.184  20.246  0.00  0.00    +0.000 A 
ENDROOT
BRANCH   1   7
ATOM      7  O   UNL     1       4.944   3.737  19.732  0.00  0.00    +0.000 OA
BRANCH   7   8
ATOM      8  C   UNL     1       5.701   4.890  19.342  0.00  0.00    +0.000 C 
BRANCH   8  14
ATOM      9  C   UNL     1       7.100   5.534  17.287  0.00  0.00    +0.000 A 
ATOM     10  C   UNL     1       7.372   5.418  15.918  0.00  0.00    +0.000 A 
ATOM     11  C   UNL     1       6.627   4.562  15.094  0.00  0.00    +0.000 A 
ATOM     12  C   UNL     1       5.621   3.785  15.675  0.00  0.00    +0.000 A 
ATOM     13  C   UNL     1       5.339   3.900  17.042  0.00  0.00    +0.000 A 
ATOM     14  C   UNL     1       6.050   4.792  17.866  0.00  0.00    +0.000 A 
BRANCH  11  15
ATOM     15  C   UNL     1       6.895   4.530  13.657  0.00  0.00    +0.000 A 
ATOM     16  N   UNL     1       6.393   3.546  12.830  0.00  0.00    +0.000 NA
ATOM     17  N   UNL     1       6.863   3.782  11.615  0.00  0.00    +0.000 NA
ATOM     18  N   UNL     1       7.612   4.880  11.755  0.00  0.00    +0.000 N 
ATOM     19  N   UNL     1       7.670   5.405  12.989  0.00  0.00    +0.000 NA
ATOM     20  H   UNL     1       8.110   5.286  10.967  0.00  0.00    +0.000 HD
ENDBRANCH  11  15
BRANCH   9  22
ATOM     21  C   UNL     1       7.742   7.774  17.820  0.00  0.00    +0.000 C 
ATOM     22  O   UNL     1       7.795   6.378  18.122  0.00  0.00    +0.000 OA
ENDBRANCH   9  22
ENDBRANCH   8  14
ENDBRANCH   7   8
ENDBRANCH   1   7
BRANCH   5  23
ATOM     23  O   UNL     1       0.900   6.396  20.750  0.00  0.00    +0.000 OA
BRANCH  23  24
ATOM     24  C   UNL     1       1.569   7.640  20.521  0.00  0.00    +0.000 C 
BRANCH  24  25
ATOM     25  C   UNL     1       0.827   8.804  21.160  0.00  0.00    +0.000 A 
ATOM     26  C   UNL     1       0.684   8.847  22.542  0.00  0.00    +0.000 A 
ATOM     27  C   UNL     1      -0.112   9.839  23.104  0.00  0.00    +0.000 A 
ATOM     28  C   UNL     1      -0.657  10.837  22.295  0.00  0.00    +0.000 A 
ATOM     29  C   UNL     1      -1.367  11.914  22.857  0.00  0.00    +0.000 A 
ATOM     30  C   UNL     1      -1.773  12.979  22.061  0.00  0.00    +0.000 A 
ATOM     31  C   UNL     1      -1.525  12.942  20.695  0.00  0.00    +0.000 A 
ATOM     32  C   UNL     1      -0.885  11.828  20.130  0.00  0.00    +0.000 A 
ATOM     33  C   UNL     1      -0.420  10.770  20.907  0.00  0.00    +0.000 A 
ATOM     34  N   UNL     1       0.267   9.744  20.346  0.00  0.00    +0.000 NA
ENDBRANCH  24  25
ENDBRANCH  23  24
ENDBRANCH   5  23
TORSDOF 8
ENDMDL
MODEL 8
REMARK VINA RESULT:      -8.4      1.348      1.665
REMARK  Name = 
REMARK  9 active torsions:
REMARK  status: ('A' for Active; 'I' for Inactive)
REMARK    1  A    between atoms: C_1  and  O_2
REMARK    2  A    between atoms: O_2  and  C_3
REMARK    3  A    between atoms: C_5  and  C_6
REMARK    4  A    between atoms: C_13  and  C_14
REMARK    5  A    between atoms: C_14  and  O_15
REMARK    6  A    between atoms: O_15  and  C_16
REMARK    7  A    between atoms: C_20  and  O_21
REMARK    8  A    between atoms: O_21  and  C_22
REMARK    9  A    between atoms: C_22  and  C_23
REMARK                            x       y       z     vdW  Elec       q    Type
REMARK                         _______ _______ _______ _____ _____    ______ ____
ROOT
ATOM      1  C   UNL     1       1.652   7.983  20.401  0.00  0.00    +0.000 A 
ATOM      2  C   UNL     1       0.976   7.975  21.627  0.00  0.00    +0.000 A 
ATOM      3  C   UNL     1      -0.009   8.927  21.895  0.00  0.00    +0.000 A 
ATOM      4  C   UNL     1      -0.341   9.871  20.918  0.00  0.00    +0.000 A 
ATOM      5  C   UNL     1       0.285   9.858  19.670  0.00  0.00    +0.000 A 
ATOM      6  C   UNL     1       1.298   8.920  19.415  0.00  0.00    +0.000 A 
ENDROOT
BRANCH   1   7
ATOM      7  O   UNL     1       2.585   6.984  20.262  0.00  0.00    +0.000 OA
BRANCH   7   8
ATOM      8  C   UNL     1       2.202   5.839  19.489  0.00  0.00    +0.000 C 
BRANCH   8  14
ATOM      9  C   UNL     1       3.605   4.346  17.943  0.00  0.00    +0.000 A 
ATOM     10  C   UNL     1       4.540   4.207  16.909  0.00  0.00    +0.000 A 
ATOM     11  C   UNL     1       5.088   5.324  16.262  0.00  0.00    +0.000 A 
ATOM     12  C   UNL     1       4.649   6.596  16.642  0.00  0.00    +0.000 A 
ATOM     13  C   UNL     1       3.719   6.743  17.678  0.00  0.00    +0.000 A 
ATOM     14  C   UNL     1       3.201   5.629  18.364  0.00  0.00    +0.000 A 
BRANCH  11  15
ATOM     15  C   UNL     1       6.117   5.135  15.242  0.00  0.00    +0.000 A 
ATOM     16  N   UNL     1       5.920   4.353  14.123  0.00  0.00    +0.000 NA
ATOM     17  N   UNL     1       7.055   4.355  13.441  0.00  0.00    +0.000 NA
ATOM     18  N   UNL     1       7.874   5.128  14.161  0.00  0.00    +0.000 N 
ATOM     19  N   UNL     1       7.360   5.654  15.284  0.00  0.00    +0.000 NA
ATOM     20  H   UNL     1       8.834   5.298  13.870  0.00  0.00    +0.000 HD
ENDBRANCH  11  15
BRANCH   9  22
ATOM     21  C   UNL     1       1.808   2.781  18.141  0.00  0.00    +0.000 C 
ATOM     22  O   UNL     1       3.063   3.274  18.614  0.00  0.00    +0.000 OA
ENDBRANCH   9  22
ENDBRANCH   8  14
ENDBRANCH   7   8
ENDBRANCH   1   7
BRANCH   5  23
ATOM     23  O   UNL     1      -0.145  10.844  18.808  0.00  0.00    +0.000 OA
BRANCH  23  24
ATOM     24  C   UNL     1      -0.809  10.411  17.616  0.00  0.00    +0.000 C 
BRANCH  24  25
ATOM     25  C   UNL     1      -2.280  10.795  17.621  0.00  0.00    +0.000 A 
ATOM     26  C   UNL     1      -3.060  10.528  16.502  0.00  0.00    +0.000 A 
ATOM     27  C   UNL     1      -4.365  11.005  16.462  0.00  0.00    +0.000 A 
ATOM     28  C   UNL     1      -4.910  11.637  17.581  0.00  0.00    +0.000 A 
ATOM     29  C   UNL     1      -6.262  12.023  17.605  0.00  0.00    +0.000 A 
ATOM     30  C   UNL     1      -6.832  12.512  18.775  0.00  0.00    +0.000 A 
ATOM     31  C   UNL     1      -6.039  12.674  19.903  0.00  0.00    +0.000 A 
ATOM     32  C   UNL     1      -4.672  12.360  19.849  0.00  0.00    +0.000 A 
ATOM     33  C   UNL     1      -4.083  11.819  18.709  0.00  0.00    +0.000 A 
ATOM     34  N   UNL     1      -2.779  11.449  18.708  0.00  0.00    +0.000 NA
ENDBRANCH  24  25
ENDBRANCH  23  24
ENDBRANCH   5  23
TORSDOF 8
ENDMDL
MODEL 9
REMARK VINA RESULT:      -8.4      3.686      4.903
REMARK  Name = 
REMARK  9 active torsions:
REMARK  status: ('A' for Active; 'I' for Inactive)
REMARK    1  A    between atoms: C_1  and  O_2
REMARK    2  A    between atoms: O_2  and  C_3
REMARK    3  A    between atoms: C_5  and  C_6
REMARK    4  A    between atoms: C_13  and  C_14
REMARK    5  A    between atoms: C_14  and  O_15
REMARK    6  A    between atoms: O_15  and  C_16
REMARK    7  A    between atoms: C_20  and  O_21
REMARK    8  A    between atoms: O_21  and  C_22
REMARK    9  A    between atoms: C_22  and  C_23
REMARK                            x       y       z     vdW  Elec       q    Type
REMARK                         _______ _______ _______ _____ _____    ______ ____
ROOT
ATOM      1  C   UNL     1       2.304   5.776  19.398  0.00  0.00    +0.000 A 
ATOM      2  C   UNL     1       2.615   6.290  18.133  0.00  0.00    +0.000 A 
ATOM      3  C   UNL     1       2.446   7.649  17.863  0.00  0.00    +0.000 A 
ATOM      4  C   UNL     1       1.992   8.502  18.875  0.00  0.00    +0.000 A 
ATOM      5  C   UNL     1       1.729   8.015  20.157  0.00  0.00    +0.000 A 
ATOM      6  C   UNL     1       1.870   6.642  20.415  0.00  0.00    +0.000 A 
ENDROOT
BRANCH   1   7
ATOM      7  O   UNL     1       2.532   4.428  19.532  0.00  0.00    +0.000 OA
BRANCH   7   8
ATOM      8  C   UNL     1       3.888   4.015  19.744  0.00  0.00    +0.000 C 
BRANCH   8  14
ATOM      9  C   UNL     1       5.950   4.747  18.402  0.00  0.00    +0.000 A 
ATOM     10  C   UNL     1       6.624   4.868  17.180  0.00  0.00    +0.000 A 
ATOM     11  C   UNL     1       6.059   4.404  15.983  0.00  0.00    +0.000 A 
ATOM     12  C   UNL     1       4.814   3.772  16.036  0.00  0.00    +0.000 A 
ATOM     13  C   UNL     1       4.131   3.652  17.252  0.00  0.00    +0.000 A 
ATOM     14  C   UNL     1       4.671   4.159  18.450  0.00  0.00    +0.000 A 
BRANCH  11  15
ATOM     15  C   UNL     1       6.763   4.620  14.721  0.00  0.00    +0.000 A 
ATOM     16  N   UNL     1       7.788   5.535  14.588  0.00  0.00    +0.000 NA
ATOM     17  N   UNL     1       8.164   5.515  13.318  0.00  0.00    +0.000 NA
ATOM     18  N   UNL     1       7.370   4.604  12.750  0.00  0.00    +0.000 N 
ATOM     19  N   UNL     1       6.484   4.000  13.558  0.00  0.00    +0.000 NA
ATOM     20  H   UNL     1       7.435   4.389  11.757  0.00  0.00    +0.000 HD
ENDBRANCH  11  15
BRANCH   9  22
ATOM     21  C   UNL     1       7.759   5.814  19.546  0.00  0.00    +0.000 C 
ATOM     22  O   UNL     1       6.464   5.211  19.591  0.00  0.00    +0.000 OA
ENDBRANCH   9  22
ENDBRANCH   8  14
ENDBRANCH   7   8
ENDBRANCH   1   7
BRANCH   5  23
ATOM     23  O   UNL     1       1.292   8.970  21.049  0.00  0.00    +0.000 OA
BRANCH  23  24
ATOM     24  C   UNL     1       1.039  10.275  20.520  0.00  0.00    +0.000 C 
BRANCH  24  25
ATOM     25  C   UNL     1       0.219  11.122  21.482  0.00  0.00    +0.000 A 
ATOM     26  C   UNL     1      -0.716  10.507  22.307  0.00  0.00    +0.000 A 
ATOM     27  C   UNL     1      -1.555  11.302  23.080  0.00  0.00    +0.000 A 
ATOM     28  C   UNL     1      -1.373  12.686  23.107  0.00  0.00    +0.000 A 
ATOM     29  C   UNL     1      -2.133  13.496  23.971  0.00  0.00    +0.000 A 
ATOM     30  C   UNL     1      -1.841  14.849  24.102  0.00  0.00    +0.000 A 
ATOM     31  C   UNL     1      -0.833  15.406  23.328  0.00  0.00    +0.000 A 
ATOM     32  C   UNL     1      -0.131  14.607  22.412  0.00  0.00    +0.000 A 
ATOM     33  C   UNL     1      -0.364  13.239  22.294  0.00  0.00    +0.000 A 
ATOM     34  N   UNL     1       0.384  12.475  21.460  0.00  0.00    +0.000 NA
ENDBRANCH  24  25
ENDBRANCH  23  24
ENDBRANCH   5  23
TORSDOF 8
ENDMDL
