MODEL 1
REMARK VINA RESULT:      -8.0      0.000      0.000
REMARK  Name = 
REMARK  9 active torsions:
REMARK  status: ('A' for Active; 'I' for Inactive)
REMARK    1  A    between atoms: C_2  and  C_3
REMARK    2  A    between atoms: C_3  and  C_16
REMARK    3  A    between atoms: C_4  and  C_5
REMARK    4  A    between atoms: C_9  and  O_10
REMARK    5  A    between atoms: O_10  and  C_11
REMARK    6  A    between atoms: C_11  and  C_12
REMARK    7  A    between atoms: C_12  and  O_14
REMARK    8  A    between atoms: C_18  and  C_19
REMARK    9  A    between atoms: C_25  and  C_26
REMARK                            x       y       z     vdW  Elec       q    Type
REMARK                         _______ _______ _______ _____ _____    ______ ____
ROOT
ATOM      1  C   UNL     1       2.214   8.083  18.649  0.00  0.00    +0.000 A 
ATOM      2  N   UNL     1       3.208   7.891  17.789  0.00  0.00    +0.000 NA
ATOM      3  C   UNL     1       3.669   6.610  18.019  0.00  0.00    +0.000 A 
ATOM      4  C   UNL     1       2.946   6.031  19.044  0.00  0.00    +0.000 A 
ATOM      5  O   UNL     1       2.008   6.954  19.436  0.00  0.00    +0.000 OA
ENDROOT
BRANCH   3   6
ATOM      6  C   UNL     1       4.772   6.027  17.275  0.00  0.00    +0.000 A 
ATOM      7  C   UNL     1       6.074   6.502  17.475  0.00  0.00    +0.000 A 
ATOM      8  C   UNL     1       7.150   5.934  16.787  0.00  0.00    +0.000 A 
ATOM      9  C   UNL     1       6.930   4.881  15.895  0.00  0.00    +0.000 A 
ATOM     10  C   UNL     1       5.642   4.403  15.686  0.00  0.00    +0.000 A 
ATOM     11  C   UNL     1       4.565   4.985  16.357  0.00  0.00    +0.000 A 
ENDBRANCH   3   6
BRANCH   4  12
ATOM     12  C   UNL     1       2.976   4.770  19.786  0.00  0.00    +0.000 A 
ATOM     13  C   UNL     1       2.077   4.540  20.842  0.00  0.00    +0.000 A 
ATOM     14  C   UNL     1       2.123   3.364  21.595  0.00  0.00    +0.000 A 
ATOM     15  C   UNL     1       3.050   2.376  21.280  0.00  0.00    +0.000 A 
ATOM     16  C   UNL     1       3.938   2.574  20.226  0.00  0.00    +0.000 A 
ATOM     17  C   UNL     1       3.907   3.765  19.486  0.00  0.00    +0.000 A 
ENDBRANCH   4  12
BRANCH   1  18
ATOM     18  C   UNL     1       1.432   9.276  18.782  0.00  0.00    +0.000 C 
ATOM     19  C   UNL     1       0.213   9.237  19.358  0.00  0.00    +0.000 C 
BRANCH  19  20
ATOM     20  C   UNL     1      -0.649  10.417  19.533  0.00  0.00    +0.000 A 
ATOM     21  C   UNL     1      -1.405  10.878  18.450  0.00  0.00    +0.000 A 
ATOM     22  C   UNL     1      -2.196  12.020  18.582  0.00  0.00    +0.000 A 
ATOM     23  C   UNL     1      -2.248  12.695  19.800  0.00  0.00    +0.000 A 
ATOM     24  C   UNL     1      -1.526  12.224  20.899  0.00  0.00    +0.000 A 
ATOM     25  C   UNL     1      -0.704  11.101  20.758  0.00  0.00    +0.000 A 
BRANCH  24  26
ATOM     26  O   UNL     1      -1.692  12.951  22.048  0.00  0.00    +0.000 OA
BRANCH  26  27
ATOM     27  C   UNL     1      -2.154  12.221  23.186  0.00  0.00    +0.000 C 
BRANCH  27  28
ATOM     28  C   UNL     1      -3.605  12.600  23.462  0.00  0.00    +0.000 C 
ATOM     29  O   UNL     1      -4.532  12.319  22.716  0.00  0.00    +0.000 OA
BRANCH  28  30
ATOM     30  O   UNL     1      -3.773  13.297  24.607  0.00  0.00    +0.000 OA
ATOM     31  H   UNL     1      -4.694  13.635  24.657  0.00  0.00    +0.000 HD
ENDBRANCH  28  30
ENDBRANCH  27  28
ENDBRANCH  26  27
ENDBRANCH  24  26
ENDBRANCH  19  20
BRANCH  18  33
ATOM     32  N   UNL     1       2.495  11.684  17.886  0.00  0.00    +0.000 NA
ATOM     33  C   UNL     1       2.013  10.592  18.292  0.00  0.00    +0.000 C 
ENDBRANCH  18  33
ENDBRANCH   1  18
TORSDOF 9
ENDMDL
MODEL 2
REMARK VINA RESULT:      -8.0      1.985      2.594
REMARK  Name = 
REMARK  9 active torsions:
REMARK  status: ('A' for Active; 'I' for Inactive)
REMARK    1  A    between atoms: C_2  and  C_3
REMARK    2  A    between atoms: C_3  and  C_16
REMARK    3  A    between atoms: C_4  and  C_5
REMARK    4  A    between atoms: C_9  and  O_10
REMARK    5  A    between atoms: O_10  and  C_11
REMARK    6  A    between atoms: C_11  and  C_12
REMARK    7  A    between atoms: C_12  and  O_14
REMARK    8  A    between atoms: C_18  and  C_19
REMARK    9  A    between atoms: C_25  and  C_26
REMARK                            x       y       z     vdW  Elec       q    Type
REMARK                         _______ _______ _______ _____ _____    ______ ____
ROOT
ATOM      1  C   UNL     1       2.259   8.006  18.598  0.00  0.00    +0.000 A 
ATOM      2  N   UNL     1       3.310   7.820  17.807  0.00  0.00    +0.000 NA
ATOM      3  C   UNL     1       3.772   6.549  18.082  0.00  0.00    +0.000 A 
ATOM      4  C   UNL     1       2.992   5.969  19.064  0.00  0.00    +0.000 A 
ATOM      5  O   UNL     1       2.017   6.883  19.383  0.00  0.00    +0.000 OA
ENDROOT
BRANCH   3   6
ATOM      6  C   UNL     1       4.931   5.973  17.419  0.00  0.00    +0.000 A 
ATOM      7  C   UNL     1       6.202   6.125  17.985  0.00  0.00    +0.000 A 
ATOM      8  C   UNL     1       7.323   5.556  17.375  0.00  0.00    +0.000 A 
ATOM      9  C   UNL     1       7.178   4.827  16.191  0.00  0.00    +0.000 A 
ATOM     10  C   UNL     1       5.921   4.673  15.618  0.00  0.00    +0.000 A 
ATOM     11  C   UNL     1       4.806   5.259  16.217  0.00  0.00    +0.000 A 
ENDBRANCH   3   6
BRANCH   4  12
ATOM     12  C   UNL     1       2.991   4.717  19.821  0.00  0.00    +0.000 A 
ATOM     13  C   UNL     1       2.129   4.545  20.918  0.00  0.00    +0.000 A 
ATOM     14  C   UNL     1       2.148   3.377  21.684  0.00  0.00    +0.000 A 
ATOM     15  C   UNL     1       3.009   2.339  21.343  0.00  0.00    +0.000 A 
ATOM     16  C   UNL     1       3.859   2.479  20.247  0.00  0.00    +0.000 A 
ATOM     17  C   UNL     1       3.856   3.662  19.494  0.00  0.00    +0.000 A 
ENDBRANCH   4  12
BRANCH   1  18
ATOM     18  C   UNL     1       1.452   9.188  18.666  0.00  0.00    +0.000 C 
ATOM     19  C   UNL     1       0.205   9.141  19.173  0.00  0.00    +0.000 C 
BRANCH  19  20
ATOM     20  C   UNL     1      -0.684  10.309  19.279  0.00  0.00    +0.000 A 
ATOM     21  C   UNL     1      -0.497  11.219  20.325  0.00  0.00    +0.000 A 
ATOM     22  C   UNL     1      -1.354  12.309  20.468  0.00  0.00    +0.000 A 
ATOM     23  C   UNL     1      -2.391  12.506  19.558  0.00  0.00    +0.000 A 
ATOM     24  C   UNL     1      -2.567  11.625  18.489  0.00  0.00    +0.000 A 
ATOM     25  C   UNL     1      -1.731  10.510  18.364  0.00  0.00    +0.000 A 
BRANCH  24  26
ATOM     26  O   UNL     1      -3.595  11.947  17.643  0.00  0.00    +0.000 OA
BRANCH  26  27
ATOM     27  C   UNL     1      -4.705  11.047  17.640  0.00  0.00    +0.000 C 
BRANCH  27  28
ATOM     28  C   UNL     1      -5.998  11.855  17.678  0.00  0.00    +0.000 C 
ATOM     29  O   UNL     1      -7.067  11.405  18.066  0.00  0.00    +0.000 OA
BRANCH  28  30
ATOM     30  O   UNL     1      -5.858  13.119  17.224  0.00  0.00    +0.000 OA
ATOM     31  H   UNL     1      -6.722  13.451  16.894  0.00  0.00    +0.000 HD
ENDBRANCH  28  30
ENDBRANCH  27  28
ENDBRANCH  26  27
ENDBRANCH  24  26
ENDBRANCH  19  20
BRANCH  18  33
ATOM     32  N   UNL     1       2.528  11.596  17.784  0.00  0.00    +0.000 NA
ATOM     33  C   UNL     1       2.040  10.505  18.184  0.00  0.00    +0.000 C 
ENDBRANCH  18  33
ENDBRANCH   1  18
TORSDOF 9
ENDMDL
MODEL 3
REMARK VINA RESULT:      -8.0      0.310      1.244
REMARK  Name = 
REMARK  9 active torsions:
REMARK  status: ('A' for Active; 'I' for Inactive)
REMARK    1  A    between atoms: C_2  and  C_3
REMARK    2  A    between atoms: C_3  and  C_16
REMARK    3  A    between atoms: C_4  and  C_5
REMARK    4  A    between atoms: C_9  and  O_10
REMARK    5  A    between atoms: O_10  and  C_11
REMARK    6  A    between atoms: C_11  and  C_12
REMARK    7  A    between atoms: C_12  and  O_14
REMARK    8  A    between atoms: C_18  and  C_19
REMARK    9  A    between atoms: C_25  and  C_26
REMARK                            x       y       z     vdW  Elec       q    Type
REMARK                         _______ _______ _______ _____ _____    ______ ____
ROOT
ATOM      1  C   UNL     1       2.229   8.081  18.675  0.00  0.00    +0.000 A 
ATOM      2  N   UNL     1       3.223   7.879  17.817  0.00  0.00    +0.000 NA
ATOM      3  C   UNL     1       3.684   6.602  18.062  0.00  0.00    +0.000 A 
ATOM      4  C   UNL     1       2.963   6.034  19.094  0.00  0.00    +0.000 A 
ATOM      5  O   UNL     1       2.024   6.962  19.476  0.00  0.00    +0.000 OA
ENDROOT
BRANCH   3   6
ATOM      6  C   UNL     1       4.788   6.010  17.324  0.00  0.00    +0.000 A 
ATOM      7  C   UNL     1       4.537   5.001  16.388  0.00  0.00    +0.000 A 
ATOM      8  C   UNL     1       5.583   4.439  15.652  0.00  0.00    +0.000 A 
ATOM      9  C   UNL     1       6.893   4.888  15.846  0.00  0.00    +0.000 A 
ATOM     10  C   UNL     1       7.155   5.887  16.776  0.00  0.00    +0.000 A 
ATOM     11  C   UNL     1       6.112   6.432  17.526  0.00  0.00    +0.000 A 
ENDBRANCH   3   6
BRANCH   4  12
ATOM     12  C   UNL     1       2.994   4.782  19.851  0.00  0.00    +0.000 A 
ATOM     13  C   UNL     1       3.907   3.767  19.517  0.00  0.00    +0.000 A 
ATOM     14  C   UNL     1       3.919   2.546  20.195  0.00  0.00    +0.000 A 
ATOM     15  C   UNL     1       3.038   2.330  21.248  0.00  0.00    +0.000 A 
ATOM     16  C   UNL     1       2.137   3.329  21.611  0.00  0.00    +0.000 A 
ATOM     17  C   UNL     1       2.110   4.546  20.913  0.00  0.00    +0.000 A 
ENDBRANCH   4  12
BRANCH   1  18
ATOM     18  C   UNL     1       1.446   9.275  18.795  0.00  0.00    +0.000 C 
ATOM     19  C   UNL     1       0.224   9.240  19.363  0.00  0.00    +0.000 C 
BRANCH  19  20
ATOM     20  C   UNL     1      -0.640  10.421  19.523  0.00  0.00    +0.000 A 
ATOM     21  C   UNL     1      -1.318  10.929  18.410  0.00  0.00    +0.000 A 
ATOM     22  C   UNL     1      -2.107  12.073  18.532  0.00  0.00    +0.000 A 
ATOM     23  C   UNL     1      -2.236  12.703  19.768  0.00  0.00    +0.000 A 
ATOM     24  C   UNL     1      -1.593  12.186  20.894  0.00  0.00    +0.000 A 
ATOM     25  C   UNL     1      -0.771  11.061  20.767  0.00  0.00    +0.000 A 
BRANCH  24  26
ATOM     26  O   UNL     1      -1.829  12.872  22.056  0.00  0.00    +0.000 OA
BRANCH  26  27
ATOM     27  C   UNL     1      -2.353  12.102  23.140  0.00  0.00    +0.000 C 
BRANCH  27  28
ATOM     28  C   UNL     1      -3.806  12.500  23.373  0.00  0.00    +0.000 C 
ATOM     29  O   UNL     1      -4.441  13.221  22.616  0.00  0.00    +0.000 OA
BRANCH  28  30
ATOM     30  O   UNL     1      -4.328  11.995  24.512  0.00  0.00    +0.000 OA
ATOM     31  H   UNL     1      -4.615  11.068  24.363  0.00  0.00    +0.000 HD
ENDBRANCH  28  30
ENDBRANCH  27  28
ENDBRANCH  26  27
ENDBRANCH  24  26
ENDBRANCH  19  20
BRANCH  18  33
ATOM     32  N   UNL     1       2.515  11.676  17.887  0.00  0.00    +0.000 NA
ATOM     33  C   UNL     1       2.030  10.587  18.298  0.00  0.00    +0.000 C 
ENDBRANCH  18  33
ENDBRANCH   1  18
TORSDOF 9
ENDMDL
MODEL 4
REMARK VINA RESULT:      -7.9      2.244      3.095
REMARK  Name = 
REMARK  9 active torsions:
REMARK  status: ('A' for Active; 'I' for Inactive)
REMARK    1  A    between atoms: C_2  and  C_3
REMARK    2  A    between atoms: C_3  and  C_16
REMARK    3  A    between atoms: C_4  and  C_5
REMARK    4  A    between atoms: C_9  and  O_10
REMARK    5  A    between atoms: O_10  and  C_11
REMARK    6  A    between atoms: C_11  and  C_12
REMARK    7  A    between atoms: C_12  and  O_14
REMARK    8  A    between atoms: C_18  and  C_19
REMARK    9  A    between atoms: C_25  and  C_26
REMARK                            x       y       z     vdW  Elec       q    Type
REMARK                         _______ _______ _______ _____ _____    ______ ____
ROOT
ATOM      1  C   UNL     1       2.287   7.707  19.006  0.00  0.00    +0.000 A 
ATOM      2  N   UNL     1       3.202   7.607  18.049  0.00  0.00    +0.000 NA
ATOM      3  C   UNL     1       3.733   6.338  18.162  0.00  0.00    +0.000 A 
ATOM      4  C   UNL     1       3.133   5.672  19.213  0.00  0.00    +0.000 A 
ATOM      5  O   UNL     1       2.200   6.530  19.743  0.00  0.00    +0.000 OA
ENDROOT
BRANCH   3   6
ATOM      6  C   UNL     1       4.784   5.845  17.287  0.00  0.00    +0.000 A 
ATOM      7  C   UNL     1       6.081   6.359  17.401  0.00  0.00    +0.000 A 
ATOM      8  C   UNL     1       7.109   5.878  16.586  0.00  0.00    +0.000 A 
ATOM      9  C   UNL     1       6.846   4.873  15.651  0.00  0.00    +0.000 A 
ATOM     10  C   UNL     1       5.561   4.357  15.527  0.00  0.00    +0.000 A 
ATOM     11  C   UNL     1       4.531   4.854  16.326  0.00  0.00    +0.000 A 
ENDBRANCH   3   6
BRANCH   4  12
ATOM     12  C   UNL     1       3.284   4.376  19.876  0.00  0.00    +0.000 A 
ATOM     13  C   UNL     1       4.329   3.507  19.519  0.00  0.00    +0.000 A 
ATOM     14  C   UNL     1       4.460   2.245  20.104  0.00  0.00    +0.000 A 
ATOM     15  C   UNL     1       3.564   1.842  21.088  0.00  0.00    +0.000 A 
ATOM     16  C   UNL     1       2.531   2.695  21.473  0.00  0.00    +0.000 A 
ATOM     17  C   UNL     1       2.387   3.951  20.867  0.00  0.00    +0.000 A 
ENDBRANCH   4  12
BRANCH   1  18
ATOM     18  C   UNL     1       1.473   8.855  19.279  0.00  0.00    +0.000 C 
ATOM     19  C   UNL     1       1.117   9.696  18.287  0.00  0.00    +0.000 C 
BRANCH  19  20
ATOM     20  C   UNL     1       0.284  10.892  18.486  0.00  0.00    +0.000 A 
ATOM     21  C   UNL     1       0.902  12.128  18.710  0.00  0.00    +0.000 A 
ATOM     22  C   UNL     1       0.131  13.266  18.943  0.00  0.00    +0.000 A 
ATOM     23  C   UNL     1      -1.260  13.179  18.937  0.00  0.00    +0.000 A 
ATOM     24  C   UNL     1      -1.890  11.960  18.679  0.00  0.00    +0.000 A 
ATOM     25  C   UNL     1      -1.118  10.810  18.482  0.00  0.00    +0.000 A 
BRANCH  24  26
ATOM     26  O   UNL     1      -3.258  12.014  18.662  0.00  0.00    +0.000 OA
BRANCH  26  27
ATOM     27  C   UNL     1      -3.919  10.883  18.088  0.00  0.00    +0.000 C 
BRANCH  27  28
ATOM     28  C   UNL     1      -4.434  11.261  16.703  0.00  0.00    +0.000 C 
ATOM     29  O   UNL     1      -3.744  11.234  15.694  0.00  0.00    +0.000 OA
BRANCH  28  30
ATOM     30  O   UNL     1      -5.727  11.650  16.695  0.00  0.00    +0.000 OA
ATOM     31  H   UNL     1      -5.780  12.629  16.750  0.00  0.00    +0.000 HD
ENDBRANCH  28  30
ENDBRANCH  27  28
ENDBRANCH  26  27
ENDBRANCH  24  26
ENDBRANCH  19  20
BRANCH  18  33
ATOM     32  N   UNL     1       0.590   9.285  21.880  0.00  0.00    +0.000 NA
ATOM     33  C   UNL     1       0.991   9.090  20.701  0.00  0.00    +0.000 C 
ENDBRANCH  18  33
ENDBRANCH   1  18
TORSDOF 9
ENDMDL
MODEL 5
REMARK VINA RESULT:      -7.9      3.017      4.021
REMARK  Name = 
REMARK  9 active torsions:
REMARK  status: ('A' for Active; 'I' for Inactive)
REMARK    1  A    between atoms: C_2  and  C_3
REMARK    2  A    between atoms: C_3  and  C_16
REMARK    3  A    between atoms: C_4  and  C_5
REMARK    4  A    between atoms: C_9  and  O_10
REMARK    5  A    between atoms: O_10  and  C_11
REMARK    6  A    between atoms: C_11  and  C_12
REMARK    7  A    between atoms: C_12  and  O_14
REMARK    8  A    between atoms: C_18  and  C_19
REMARK    9  A    between atoms: C_25  and  C_26
REMARK                            x       y       z     vdW  Elec       q    Type
REMARK                         _______ _______ _______ _____ _____    ______ ____
ROOT
ATOM      1  C   UNL     1       2.329   7.978  18.561  0.00  0.00    +0.000 A 
ATOM      2  N   UNL     1       3.506   7.866  17.956  0.00  0.00    +0.000 NA
ATOM      3  C   UNL     1       3.720   6.513  17.788  0.00  0.00    +0.000 A 
ATOM      4  C   UNL     1       2.657   5.803  18.314  0.00  0.00    +0.000 A 
ATOM      5  O   UNL     1       1.761   6.729  18.790  0.00  0.00    +0.000 OA
ENDROOT
BRANCH   3   6
ATOM      6  C   UNL     1       4.919   5.978  17.166  0.00  0.00    +0.000 A 
ATOM      7  C   UNL     1       5.991   5.562  17.965  0.00  0.00    +0.000 A 
ATOM      8  C   UNL     1       7.141   5.021  17.383  0.00  0.00    +0.000 A 
ATOM      9  C   UNL     1       7.225   4.890  15.994  0.00  0.00    +0.000 A 
ATOM     10  C   UNL     1       6.169   5.303  15.191  0.00  0.00    +0.000 A 
ATOM     11  C   UNL     1       5.030   5.863  15.771  0.00  0.00    +0.000 A 
ENDBRANCH   3   6
BRANCH   4  12
ATOM     12  C   UNL     1       2.312   4.395  18.509  0.00  0.00    +0.000 A 
ATOM     13  C   UNL     1       1.584   3.986  19.640  0.00  0.00    +0.000 A 
ATOM     14  C   UNL     1       1.288   2.641  19.869  0.00  0.00    +0.000 A 
ATOM     15  C   UNL     1       1.685   1.677  18.948  0.00  0.00    +0.000 A 
ATOM     16  C   UNL     1       2.390   2.060  17.809  0.00  0.00    +0.000 A 
ATOM     17  C   UNL     1       2.708   3.409  17.592  0.00  0.00    +0.000 A 
ENDBRANCH   4  12
BRANCH   1  18
ATOM     18  C   UNL     1       1.690   9.202  18.944  0.00  0.00    +0.000 C 
ATOM     19  C   UNL     1       1.667  10.258  18.106  0.00  0.00    +0.000 C 
BRANCH  19  20
ATOM     20  C   UNL     1       1.031  11.546  18.424  0.00  0.00    +0.000 A 
ATOM     21  C   UNL     1      -0.365  11.636  18.430  0.00  0.00    +0.000 A 
ATOM     22  C   UNL     1      -0.988  12.857  18.687  0.00  0.00    +0.000 A 
ATOM     23  C   UNL     1      -0.220  13.989  18.955  0.00  0.00    +0.000 A 
ATOM     24  C   UNL     1       1.174  13.905  18.987  0.00  0.00    +0.000 A 
ATOM     25  C   UNL     1       1.801  12.689  18.693  0.00  0.00    +0.000 A 
BRANCH  24  26
ATOM     26  O   UNL     1       1.812  15.075  19.299  0.00  0.00    +0.000 OA
BRANCH  26  27
ATOM     27  C   UNL     1       3.238  15.008  19.370  0.00  0.00    +0.000 C 
BRANCH  27  28
ATOM     28  C   UNL     1       3.829  15.753  18.177  0.00  0.00    +0.000 C 
ATOM     29  O   UNL     1       3.710  16.957  18.004  0.00  0.00    +0.000 OA
BRANCH  28  30
ATOM     30  O   UNL     1       4.487  14.951  17.312  0.00  0.00    +0.000 OA
ATOM     31  H   UNL     1       5.402  14.796  17.634  0.00  0.00    +0.000 HD
ENDBRANCH  28  30
ENDBRANCH  27  28
ENDBRANCH  26  27
ENDBRANCH  24  26
ENDBRANCH  19  20
BRANCH  18  33
ATOM     32  N   UNL     1       0.444   9.346  21.427  0.00  0.00    +0.000 NA
ATOM     33  C   UNL     1       1.009   9.280  20.301  0.00  0.00    +0.000 C 
ENDBRANCH  18  33
ENDBRANCH   1  18
TORSDOF 9
ENDMDL
MODEL 6
REMARK VINA RESULT:      -7.9      3.122      4.171
REMARK  Name = 
REMARK  9 active torsions:
REMARK  status: ('A' for Active; 'I' for Inactive)
REMARK    1  A    between atoms: C_2  and  C_3
REMARK    2  A    between atoms: C_3  and  C_16
REMARK    3  A    between atoms: C_4  and  C_5
REMARK    4  A    between atoms: C_9  and  O_10
REMARK    5  A    between atoms: O_10  and  C_11
REMARK    6  A    between atoms: C_11  and  C_12
REMARK    7  A    between atoms: C_12  and  O_14
REMARK    8  A    between atoms: C_18  and  C_19
REMARK    9  A    between atoms: C_25  and  C_26
REMARK                            x       y       z     vdW  Elec       q    Type
REMARK                         _______ _______ _______ _____ _____    ______ ____
ROOT
ATOM      1  C   UNL     1       2.404   7.902  18.486  0.00  0.00    +0.000 A 
ATOM      2  N   UNL     1       3.565   7.772  17.853  0.00  0.00    +0.000 NA
ATOM      3  C   UNL     1       3.773   6.415  17.715  0.00  0.00    +0.000 A 
ATOM      4  C   UNL     1       2.725   5.720  18.287  0.00  0.00    +0.000 A 
ATOM      5  O   UNL     1       1.842   6.659  18.763  0.00  0.00    +0.000 OA
ENDROOT
BRANCH   3   6
ATOM      6  C   UNL     1       4.955   5.862  17.074  0.00  0.00    +0.000 A 
ATOM      7  C   UNL     1       5.983   5.324  17.858  0.00  0.00    +0.000 A 
ATOM      8  C   UNL     1       7.114   4.765  17.257  0.00  0.00    +0.000 A 
ATOM      9  C   UNL     1       7.223   4.738  15.864  0.00  0.00    +0.000 A 
ATOM     10  C   UNL     1       6.210   5.271  15.077  0.00  0.00    +0.000 A 
ATOM     11  C   UNL     1       5.091   5.849  15.677  0.00  0.00    +0.000 A 
ENDBRANCH   3   6
BRANCH   4  12
ATOM     12  C   UNL     1       2.383   4.318  18.528  0.00  0.00    +0.000 A 
ATOM     13  C   UNL     1       2.780   3.319  17.622  0.00  0.00    +0.000 A 
ATOM     14  C   UNL     1       2.421   1.982  17.808  0.00  0.00    +0.000 A 
ATOM     15  C   UNL     1       1.687   1.611  18.929  0.00  0.00    +0.000 A 
ATOM     16  C   UNL     1       1.299   2.581  19.852  0.00  0.00    +0.000 A 
ATOM     17  C   UNL     1       1.639   3.927  19.651  0.00  0.00    +0.000 A 
ENDBRANCH   4  12
BRANCH   1  18
ATOM     18  C   UNL     1       1.777   9.136  18.854  0.00  0.00    +0.000 C 
ATOM     19  C   UNL     1       1.787  10.190  18.013  0.00  0.00    +0.000 C 
BRANCH  19  20
ATOM     20  C   UNL     1       1.165  11.488  18.316  0.00  0.00    +0.000 A 
ATOM     21  C   UNL     1      -0.223  11.560  18.482  0.00  0.00    +0.000 A 
ATOM     22  C   UNL     1      -0.838  12.787  18.727  0.00  0.00    +0.000 A 
ATOM     23  C   UNL     1      -0.068  13.945  18.824  0.00  0.00    +0.000 A 
ATOM     24  C   UNL     1       1.321  13.882  18.695  0.00  0.00    +0.000 A 
ATOM     25  C   UNL     1       1.936  12.658  18.412  0.00  0.00    +0.000 A 
BRANCH  24  26
ATOM     26  O   UNL     1       1.966  15.081  18.849  0.00  0.00    +0.000 OA
BRANCH  26  27
ATOM     27  C   UNL     1       3.111  15.283  18.017  0.00  0.00    +0.000 C 
BRANCH  27  28
ATOM     28  C   UNL     1       3.343  16.781  17.851  0.00  0.00    +0.000 C 
ATOM     29  O   UNL     1       2.824  17.454  16.970  0.00  0.00    +0.000 OA
BRANCH  28  30
ATOM     30  O   UNL     1       4.196  17.300  18.761  0.00  0.00    +0.000 OA
ATOM     31  H   UNL     1       4.137  16.791  19.599  0.00  0.00    +0.000 HD
ENDBRANCH  28  30
ENDBRANCH  27  28
ENDBRANCH  26  27
ENDBRANCH  24  26
ENDBRANCH  19  20
BRANCH  18  33
ATOM     32  N   UNL     1       0.486   9.305  21.311  0.00  0.00    +0.000 NA
ATOM     33  C   UNL     1       1.071   9.228  20.197  0.00  0.00    +0.000 C 
ENDBRANCH  18  33
ENDBRANCH   1  18
TORSDOF 9
ENDMDL
MODEL 7
REMARK VINA RESULT:      -7.9      2.368      3.151
REMARK  Name = 
REMARK  9 active torsions:
REMARK  status: ('A' for Active; 'I' for Inactive)
REMARK    1  A    between atoms: C_2  and  C_3
REMARK    2  A    between atoms: C_3  and  C_16
REMARK    3  A    between atoms: C_4  and  C_5
REMARK    4  A    between atoms: C_9  and  O_10
REMARK    5  A    between atoms: O_10  and  C_11
REMARK    6  A    between atoms: C_11  and  C_12
REMARK    7  A    between atoms: C_12  and  O_14
REMARK    8  A    between atoms: C_18  and  C_19
REMARK    9  A    between atoms: C_25  and  C_26
REMARK                            x       y       z     vdW  Elec       q    Type
REMARK                         _______ _______ _______ _____ _____    ______ ____
ROOT
ATOM      1  C   UNL     1       2.251   7.705  18.592  0.00  0.00    +0.000 A 
ATOM      2  N   UNL     1       3.415   7.745  17.954  0.00  0.00    +0.000 NA
ATOM      3  C   UNL     1       3.776   6.430  17.738  0.00  0.00    +0.000 A 
ATOM      4  C   UNL     1       2.816   5.589  18.267  0.00  0.00    +0.000 A 
ATOM      5  O   UNL     1       1.835   6.393  18.795  0.00  0.00    +0.000 OA
ENDROOT
BRANCH   3   6
ATOM      6  C   UNL     1       5.010   6.054  17.068  0.00  0.00    +0.000 A 
ATOM      7  C   UNL     1       4.961   5.486  15.790  0.00  0.00    +0.000 A 
ATOM      8  C   UNL     1       6.139   5.142  15.121  0.00  0.00    +0.000 A 
ATOM      9  C   UNL     1       7.378   5.368  15.729  0.00  0.00    +0.000 A 
ATOM     10  C   UNL     1       7.438   5.928  16.999  0.00  0.00    +0.000 A 
ATOM     11  C   UNL     1       6.260   6.251  17.675  0.00  0.00    +0.000 A 
ENDBRANCH   3   6
BRANCH   4  12
ATOM     12  C   UNL     1       2.638   4.145  18.426  0.00  0.00    +0.000 A 
ATOM     13  C   UNL     1       1.352   3.592  18.552  0.00  0.00    +0.000 A 
ATOM     14  C   UNL     1       1.163   2.223  18.754  0.00  0.00    +0.000 A 
ATOM     15  C   UNL     1       2.262   1.372  18.799  0.00  0.00    +0.000 A 
ATOM     16  C   UNL     1       3.546   1.895  18.657  0.00  0.00    +0.000 A 
ATOM     17  C   UNL     1       3.735   3.273  18.478  0.00  0.00    +0.000 A 
ENDBRANCH   4  12
BRANCH   1  18
ATOM     18  C   UNL     1       1.488   8.837  19.030  0.00  0.00    +0.000 C 
ATOM     19  C   UNL     1       0.986   9.713  18.137  0.00  0.00    +0.000 C 
BRANCH  19  20
ATOM     20  C   UNL     1       0.194  10.897  18.507  0.00  0.00    +0.000 A 
ATOM     21  C   UNL     1       0.853  12.085  18.842  0.00  0.00    +0.000 A 
ATOM     22  C   UNL     1       0.122  13.205  19.237  0.00  0.00    +0.000 A 
ATOM     23  C   UNL     1      -1.270  13.150  19.281  0.00  0.00    +0.000 A 
ATOM     24  C   UNL     1      -1.941  11.982  18.915  0.00  0.00    +0.000 A 
ATOM     25  C   UNL     1      -1.209  10.845  18.555  0.00  0.00    +0.000 A 
BRANCH  24  26
ATOM     26  O   UNL     1      -3.308  12.066  18.964  0.00  0.00    +0.000 OA
BRANCH  26  27
ATOM     27  C   UNL     1      -4.020  11.061  18.239  0.00  0.00    +0.000 C 
BRANCH  27  28
ATOM     28  C   UNL     1      -4.329  11.585  16.840  0.00  0.00    +0.000 C 
ATOM     29  O   UNL     1      -3.847  11.114  15.819  0.00  0.00    +0.000 OA
BRANCH  28  30
ATOM     30  O   UNL     1      -5.176  12.637  16.832  0.00  0.00    +0.000 OA
ATOM     31  H   UNL     1      -4.765  13.397  17.300  0.00  0.00    +0.000 HD
ENDBRANCH  28  30
ENDBRANCH  27  28
ENDBRANCH  26  27
ENDBRANCH  24  26
ENDBRANCH  19  20
BRANCH  18  33
ATOM     32  N   UNL     1       1.012   9.160  21.750  0.00  0.00    +0.000 NA
ATOM     33  C   UNL     1       1.228   9.014  20.517  0.00  0.00    +0.000 C 
ENDBRANCH  18  33
ENDBRANCH   1  18
TORSDOF 9
ENDMDL
MODEL 8
REMARK VINA RESULT:      -7.9      2.192      2.772
REMARK  Name = 
REMARK  9 active torsions:
REMARK  status: ('A' for Active; 'I' for Inactive)
REMARK    1  A    between atoms: C_2  and  C_3
REMARK    2  A    between atoms: C_3  and  C_16
REMARK    3  A    between atoms: C_4  and  C_5
REMARK    4  A    between atoms: C_9  and  O_10
REMARK    5  A    between atoms: O_10  and  C_11
REMARK    6  A    between atoms: C_11  and  C_12
REMARK    7  A    between atoms: C_12  and  O_14
REMARK    8  A    between atoms: C_18  and  C_19
REMARK    9  A    between atoms: C_25  and  C_26
REMARK                            x       y       z     vdW  Elec       q    Type
REMARK                         _______ _______ _______ _____ _____    ______ ____
ROOT
ATOM      1  C   UNL     1       2.273   7.697  19.021  0.00  0.00    +0.000 A 
ATOM      2  N   UNL     1       3.202   7.616  18.075  0.00  0.00    +0.000 NA
ATOM      3  C   UNL     1       3.735   6.347  18.173  0.00  0.00    +0.000 A 
ATOM      4  C   UNL     1       3.123   5.661  19.204  0.00  0.00    +0.000 A 
ATOM      5  O   UNL     1       2.180   6.507  19.735  0.00  0.00    +0.000 OA
ENDROOT
BRANCH   3   6
ATOM      6  C   UNL     1       4.800   5.872  17.305  0.00  0.00    +0.000 A 
ATOM      7  C   UNL     1       6.095   6.384  17.449  0.00  0.00    +0.000 A 
ATOM      8  C   UNL     1       7.136   5.920  16.640  0.00  0.00    +0.000 A 
ATOM      9  C   UNL     1       6.887   4.934  15.681  0.00  0.00    +0.000 A 
ATOM     10  C   UNL     1       5.605   4.422  15.526  0.00  0.00    +0.000 A 
ATOM     11  C   UNL     1       4.562   4.901  16.319  0.00  0.00    +0.000 A 
ENDBRANCH   3   6
BRANCH   4  12
ATOM     12  C   UNL     1       3.268   4.354  19.846  0.00  0.00    +0.000 A 
ATOM     13  C   UNL     1       2.360   3.938  20.836  0.00  0.00    +0.000 A 
ATOM     14  C   UNL     1       2.510   2.716  21.495  0.00  0.00    +0.000 A 
ATOM     15  C   UNL     1       3.555   1.866  21.149  0.00  0.00    +0.000 A 
ATOM     16  C   UNL     1       4.456   2.248  20.157  0.00  0.00    +0.000 A 
ATOM     17  C   UNL     1       4.318   3.486  19.513  0.00  0.00    +0.000 A 
ENDBRANCH   4  12
BRANCH   1  18
ATOM     18  C   UNL     1       1.453   8.838  19.303  0.00  0.00    +0.000 C 
ATOM     19  C   UNL     1       1.018   9.634  18.306  0.00  0.00    +0.000 C 
BRANCH  19  20
ATOM     20  C   UNL     1       0.172  10.820  18.513  0.00  0.00    +0.000 A 
ATOM     21  C   UNL     1       0.777  12.053  18.782  0.00  0.00    +0.000 A 
ATOM     22  C   UNL     1      -0.007  13.181  19.024  0.00  0.00    +0.000 A 
ATOM     23  C   UNL     1      -1.397  13.086  18.982  0.00  0.00    +0.000 A 
ATOM     24  C   UNL     1      -2.012  11.870  18.679  0.00  0.00    +0.000 A 
ATOM     25  C   UNL     1      -1.229  10.729  18.473  0.00  0.00    +0.000 A 
BRANCH  24  26
ATOM     26  O   UNL     1      -3.380  11.915  18.630  0.00  0.00    +0.000 OA
BRANCH  26  27
ATOM     27  C   UNL     1      -3.991  11.172  17.573  0.00  0.00    +0.000 C 
BRANCH  27  28
ATOM     28  C   UNL     1      -5.504  11.191  17.765  0.00  0.00    +0.000 C 
ATOM     29  O   UNL     1      -6.090  10.516  18.600  0.00  0.00    +0.000 OA
BRANCH  28  30
ATOM     30  O   UNL     1      -6.146  12.015  16.908  0.00  0.00    +0.000 OA
ATOM     31  H   UNL     1      -6.810  11.505  16.393  0.00  0.00    +0.000 HD
ENDBRANCH  28  30
ENDBRANCH  27  28
ENDBRANCH  26  27
ENDBRANCH  24  26
ENDBRANCH  19  20
BRANCH  18  33
ATOM     32  N   UNL     1       0.723   9.346  21.938  0.00  0.00    +0.000 NA
ATOM     33  C   UNL     1       1.054   9.115  20.743  0.00  0.00    +0.000 C 
ENDBRANCH  18  33
ENDBRANCH   1  18
TORSDOF 9
ENDMDL
MODEL 9
REMARK VINA RESULT:      -7.8      2.074      2.793
REMARK  Name = 
REMARK  9 active torsions:
REMARK  status: ('A' for Active; 'I' for Inactive)
REMARK    1  A    between atoms: C_2  and  C_3
REMARK    2  A    between atoms: C_3  and  C_16
REMARK    3  A    between atoms: C_4  and  C_5
REMARK    4  A    between atoms: C_9  and  O_10
REMARK    5  A    between atoms: O_10  and  C_11
REMARK    6  A    between atoms: C_11  and  C_12
REMARK    7  A    between atoms: C_12  and  O_14
REMARK    8  A    between atoms: C_18  and  C_19
REMARK    9  A    between atoms: C_25  and  C_26
REMARK                            x       y       z     vdW  Elec       q    Type
REMARK                         _______ _______ _______ _____ _____    ______ ____
ROOT
ATOM      1  C   UNL     1       2.188   8.124  18.281  0.00  0.00    +0.000 A 
ATOM      2  N   UNL     1       3.402   8.033  17.749  0.00  0.00    +0.000 NA
ATOM      3  C   UNL     1       3.696   6.686  17.702  0.00  0.00    +0.000 A 
ATOM      4  C   UNL     1       2.645   5.959  18.226  0.00  0.00    +0.000 A 
ATOM      5  O   UNL     1       1.675   6.865  18.578  0.00  0.00    +0.000 OA
ENDROOT
BRANCH   3   6
ATOM      6  C   UNL     1       4.956   6.174  17.188  0.00  0.00    +0.000 A 
ATOM      7  C   UNL     1       5.053   5.785  15.846  0.00  0.00    +0.000 A 
ATOM      8  C   UNL     1       6.264   5.316  15.330  0.00  0.00    +0.000 A 
ATOM      9  C   UNL     1       7.390   5.235  16.154  0.00  0.00    +0.000 A 
ATOM     10  C   UNL     1       7.304   5.616  17.488  0.00  0.00    +0.000 A 
ATOM     11  C   UNL     1       6.090   6.063  18.008  0.00  0.00    +0.000 A 
ENDBRANCH   3   6
BRANCH   4  12
ATOM     12  C   UNL     1       2.364   4.552  18.514  0.00  0.00    +0.000 A 
ATOM     13  C   UNL     1       1.827   4.169  19.756  0.00  0.00    +0.000 A 
ATOM     14  C   UNL     1       1.599   2.827  20.069  0.00  0.00    +0.000 A 
ATOM     15  C   UNL     1       1.871   1.841  19.127  0.00  0.00    +0.000 A 
ATOM     16  C   UNL     1       2.385   2.197  17.882  0.00  0.00    +0.000 A 
ATOM     17  C   UNL     1       2.636   3.543  17.578  0.00  0.00    +0.000 A 
ENDBRANCH   4  12
BRANCH   1  18
ATOM     18  C   UNL     1       1.464   9.335  18.531  0.00  0.00    +0.000 C 
ATOM     19  C   UNL     1       0.255   9.303  19.127  0.00  0.00    +0.000 C 
BRANCH  19  20
ATOM     20  C   UNL     1      -0.548  10.501  19.419  0.00  0.00    +0.000 A 
ATOM     21  C   UNL     1      -0.139  11.367  20.440  0.00  0.00    +0.000 A 
ATOM     22  C   UNL     1      -0.909  12.484  20.762  0.00  0.00    +0.000 A 
ATOM     23  C   UNL     1      -2.080  12.752  20.054  0.00  0.00    +0.000 A 
ATOM     24  C   UNL     1      -2.480  11.915  19.010  0.00  0.00    +0.000 A 
ATOM     25  C   UNL     1      -1.729  10.773  18.710  0.00  0.00    +0.000 A 
BRANCH  24  26
ATOM     26  O   UNL     1      -3.626  12.306  18.369  0.00  0.00    +0.000 OA
BRANCH  26  27
ATOM     27  C   UNL     1      -4.852  11.904  18.984  0.00  0.00    +0.000 C 
BRANCH  27  28
ATOM     28  C   UNL     1      -5.811  11.416  17.903  0.00  0.00    +0.000 C 
ATOM     29  O   UNL     1      -6.981  11.131  18.114  0.00  0.00    +0.000 OA
BRANCH  28  30
ATOM     30  O   UNL     1      -5.240  11.309  16.683  0.00  0.00    +0.000 OA
ATOM     31  H   UNL     1      -5.651  11.953  16.067  0.00  0.00    +0.000 HD
ENDBRANCH  28  30
ENDBRANCH  27  28
ENDBRANCH  26  27
ENDBRANCH  24  26
ENDBRANCH  19  20
BRANCH  18  33
ATOM     32  N   UNL     1       2.622  11.761  17.816  0.00  0.00    +0.000 NA
ATOM     33  C   UNL     1       2.097  10.661  18.140  0.00  0.00    +0.000 C 
ENDBRANCH  18  33
ENDBRANCH   1  18
TORSDOF 9
ENDMDL
