MODEL 1
REMARK VINA RESULT:      -6.7      0.000      0.000
REMARK  Name = 
REMARK  2 active torsions:
REMARK  status: ('A' for Active; 'I' for Inactive)
REMARK    1  A    between atoms: N_1  and  C_2
REMARK    2  A    between atoms: C_4  and  C_5
REMARK                            x       y       z     vdW  Elec       q    Type
REMARK                         _______ _______ _______ _____ _____    ______ ____
ROOT
ATOM      1  C   UNL     1       7.680   5.534  19.138  0.00  0.00    +0.000 C 
ATOM      2  C   UNL     1       6.291   5.111  18.905  0.00  0.00    +0.000 C 
ATOM      3  C   UNL     1       5.494   5.710  18.008  0.00  0.00    +0.000 C 
ATOM      4  C   UNL     1       5.852   6.879  17.152  0.00  0.00    +0.000 C 
ATOM      5  C   UNL     1       7.298   7.342  17.276  0.00  0.00    +0.000 C 
ATOM      6  C   UNL     1       8.005   6.927  18.574  0.00  0.00    +0.000 C 
ENDROOT
BRANCH   3   7
ATOM      7  C   UNL     1       4.086   5.386  18.205  0.00  0.00    +0.000 A 
ATOM      8  C   UNL     1       3.594   5.769  19.449  0.00  0.00    +0.000 A 
ATOM      9  C   UNL     1       2.397   5.253  19.922  0.00  0.00    +0.000 A 
ATOM     10  C   UNL     1       1.678   4.371  19.124  0.00  0.00    +0.000 A 
ATOM     11  C   UNL     1       2.159   4.004  17.862  0.00  0.00    +0.000 A 
ATOM     12  C   UNL     1       3.381   4.496  17.394  0.00  0.00    +0.000 A 
ENDBRANCH   3   7
BRANCH   1  13
ATOM     13  N   UNL     1       8.113   5.421  20.524  0.00  0.00    +0.000 NA
ATOM     14  H   UNL     1       8.256   6.369  20.878  0.00  0.00    +0.000 HD
ATOM     15  H   UNL     1       7.317   5.075  21.061  0.00  0.00    +0.000 HD
ENDBRANCH   1  13
TORSDOF 2
ENDMDL
MODEL 2
REMARK VINA RESULT:      -6.7      0.841      1.405
REMARK  Name = 
REMARK  2 active torsions:
REMARK  status: ('A' for Active; 'I' for Inactive)
REMARK    1  A    between atoms: N_1  and  C_2
REMARK    2  A    between atoms: C_4  and  C_5
REMARK                            x       y       z     vdW  Elec       q    Type
REMARK                         _______ _______ _______ _____ _____    ______ ____
ROOT
ATOM      1  C   UNL     1       7.752   5.560  19.035  0.00  0.00    +0.000 C 
ATOM      2  C   UNL     1       6.414   5.013  18.769  0.00  0.00    +0.000 C 
ATOM      3  C   UNL     1       5.578   5.553  17.870  0.00  0.00    +0.000 C 
ATOM      4  C   UNL     1       5.837   6.769  17.045  0.00  0.00    +0.000 C 
ATOM      5  C   UNL     1       7.230   7.364  17.204  0.00  0.00    +0.000 C 
ATOM      6  C   UNL     1       7.952   6.990  18.505  0.00  0.00    +0.000 C 
ENDROOT
BRANCH   3   7
ATOM      7  C   UNL     1       4.203   5.094  18.035  0.00  0.00    +0.000 A 
ATOM      8  C   UNL     1       3.994   3.789  17.600  0.00  0.00    +0.000 A 
ATOM      9  C   UNL     1       2.710   3.317  17.378  0.00  0.00    +0.000 A 
ATOM     10  C   UNL     1       1.630   4.155  17.626  0.00  0.00    +0.000 A 
ATOM     11  C   UNL     1       1.837   5.460  18.086  0.00  0.00    +0.000 A 
ATOM     12  C   UNL     1       3.131   5.951  18.280  0.00  0.00    +0.000 A 
ENDBRANCH   3   7
BRANCH   1  13
ATOM     13  N   UNL     1       8.172   5.458  20.427  0.00  0.00    +0.000 NA
ATOM     14  H   UNL     1       9.189   5.352  20.432  0.00  0.00    +0.000 HD
ATOM     15  H   UNL     1       8.018   6.371  20.855  0.00  0.00    +0.000 HD
ENDBRANCH   1  13
TORSDOF 2
ENDMDL
MODEL 3
REMARK VINA RESULT:      -6.7      2.343      2.951
REMARK  Name = 
REMARK  2 active torsions:
REMARK  status: ('A' for Active; 'I' for Inactive)
REMARK    1  A    between atoms: N_1  and  C_2
REMARK    2  A    between atoms: C_4  and  C_5
REMARK                            x       y       z     vdW  Elec       q    Type
REMARK                         _______ _______ _______ _____ _____    ______ ____
ROOT
ATOM      1  C   UNL     1       4.936   4.455  16.229  0.00  0.00    +0.000 C 
ATOM      2  C   UNL     1       3.760   4.159  17.061  0.00  0.00    +0.000 C 
ATOM      3  C   UNL     1       3.122   5.102  17.770  0.00  0.00    +0.000 C 
ATOM      4  C   UNL     1       3.498   6.542  17.862  0.00  0.00    +0.000 C 
ATOM      5  C   UNL     1       4.667   6.954  16.976  0.00  0.00    +0.000 C 
ATOM      6  C   UNL     1       5.593   5.809  16.545  0.00  0.00    +0.000 C 
ENDROOT
BRANCH   3   7
ATOM      7  C   UNL     1       2.242   4.538  18.788  0.00  0.00    +0.000 A 
ATOM      8  C   UNL     1       2.566   4.926  20.084  0.00  0.00    +0.000 A 
ATOM      9  C   UNL     1       2.058   4.238  21.174  0.00  0.00    +0.000 A 
ATOM     10  C   UNL     1       1.193   3.172  20.957  0.00  0.00    +0.000 A 
ATOM     11  C   UNL     1       0.847   2.795  19.655  0.00  0.00    +0.000 A 
ATOM     12  C   UNL     1       1.382   3.465  18.552  0.00  0.00    +0.000 A 
ENDBRANCH   3   7
BRANCH   1  13
ATOM     13  N   UNL     1       5.930   3.389  16.202  0.00  0.00    +0.000 NA
ATOM     14  H   UNL     1       5.483   2.565  15.794  0.00  0.00    +0.000 HD
ATOM     15  H   UNL     1       6.635   3.652  15.515  0.00  0.00    +0.000 HD
ENDBRANCH   1  13
TORSDOF 2
ENDMDL
MODEL 4
REMARK VINA RESULT:      -6.6      2.131      4.919
REMARK  Name = 
REMARK  2 active torsions:
REMARK  status: ('A' for Active; 'I' for Inactive)
REMARK    1  A    between atoms: N_1  and  C_2
REMARK    2  A    between atoms: C_4  and  C_5
REMARK                            x       y       z     vdW  Elec       q    Type
REMARK                         _______ _______ _______ _____ _____    ______ ____
ROOT
ATOM      1  C   UNL     1       3.388   2.169  18.764  0.00  0.00    +0.000 C 
ATOM      2  C   UNL     1       4.312   3.296  18.958  0.00  0.00    +0.000 C 
ATOM      3  C   UNL     1       3.983   4.561  18.654  0.00  0.00    +0.000 C 
ATOM      4  C   UNL     1       2.693   5.018  18.060  0.00  0.00    +0.000 C 
ATOM      5  C   UNL     1       1.647   3.925  17.888  0.00  0.00    +0.000 C 
ATOM      6  C   UNL     1       2.201   2.495  17.841  0.00  0.00    +0.000 C 
ENDROOT
BRANCH   3   7
ATOM      7  C   UNL     1       5.146   5.438  18.573  0.00  0.00    +0.000 A 
ATOM      8  C   UNL     1       5.104   6.325  17.502  0.00  0.00    +0.000 A 
ATOM      9  C   UNL     1       6.250   6.985  17.088  0.00  0.00    +0.000 A 
ATOM     10  C   UNL     1       7.438   6.775  17.778  0.00  0.00    +0.000 A 
ATOM     11  C   UNL     1       7.477   5.902  18.871  0.00  0.00    +0.000 A 
ATOM     12  C   UNL     1       6.332   5.209  19.271  0.00  0.00    +0.000 A 
ENDBRANCH   3   7
BRANCH   1  13
ATOM     13  N   UNL     1       4.037   0.930  18.358  0.00  0.00    +0.000 NA
ATOM     14  H   UNL     1       3.856   0.803  17.359  0.00  0.00    +0.000 HD
ATOM     15  H   UNL     1       5.044   1.087  18.407  0.00  0.00    +0.000 HD
ENDBRANCH   1  13
TORSDOF 2
ENDMDL
MODEL 5
REMARK VINA RESULT:      -6.6      0.887      1.138
REMARK  Name = 
REMARK  2 active torsions:
REMARK  status: ('A' for Active; 'I' for Inactive)
REMARK    1  A    between atoms: N_1  and  C_2
REMARK    2  A    between atoms: C_4  and  C_5
REMARK                            x       y       z     vdW  Elec       q    Type
REMARK                         _______ _______ _______ _____ _____    ______ ____
ROOT
ATOM      1  C   UNL     1       6.908   5.303  18.808  0.00  0.00    +0.000 C 
ATOM      2  C   UNL     1       5.524   4.829  18.947  0.00  0.00    +0.000 C 
ATOM      3  C   UNL     1       4.542   5.209  18.115  0.00  0.00    +0.000 C 
ATOM      4  C   UNL     1       4.673   6.163  16.976  0.00  0.00    +0.000 C 
ATOM      5  C   UNL     1       6.091   6.653  16.713  0.00  0.00    +0.000 C 
ATOM      6  C   UNL     1       7.050   6.541  17.905  0.00  0.00    +0.000 C 
ENDROOT
BRANCH   3   7
ATOM      7  C   UNL     1       3.214   4.926  18.648  0.00  0.00    +0.000 A 
ATOM      8  C   UNL     1       3.052   5.308  19.976  0.00  0.00    +0.000 A 
ATOM      9  C   UNL     1       1.991   4.823  20.724  0.00  0.00    +0.000 A 
ATOM     10  C   UNL     1       1.071   3.973  20.121  0.00  0.00    +0.000 A 
ATOM     11  C   UNL     1       1.219   3.608  18.779  0.00  0.00    +0.000 A 
ATOM     12  C   UNL     1       2.305   4.068  18.029  0.00  0.00    +0.000 A 
ENDBRANCH   3   7
BRANCH   1  13
ATOM     13  N   UNL     1       7.600   5.503  20.075  0.00  0.00    +0.000 NA
ATOM     14  H   UNL     1       7.867   6.488  20.126  0.00  0.00    +0.000 HD
ATOM     15  H   UNL     1       6.907   5.398  20.816  0.00  0.00    +0.000 HD
ENDBRANCH   1  13
TORSDOF 2
ENDMDL
MODEL 6
REMARK VINA RESULT:      -6.6      1.694      2.148
REMARK  Name = 
REMARK  2 active torsions:
REMARK  status: ('A' for Active; 'I' for Inactive)
REMARK    1  A    between atoms: N_1  and  C_2
REMARK    2  A    between atoms: C_4  and  C_5
REMARK                            x       y       z     vdW  Elec       q    Type
REMARK                         _______ _______ _______ _____ _____    ______ ____
ROOT
ATOM      1  C   UNL     1       7.055   4.831  16.965  0.00  0.00    +0.000 C 
ATOM      2  C   UNL     1       5.730   4.238  17.198  0.00  0.00    +0.000 C 
ATOM      3  C   UNL     1       4.622   4.980  17.343  0.00  0.00    +0.000 C 
ATOM      4  C   UNL     1       4.550   6.470  17.328  0.00  0.00    +0.000 C 
ATOM      5  C   UNL     1       5.868   7.169  17.023  0.00  0.00    +0.000 C 
ATOM      6  C   UNL     1       7.126   6.333  17.291  0.00  0.00    +0.000 C 
ENDROOT
BRANCH   3   7
ATOM      7  C   UNL     1       3.516   4.227  17.924  0.00  0.00    +0.000 A 
ATOM      8  C   UNL     1       3.843   2.915  18.249  0.00  0.00    +0.000 A 
ATOM      9  C   UNL     1       2.849   1.980  18.494  0.00  0.00    +0.000 A 
ATOM     10  C   UNL     1       1.519   2.380  18.442  0.00  0.00    +0.000 A 
ATOM     11  C   UNL     1       1.188   3.705  18.139  0.00  0.00    +0.000 A 
ATOM     12  C   UNL     1       2.185   4.642  17.859  0.00  0.00    +0.000 A 
ENDBRANCH   3   7
BRANCH   1  13
ATOM     13  N   UNL     1       8.151   4.109  17.599  0.00  0.00    +0.000 NA
ATOM     14  H   UNL     1       8.124   3.148  17.252  0.00  0.00    +0.000 HD
ATOM     15  H   UNL     1       9.019   4.484  17.218  0.00  0.00    +0.000 HD
ENDBRANCH   1  13
TORSDOF 2
ENDMDL
MODEL 7
REMARK VINA RESULT:      -6.5      3.138      5.338
REMARK  Name = 
REMARK  2 active torsions:
REMARK  status: ('A' for Active; 'I' for Inactive)
REMARK    1  A    between atoms: N_1  and  C_2
REMARK    2  A    between atoms: C_4  and  C_5
REMARK                            x       y       z     vdW  Elec       q    Type
REMARK                         _______ _______ _______ _____ _____    ______ ____
ROOT
ATOM      1  C   UNL     1       1.477   2.695  19.217  0.00  0.00    +0.000 C 
ATOM      2  C   UNL     1       2.517   3.236  18.331  0.00  0.00    +0.000 C 
ATOM      3  C   UNL     1       3.144   4.397  18.576  0.00  0.00    +0.000 C 
ATOM      4  C   UNL     1       2.881   5.315  19.721  0.00  0.00    +0.000 C 
ATOM      5  C   UNL     1       1.864   4.801  20.732  0.00  0.00    +0.000 C 
ATOM      6  C   UNL     1       0.903   3.730  20.200  0.00  0.00    +0.000 C 
ENDROOT
BRANCH   3   7
ATOM      7  C   UNL     1       3.847   4.912  17.406  0.00  0.00    +0.000 A 
ATOM      8  C   UNL     1       4.420   3.920  16.616  0.00  0.00    +0.000 A 
ATOM      9  C   UNL     1       5.384   4.240  15.673  0.00  0.00    +0.000 A 
ATOM     10  C   UNL     1       5.750   5.570  15.505  0.00  0.00    +0.000 A 
ATOM     11  C   UNL     1       5.158   6.571  16.281  0.00  0.00    +0.000 A 
ATOM     12  C   UNL     1       4.209   6.251  17.255  0.00  0.00    +0.000 A 
ENDBRANCH   3   7
BRANCH   1  13
ATOM     13  N   UNL     1       0.408   1.991  18.520  0.00  0.00    +0.000 NA
ATOM     14  H   UNL     1      -0.405   2.611  18.504  0.00  0.00    +0.000 HD
ATOM     15  H   UNL     1       0.683   1.920  17.541  0.00  0.00    +0.000 HD
ENDBRANCH   1  13
TORSDOF 2
ENDMDL
MODEL 8
REMARK VINA RESULT:      -6.5      2.503      3.186
REMARK  Name = 
REMARK  2 active torsions:
REMARK  status: ('A' for Active; 'I' for Inactive)
REMARK    1  A    between atoms: N_1  and  C_2
REMARK    2  A    between atoms: C_4  and  C_5
REMARK                            x       y       z     vdW  Elec       q    Type
REMARK                         _______ _______ _______ _____ _____    ______ ____
ROOT
ATOM      1  C   UNL     1       5.161   4.363  15.831  0.00  0.00    +0.000 C 
ATOM      2  C   UNL     1       4.073   4.007  16.753  0.00  0.00    +0.000 C 
ATOM      3  C   UNL     1       3.467   4.909  17.539  0.00  0.00    +0.000 C 
ATOM      4  C   UNL     1       3.800   6.360  17.634  0.00  0.00    +0.000 C 
ATOM      5  C   UNL     1       4.873   6.834  16.662  0.00  0.00    +0.000 C 
ATOM      6  C   UNL     1       5.797   5.732  16.124  0.00  0.00    +0.000 C 
ENDROOT
BRANCH   3   7
ATOM      7  C   UNL     1       2.699   4.291  18.613  0.00  0.00    +0.000 A 
ATOM      8  C   UNL     1       2.061   3.113  18.238  0.00  0.00    +0.000 A 
ATOM      9  C   UNL     1       1.043   2.584  19.016  0.00  0.00    +0.000 A 
ATOM     10  C   UNL     1       0.688   3.229  20.195  0.00  0.00    +0.000 A 
ATOM     11  C   UNL     1       1.345   4.401  20.586  0.00  0.00    +0.000 A 
ATOM     12  C   UNL     1       2.349   4.956  19.789  0.00  0.00    +0.000 A 
ENDBRANCH   3   7
BRANCH   1  13
ATOM     13  N   UNL     1       6.185   3.334  15.692  0.00  0.00    +0.000 NA
ATOM     14  H   UNL     1       5.842   2.496  16.167  0.00  0.00    +0.000 HD
ATOM     15  H   UNL     1       6.211   3.067  14.708  0.00  0.00    +0.000 HD
ENDBRANCH   1  13
TORSDOF 2
ENDMDL
MODEL 9
REMARK VINA RESULT:      -6.5      1.778      2.565
REMARK  Name = 
REMARK  2 active torsions:
REMARK  status: ('A' for Active; 'I' for Inactive)
REMARK    1  A    between atoms: N_1  and  C_2
REMARK    2  A    between atoms: C_4  and  C_5
REMARK                            x       y       z     vdW  Elec       q    Type
REMARK                         _______ _______ _______ _____ _____    ______ ____
ROOT
ATOM      1  C   UNL     1       6.193   4.704  17.427  0.00  0.00    +0.000 C 
ATOM      2  C   UNL     1       5.061   3.998  18.045  0.00  0.00    +0.000 C 
ATOM      3  C   UNL     1       3.854   4.564  18.200  0.00  0.00    +0.000 C 
ATOM      4  C   UNL     1       3.479   5.957  17.820  0.00  0.00    +0.000 C 
ATOM      5  C   UNL     1       4.573   6.741  17.108  0.00  0.00    +0.000 C 
ATOM      6  C   UNL     1       6.000   6.227  17.341  0.00  0.00    +0.000 C 
ENDROOT
BRANCH   3   7
ATOM      7  C   UNL     1       3.014   3.841  19.148  0.00  0.00    +0.000 A 
ATOM      8  C   UNL     1       1.697   4.290  19.182  0.00  0.00    +0.000 A 
ATOM      9  C   UNL     1       0.865   3.951  20.237  0.00  0.00    +0.000 A 
ATOM     10  C   UNL     1       1.352   3.129  21.246  0.00  0.00    +0.000 A 
ATOM     11  C   UNL     1       2.669   2.657  21.201  0.00  0.00    +0.000 A 
ATOM     12  C   UNL     1       3.522   3.023  20.157  0.00  0.00    +0.000 A 
ENDBRANCH   3   7
BRANCH   1  13
ATOM     13  N   UNL     1       7.488   4.377  18.010  0.00  0.00    +0.000 NA
ATOM     14  H   UNL     1       8.199   4.882  17.476  0.00  0.00    +0.000 HD
ATOM     15  H   UNL     1       7.521   4.809  18.933  0.00  0.00    +0.000 HD
ENDBRANCH   1  13
TORSDOF 2
ENDMDL
