MODEL 1
REMARK VINA RESULT:      -8.0      0.000      0.000
REMARK  Name = 
REMARK  9 active torsions:
REMARK  status: ('A' for Active; 'I' for Inactive)
REMARK    1  A    between atoms: C_1  and  C_2
REMARK    2  A    between atoms: C_2  and  C_3
REMARK    3  A    between atoms: C_2  and  C_4
REMARK    4  A    between atoms: C_2  and  C_5
REMARK    5  A    between atoms: C_8  and  N_9
REMARK    6  A    between atoms: C_10  and  C_12
REMARK    7  A    between atoms: C_12  and  O_13
REMARK    8  A    between atoms: O_13  and  C_14
REMARK    9  A    between atoms: C_17  and  N_18
REMARK                            x       y       z     vdW  Elec       q    Type
REMARK                         _______ _______ _______ _____ _____    ______ ____
ROOT
ATOM      1  N   UNL     1       2.307   5.734  20.961  0.00  0.00    +0.000 N 
ATOM      2  C   UNL     1       1.660   4.513  20.816  0.00  0.00    +0.000 C 
ATOM      3  O   UNL     1       0.558   4.327  20.306  0.00  0.00    +0.000 OA
ATOM      4  H   UNL     1       3.226   5.726  21.386  0.00  0.00    +0.000 HD
ENDROOT
BRANCH   1   8
ATOM      5  C   UNL     1       0.936   9.583  19.742  0.00  0.00    +0.000 A 
ATOM      6  C   UNL     1       1.753   8.810  18.906  0.00  0.00    +0.000 A 
ATOM      7  C   UNL     1       2.197   7.538  19.283  0.00  0.00    +0.000 A 
ATOM      8  C   UNL     1       1.847   6.996  20.513  0.00  0.00    +0.000 A 
ATOM      9  C   UNL     1       1.013   7.739  21.356  0.00  0.00    +0.000 A 
ATOM     10  C   UNL     1       0.563   9.012  20.973  0.00  0.00    +0.000 A 
BRANCH   5  12
ATOM     11  C   UNL     1       1.575  11.811  18.609  0.00  0.00    +0.000 C 
ATOM     12  C   UNL     1       0.487  11.002  19.355  0.00  0.00    +0.000 C 
ATOM     13  C   UNL     1       0.128  11.787  20.633  0.00  0.00    +0.000 C 
ATOM     14  C   UNL     1      -0.746  10.941  18.430  0.00  0.00    +0.000 C 
ENDBRANCH   5  12
ENDBRANCH   1   8
BRANCH   2  15
ATOM     15  C   UNL     1       2.464   3.341  21.356  0.00  0.00    +0.000 C 
BRANCH  15  16
ATOM     16  O   UNL     1       2.683   2.458  20.264  0.00  0.00    +0.000 OA
BRANCH  16  17
ATOM     17  C   UNL     1       3.359   2.979  19.199  0.00  0.00    +0.000 A 
ATOM     18  C   UNL     1       4.627   3.480  19.484  0.00  0.00    +0.000 A 
ATOM     19  C   UNL     1       5.450   3.967  18.463  0.00  0.00    +0.000 A 
ATOM     20  C   UNL     1       5.009   3.945  17.133  0.00  0.00    +0.000 A 
ATOM     21  C   UNL     1       3.723   3.459  16.855  0.00  0.00    +0.000 A 
ATOM     22  C   UNL     1       2.904   2.977  17.884  0.00  0.00    +0.000 A 
BRANCH  20  23
ATOM     23  N   UNL     1       5.862   4.383  16.079  0.00  0.00    +0.000 N 
ATOM     24  C   UNL     1       5.670   4.221  14.722  0.00  0.00    +0.000 A 
ATOM     25  C   UNL     1       6.739   4.829  14.107  0.00  0.00    +0.000 A 
ATOM     26  N   UNL     1       7.590   5.362  15.032  0.00  0.00    +0.000 NA
ATOM     27  C   UNL     1       7.045   5.084  16.194  0.00  0.00    +0.000 A 
ENDBRANCH  20  23
ENDBRANCH  16  17
ENDBRANCH  15  16
ENDBRANCH   2  15
TORSDOF 6
ENDMDL
MODEL 2
REMARK VINA RESULT:      -7.8      0.204      1.275
REMARK  Name = 
REMARK  9 active torsions:
REMARK  status: ('A' for Active; 'I' for Inactive)
REMARK    1  A    between atoms: C_1  and  C_2
REMARK    2  A    between atoms: C_2  and  C_3
REMARK    3  A    between atoms: C_2  and  C_4
REMARK    4  A    between atoms: C_2  and  C_5
REMARK    5  A    between atoms: C_8  and  N_9
REMARK    6  A    between atoms: C_10  and  C_12
REMARK    7  A    between atoms: C_12  and  O_13
REMARK    8  A    between atoms: O_13  and  C_14
REMARK    9  A    between atoms: C_17  and  N_18
REMARK                            x       y       z     vdW  Elec       q    Type
REMARK                         _______ _______ _______ _____ _____    ______ ____
ROOT
ATOM      1  N   UNL     1       2.174   5.758  21.027  0.00  0.00    +0.000 N 
ATOM      2  C   UNL     1       1.530   4.545  20.821  0.00  0.00    +0.000 C 
ATOM      3  O   UNL     1       0.463   4.374  20.237  0.00  0.00    +0.000 OA
ATOM      4  H   UNL     1       3.063   5.738  21.511  0.00  0.00    +0.000 HD
ENDROOT
BRANCH   1   8
ATOM      5  C   UNL     1       0.917   9.637  19.780  0.00  0.00    +0.000 A 
ATOM      6  C   UNL     1       1.725   8.842  18.957  0.00  0.00    +0.000 A 
ATOM      7  C   UNL     1       2.131   7.559  19.343  0.00  0.00    +0.000 A 
ATOM      8  C   UNL     1       1.752   7.030  20.570  0.00  0.00    +0.000 A 
ATOM      9  C   UNL     1       0.927   7.797  21.400  0.00  0.00    +0.000 A 
ATOM     10  C   UNL     1       0.515   9.080  21.008  0.00  0.00    +0.000 A 
BRANCH   5  12
ATOM     11  C   UNL     1       0.173  11.970  20.593  0.00  0.00    +0.000 C 
ATOM     12  C   UNL     1       0.510  11.066  19.383  0.00  0.00    +0.000 C 
ATOM     13  C   UNL     1      -0.749  11.007  18.493  0.00  0.00    +0.000 C 
ATOM     14  C   UNL     1       1.651  11.754  18.608  0.00  0.00    +0.000 C 
ENDBRANCH   5  12
ENDBRANCH   1   8
BRANCH   2  15
ATOM     15  C   UNL     1       2.289   3.359  21.394  0.00  0.00    +0.000 C 
BRANCH  15  16
ATOM     16  O   UNL     1       2.540   2.472  20.311  0.00  0.00    +0.000 OA
BRANCH  16  17
ATOM     17  C   UNL     1       3.452   2.896  19.389  0.00  0.00    +0.000 A 
ATOM     18  C   UNL     1       3.090   2.702  18.058  0.00  0.00    +0.000 A 
ATOM     19  C   UNL     1       3.904   3.167  17.020  0.00  0.00    +0.000 A 
ATOM     20  C   UNL     1       5.094   3.848  17.310  0.00  0.00    +0.000 A 
ATOM     21  C   UNL     1       5.464   4.021  18.652  0.00  0.00    +0.000 A 
ATOM     22  C   UNL     1       4.646   3.548  19.685  0.00  0.00    +0.000 A 
BRANCH  20  23
ATOM     23  N   UNL     1       5.901   4.377  16.262  0.00  0.00    +0.000 N 
ATOM     24  C   UNL     1       5.836   4.074  14.918  0.00  0.00    +0.000 A 
ATOM     25  C   UNL     1       6.790   4.849  14.301  0.00  0.00    +0.000 A 
ATOM     26  N   UNL     1       7.449   5.621  15.213  0.00  0.00    +0.000 NA
ATOM     27  C   UNL     1       6.901   5.322  16.370  0.00  0.00    +0.000 A 
ENDBRANCH  20  23
ENDBRANCH  16  17
ENDBRANCH  15  16
ENDBRANCH   2  15
TORSDOF 6
ENDMDL
MODEL 3
REMARK VINA RESULT:      -7.6      0.695      1.434
REMARK  Name = 
REMARK  9 active torsions:
REMARK  status: ('A' for Active; 'I' for Inactive)
REMARK    1  A    between atoms: C_1  and  C_2
REMARK    2  A    between atoms: C_2  and  C_3
REMARK    3  A    between atoms: C_2  and  C_4
REMARK    4  A    between atoms: C_2  and  C_5
REMARK    5  A    between atoms: C_8  and  N_9
REMARK    6  A    between atoms: C_10  and  C_12
REMARK    7  A    between atoms: C_12  and  O_13
REMARK    8  A    between atoms: O_13  and  C_14
REMARK    9  A    between atoms: C_17  and  N_18
REMARK                            x       y       z     vdW  Elec       q    Type
REMARK                         _______ _______ _______ _____ _____    ______ ____
ROOT
ATOM      1  N   UNL     1       2.143   6.471  20.863  0.00  0.00    +0.000 N 
ATOM      2  C   UNL     1       1.655   5.177  20.730  0.00  0.00    +0.000 C 
ATOM      3  O   UNL     1       0.566   4.852  20.263  0.00  0.00    +0.000 OA
ATOM      4  H   UNL     1       3.073   6.580  21.250  0.00  0.00    +0.000 HD
ENDROOT
BRANCH   1   8
ATOM      5  C   UNL     1       0.218  10.110  19.752  0.00  0.00    +0.000 A 
ATOM      6  C   UNL     1       1.189   9.526  18.926  0.00  0.00    +0.000 A 
ATOM      7  C   UNL     1       1.817   8.323  19.268  0.00  0.00    +0.000 A 
ATOM      8  C   UNL     1       1.503   7.665  20.450  0.00  0.00    +0.000 A 
ATOM      9  C   UNL     1       0.522   8.217  21.280  0.00  0.00    +0.000 A 
ATOM     10  C   UNL     1      -0.112   9.420  20.933  0.00  0.00    +0.000 A 
BRANCH   5  12
ATOM     11  C   UNL     1      -1.646  11.327  18.449  0.00  0.00    +0.000 C 
ATOM     12  C   UNL     1      -0.439  11.457  19.407  0.00  0.00    +0.000 C 
ATOM     13  C   UNL     1       0.599  12.366  18.716  0.00  0.00    +0.000 C 
ATOM     14  C   UNL     1      -0.949  12.148  20.688  0.00  0.00    +0.000 C 
ENDBRANCH   5  12
ENDBRANCH   1   8
BRANCH   2  15
ATOM     15  C   UNL     1       2.626   4.116  21.222  0.00  0.00    +0.000 C 
BRANCH  15  16
ATOM     16  O   UNL     1       2.735   3.149  20.185  0.00  0.00    +0.000 OA
BRANCH  16  17
ATOM     17  C   UNL     1       3.633   3.430  19.197  0.00  0.00    +0.000 A 
ATOM     18  C   UNL     1       3.254   3.033  17.916  0.00  0.00    +0.000 A 
ATOM     19  C   UNL     1       4.051   3.337  16.807  0.00  0.00    +0.000 A 
ATOM     20  C   UNL     1       5.242   4.057  16.973  0.00  0.00    +0.000 A 
ATOM     21  C   UNL     1       5.629   4.434  18.268  0.00  0.00    +0.000 A 
ATOM     22  C   UNL     1       4.827   4.123  19.373  0.00  0.00    +0.000 A 
BRANCH  20  23
ATOM     23  N   UNL     1       6.032   4.422  15.846  0.00  0.00    +0.000 N 
ATOM     24  C   UNL     1       5.814   4.088  14.525  0.00  0.00    +0.000 A 
ATOM     25  C   UNL     1       6.821   4.688  13.805  0.00  0.00    +0.000 A 
ATOM     26  N   UNL     1       7.659   5.380  14.630  0.00  0.00    +0.000 NA
ATOM     27  C   UNL     1       7.168   5.206  15.836  0.00  0.00    +0.000 A 
ENDBRANCH  20  23
ENDBRANCH  16  17
ENDBRANCH  15  16
ENDBRANCH   2  15
TORSDOF 6
ENDMDL
MODEL 4
REMARK VINA RESULT:      -7.5      6.188      7.957
REMARK  Name = 
REMARK  9 active torsions:
REMARK  status: ('A' for Active; 'I' for Inactive)
REMARK    1  A    between atoms: C_1  and  C_2
REMARK    2  A    between atoms: C_2  and  C_3
REMARK    3  A    between atoms: C_2  and  C_4
REMARK    4  A    between atoms: C_2  and  C_5
REMARK    5  A    between atoms: C_8  and  N_9
REMARK    6  A    between atoms: C_10  and  C_12
REMARK    7  A    between atoms: C_12  and  O_13
REMARK    8  A    between atoms: O_13  and  C_14
REMARK    9  A    between atoms: C_17  and  N_18
REMARK                            x       y       z     vdW  Elec       q    Type
REMARK                         _______ _______ _______ _____ _____    ______ ____
ROOT
ATOM      1  N   UNL     1       9.054   9.116  19.112  0.00  0.00    +0.000 N 
ATOM      2  C   UNL     1       8.132   8.708  18.156  0.00  0.00    +0.000 C 
ATOM      3  O   UNL     1       7.475   9.438  17.417  0.00  0.00    +0.000 OA
ATOM      4  H   UNL     1       9.535   8.393  19.633  0.00  0.00    +0.000 HD
ENDROOT
BRANCH   1   8
ATOM      5  C   UNL     1      10.198  13.159  19.839  0.00  0.00    +0.000 A 
ATOM      6  C   UNL     1       9.691  12.357  20.870  0.00  0.00    +0.000 A 
ATOM      7  C   UNL     1       9.328  11.023  20.653  0.00  0.00    +0.000 A 
ATOM      8  C   UNL     1       9.450  10.446  19.395  0.00  0.00    +0.000 A 
ATOM      9  C   UNL     1       9.974  11.221  18.355  0.00  0.00    +0.000 A 
ATOM     10  C   UNL     1      10.345  12.556  18.576  0.00  0.00    +0.000 A 
BRANCH   5  12
ATOM     11  C   UNL     1       9.531  15.617  19.429  0.00  0.00    +0.000 C 
ATOM     12  C   UNL     1      10.551  14.639  20.060  0.00  0.00    +0.000 C 
ATOM     13  C   UNL     1      11.923  14.935  19.421  0.00  0.00    +0.000 C 
ATOM     14  C   UNL     1      10.611  14.958  21.567  0.00  0.00    +0.000 C 
ENDBRANCH   5  12
ENDBRANCH   1   8
BRANCH   2  15
ATOM     15  C   UNL     1       7.987   7.198  18.070  0.00  0.00    +0.000 C 
BRANCH  15  16
ATOM     16  O   UNL     1       6.966   6.939  17.113  0.00  0.00    +0.000 OA
BRANCH  16  17
ATOM     17  C   UNL     1       5.912   6.191  17.550  0.00  0.00    +0.000 A 
ATOM     18  C   UNL     1       6.127   5.494  18.737  0.00  0.00    +0.000 A 
ATOM     19  C   UNL     1       5.096   4.755  19.329  0.00  0.00    +0.000 A 
ATOM     20  C   UNL     1       3.826   4.719  18.736  0.00  0.00    +0.000 A 
ATOM     21  C   UNL     1       3.623   5.405  17.530  0.00  0.00    +0.000 A 
ATOM     22  C   UNL     1       4.662   6.138  16.942  0.00  0.00    +0.000 A 
BRANCH  20  23
ATOM     23  N   UNL     1       2.754   4.019  19.361  0.00  0.00    +0.000 N 
ATOM     24  C   UNL     1       2.758   3.411  20.599  0.00  0.00    +0.000 A 
ATOM     25  C   UNL     1       1.497   2.892  20.777  0.00  0.00    +0.000 A 
ATOM     26  N   UNL     1       0.709   3.154  19.694  0.00  0.00    +0.000 NA
ATOM     27  C   UNL     1       1.480   3.824  18.868  0.00  0.00    +0.000 A 
ENDBRANCH  20  23
ENDBRANCH  16  17
ENDBRANCH  15  16
ENDBRANCH   2  15
TORSDOF 6
ENDMDL
MODEL 5
REMARK VINA RESULT:      -7.5      0.666      1.486
REMARK  Name = 
REMARK  9 active torsions:
REMARK  status: ('A' for Active; 'I' for Inactive)
REMARK    1  A    between atoms: C_1  and  C_2
REMARK    2  A    between atoms: C_2  and  C_3
REMARK    3  A    between atoms: C_2  and  C_4
REMARK    4  A    between atoms: C_2  and  C_5
REMARK    5  A    between atoms: C_8  and  N_9
REMARK    6  A    between atoms: C_10  and  C_12
REMARK    7  A    between atoms: C_12  and  O_13
REMARK    8  A    between atoms: O_13  and  C_14
REMARK    9  A    between atoms: C_17  and  N_18
REMARK                            x       y       z     vdW  Elec       q    Type
REMARK                         _______ _______ _______ _____ _____    ______ ____
ROOT
ATOM      1  N   UNL     1       2.269   5.398  20.997  0.00  0.00    +0.000 N 
ATOM      2  C   UNL     1       1.495   4.253  20.861  0.00  0.00    +0.000 C 
ATOM      3  O   UNL     1       0.372   4.185  20.368  0.00  0.00    +0.000 OA
ATOM      4  H   UNL     1       3.189   5.293  21.408  0.00  0.00    +0.000 HD
ENDROOT
BRANCH   1   8
ATOM      5  C   UNL     1       1.254   9.276  19.544  0.00  0.00    +0.000 A 
ATOM      6  C   UNL     1       0.826   8.845  20.807  0.00  0.00    +0.000 A 
ATOM      7  C   UNL     1       1.165   7.582  21.306  0.00  0.00    +0.000 A 
ATOM      8  C   UNL     1       1.937   6.702  20.557  0.00  0.00    +0.000 A 
ATOM      9  C   UNL     1       2.394   7.120  19.303  0.00  0.00    +0.000 A 
ATOM     10  C   UNL     1       2.059   8.389  18.806  0.00  0.00    +0.000 A 
BRANCH   5  12
ATOM     11  C   UNL     1       1.938  11.299  18.097  0.00  0.00    +0.000 C 
ATOM     12  C   UNL     1       0.842  10.642  18.969  0.00  0.00    +0.000 C 
ATOM     13  C   UNL     1       0.539  11.611  20.130  0.00  0.00    +0.000 C 
ATOM     14  C   UNL     1      -0.413  10.496  18.086  0.00  0.00    +0.000 C 
ENDBRANCH   5  12
ENDBRANCH   1   8
BRANCH   2  15
ATOM     15  C   UNL     1       2.178   3.001  21.388  0.00  0.00    +0.000 C 
BRANCH  15  16
ATOM     16  O   UNL     1       2.374   2.142  20.273  0.00  0.00    +0.000 OA
BRANCH  16  17
ATOM     17  C   UNL     1       3.201   2.610  19.294  0.00  0.00    +0.000 A 
ATOM     18  C   UNL     1       2.629   2.712  18.028  0.00  0.00    +0.000 A 
ATOM     19  C   UNL     1       3.351   3.255  16.959  0.00  0.00    +0.000 A 
ATOM     20  C   UNL     1       4.660   3.715  17.155  0.00  0.00    +0.000 A 
ATOM     21  C   UNL     1       5.238   3.589  18.427  0.00  0.00    +0.000 A 
ATOM     22  C   UNL     1       4.510   3.040  19.490  0.00  0.00    +0.000 A 
BRANCH  20  23
ATOM     23  N   UNL     1       5.383   4.322  16.088  0.00  0.00    +0.000 N 
ATOM     24  C   UNL     1       6.203   3.701  15.169  0.00  0.00    +0.000 A 
ATOM     25  C   UNL     1       6.654   4.689  14.325  0.00  0.00    +0.000 A 
ATOM     26  N   UNL     1       6.146   5.902  14.687  0.00  0.00    +0.000 NA
ATOM     27  C   UNL     1       5.394   5.657  15.736  0.00  0.00    +0.000 A 
ENDBRANCH  20  23
ENDBRANCH  16  17
ENDBRANCH  15  16
ENDBRANCH   2  15
TORSDOF 6
ENDMDL
MODEL 6
REMARK VINA RESULT:      -7.4      0.451      1.447
REMARK  Name = 
REMARK  9 active torsions:
REMARK  status: ('A' for Active; 'I' for Inactive)
REMARK    1  A    between atoms: C_1  and  C_2
REMARK    2  A    between atoms: C_2  and  C_3
REMARK    3  A    between atoms: C_2  and  C_4
REMARK    4  A    between atoms: C_2  and  C_5
REMARK    5  A    between atoms: C_8  and  N_9
REMARK    6  A    between atoms: C_10  and  C_12
REMARK    7  A    between atoms: C_12  and  O_13
REMARK    8  A    between atoms: O_13  and  C_14
REMARK    9  A    between atoms: C_17  and  N_18
REMARK                            x       y       z     vdW  Elec       q    Type
REMARK                         _______ _______ _______ _____ _____    ______ ____
ROOT
ATOM      1  N   UNL     1       2.283   5.737  21.048  0.00  0.00    +0.000 N 
ATOM      2  C   UNL     1       1.632   4.520  20.891  0.00  0.00    +0.000 C 
ATOM      3  O   UNL     1       0.513   4.347  20.413  0.00  0.00    +0.000 OA
ATOM      4  H   UNL     1       3.216   5.719  21.442  0.00  0.00    +0.000 HD
ENDROOT
BRANCH   1   8
ATOM      5  C   UNL     1       0.832   9.523  19.727  0.00  0.00    +0.000 A 
ATOM      6  C   UNL     1       0.509   9.031  20.998  0.00  0.00    +0.000 A 
ATOM      7  C   UNL     1       0.991   7.799  21.454  0.00  0.00    +0.000 A 
ATOM      8  C   UNL     1       1.807   7.010  20.652  0.00  0.00    +0.000 A 
ATOM      9  C   UNL     1       2.162   7.491  19.388  0.00  0.00    +0.000 A 
ATOM     10  C   UNL     1       1.684   8.730  18.934  0.00  0.00    +0.000 A 
BRANCH   5  12
ATOM     11  C   UNL     1      -0.814  10.671  18.107  0.00  0.00    +0.000 C 
ATOM     12  C   UNL     1       0.265  10.852  19.201  0.00  0.00    +0.000 C 
ATOM     13  C   UNL     1       1.408  11.683  18.583  0.00  0.00    +0.000 C 
ATOM     14  C   UNL     1      -0.383  11.651  20.349  0.00  0.00    +0.000 C 
ENDBRANCH   5  12
ENDBRANCH   1   8
BRANCH   2  15
ATOM     15  C   UNL     1       2.453   3.334  21.370  0.00  0.00    +0.000 C 
BRANCH  15  16
ATOM     16  O   UNL     1       2.575   2.448  20.265  0.00  0.00    +0.000 OA
BRANCH  16  17
ATOM     17  C   UNL     1       3.244   2.933  19.179  0.00  0.00    +0.000 A 
ATOM     18  C   UNL     1       4.511   3.450  19.441  0.00  0.00    +0.000 A 
ATOM     19  C   UNL     1       5.328   3.904  18.400  0.00  0.00    +0.000 A 
ATOM     20  C   UNL     1       4.882   3.831  17.073  0.00  0.00    +0.000 A 
ATOM     21  C   UNL     1       3.597   3.330  16.818  0.00  0.00    +0.000 A 
ATOM     22  C   UNL     1       2.784   2.882  17.867  0.00  0.00    +0.000 A 
BRANCH  20  23
ATOM     23  N   UNL     1       5.728   4.235  16.001  0.00  0.00    +0.000 N 
ATOM     24  C   UNL     1       7.028   4.690  16.083  0.00  0.00    +0.000 A 
ATOM     25  C   UNL     1       7.434   4.931  14.791  0.00  0.00    +0.000 A 
ATOM     26  N   UNL     1       6.433   4.645  13.909  0.00  0.00    +0.000 NA
ATOM     27  C   UNL     1       5.432   4.234  14.653  0.00  0.00    +0.000 A 
ENDBRANCH  20  23
ENDBRANCH  16  17
ENDBRANCH  15  16
ENDBRANCH   2  15
TORSDOF 6
ENDMDL
MODEL 7
REMARK VINA RESULT:      -7.4      6.254      7.946
REMARK  Name = 
REMARK  9 active torsions:
REMARK  status: ('A' for Active; 'I' for Inactive)
REMARK    1  A    between atoms: C_1  and  C_2
REMARK    2  A    between atoms: C_2  and  C_3
REMARK    3  A    between atoms: C_2  and  C_4
REMARK    4  A    between atoms: C_2  and  C_5
REMARK    5  A    between atoms: C_8  and  N_9
REMARK    6  A    between atoms: C_10  and  C_12
REMARK    7  A    between atoms: C_12  and  O_13
REMARK    8  A    between atoms: O_13  and  C_14
REMARK    9  A    between atoms: C_17  and  N_18
REMARK                            x       y       z     vdW  Elec       q    Type
REMARK                         _______ _______ _______ _____ _____    ______ ____
ROOT
ATOM      1  N   UNL     1       9.085   9.218  19.173  0.00  0.00    +0.000 N 
ATOM      2  C   UNL     1       8.155   8.697  18.283  0.00  0.00    +0.000 C 
ATOM      3  O   UNL     1       7.477   9.334  17.480  0.00  0.00    +0.000 OA
ATOM      4  H   UNL     1       9.585   8.562  19.762  0.00  0.00    +0.000 HD
ENDROOT
BRANCH   1   8
ATOM      5  C   UNL     1      10.276  13.279  19.694  0.00  0.00    +0.000 A 
ATOM      6  C   UNL     1      10.486  12.617  18.477  0.00  0.00    +0.000 A 
ATOM      7  C   UNL     1      10.085  11.290  18.284  0.00  0.00    +0.000 A 
ATOM      8  C   UNL     1       9.467  10.575  19.303  0.00  0.00    +0.000 A 
ATOM      9  C   UNL     1       9.228  11.222  20.519  0.00  0.00    +0.000 A 
ATOM     10  C   UNL     1       9.624  12.555  20.710  0.00  0.00    +0.000 A 
BRANCH   5  12
ATOM     11  C   UNL     1      12.209  14.970  19.449  0.00  0.00    +0.000 C 
ATOM     12  C   UNL     1      10.759  14.720  19.930  0.00  0.00    +0.000 C 
ATOM     13  C   UNL     1      10.719  15.028  21.441  0.00  0.00    +0.000 C 
ATOM     14  C   UNL     1       9.855  15.718  19.181  0.00  0.00    +0.000 C 
ENDBRANCH   5  12
ENDBRANCH   1   8
BRANCH   2  15
ATOM     15  C   UNL     1       8.029   7.184  18.363  0.00  0.00    +0.000 C 
BRANCH  15  16
ATOM     16  O   UNL     1       7.098   6.797  17.361  0.00  0.00    +0.000 OA
BRANCH  16  17
ATOM     17  C   UNL     1       5.985   6.142  17.799  0.00  0.00    +0.000 A 
ATOM     18  C   UNL     1       6.225   5.000  18.561  0.00  0.00    +0.000 A 
ATOM     19  C   UNL     1       5.167   4.287  19.135  0.00  0.00    +0.000 A 
ATOM     20  C   UNL     1       3.847   4.724  18.959  0.00  0.00    +0.000 A 
ATOM     21  C   UNL     1       3.610   5.861  18.173  0.00  0.00    +0.000 A 
ATOM     22  C   UNL     1       4.675   6.567  17.598  0.00  0.00    +0.000 A 
BRANCH  20  23
ATOM     23  N   UNL     1       2.767   4.040  19.588  0.00  0.00    +0.000 N 
ATOM     24  C   UNL     1       1.643   4.595  20.163  0.00  0.00    +0.000 A 
ATOM     25  C   UNL     1       0.880   3.543  20.612  0.00  0.00    +0.000 A 
ATOM     26  N   UNL     1       1.490   2.353  20.340  0.00  0.00    +0.000 NA
ATOM     27  C   UNL     1       2.608   2.676  19.730  0.00  0.00    +0.000 A 
ENDBRANCH  20  23
ENDBRANCH  16  17
ENDBRANCH  15  16
ENDBRANCH   2  15
TORSDOF 6
ENDMDL
MODEL 8
REMARK VINA RESULT:      -7.4      6.264      7.980
REMARK  Name = 
REMARK  9 active torsions:
REMARK  status: ('A' for Active; 'I' for Inactive)
REMARK    1  A    between atoms: C_1  and  C_2
REMARK    2  A    between atoms: C_2  and  C_3
REMARK    3  A    between atoms: C_2  and  C_4
REMARK    4  A    between atoms: C_2  and  C_5
REMARK    5  A    between atoms: C_8  and  N_9
REMARK    6  A    between atoms: C_10  and  C_12
REMARK    7  A    between atoms: C_12  and  O_13
REMARK    8  A    between atoms: O_13  and  C_14
REMARK    9  A    between atoms: C_17  and  N_18
REMARK                            x       y       z     vdW  Elec       q    Type
REMARK                         _______ _______ _______ _____ _____    ______ ____
ROOT
ATOM      1  N   UNL     1       9.269   9.322  19.173  0.00  0.00    +0.000 N 
ATOM      2  C   UNL     1       8.295   8.760  18.359  0.00  0.00    +0.000 C 
ATOM      3  O   UNL     1       7.534   9.365  17.607  0.00  0.00    +0.000 OA
ATOM      4  H   UNL     1       9.836   8.689  19.726  0.00  0.00    +0.000 HD
ENDROOT
BRANCH   1   8
ATOM      5  C   UNL     1      10.254  13.468  19.323  0.00  0.00    +0.000 A 
ATOM      6  C   UNL     1       9.676  12.824  20.425  0.00  0.00    +0.000 A 
ATOM      7  C   UNL     1       9.363  11.460  20.399  0.00  0.00    +0.000 A 
ATOM      8  C   UNL     1       9.609  10.693  19.267  0.00  0.00    +0.000 A 
ATOM      9  C   UNL     1      10.206  11.309  18.162  0.00  0.00    +0.000 A 
ATOM     10  C   UNL     1      10.526  12.675  18.192  0.00  0.00    +0.000 A 
BRANCH   5  12
ATOM     11  C   UNL     1      11.913  15.333  19.972  0.00  0.00    +0.000 C 
ATOM     12  C   UNL     1      10.553  14.976  19.327  0.00  0.00    +0.000 C 
ATOM     13  C   UNL     1       9.459  15.709  20.131  0.00  0.00    +0.000 C 
ATOM     14  C   UNL     1      10.578  15.522  17.885  0.00  0.00    +0.000 C 
ENDBRANCH   5  12
ENDBRANCH   1   8
BRANCH   2  15
ATOM     15  C   UNL     1       8.232   7.244  18.456  0.00  0.00    +0.000 C 
BRANCH  15  16
ATOM     16  O   UNL     1       7.337   6.806  17.442  0.00  0.00    +0.000 OA
BRANCH  16  17
ATOM     17  C   UNL     1       6.223   6.145  17.870  0.00  0.00    +0.000 A 
ATOM     18  C   UNL     1       5.126   6.208  17.014  0.00  0.00    +0.000 A 
ATOM     19  C   UNL     1       3.952   5.504  17.303  0.00  0.00    +0.000 A 
ATOM     20  C   UNL     1       3.871   4.714  18.458  0.00  0.00    +0.000 A 
ATOM     21  C   UNL     1       4.971   4.673  19.327  0.00  0.00    +0.000 A 
ATOM     22  C   UNL     1       6.141   5.384  19.032  0.00  0.00    +0.000 A 
BRANCH  20  23
ATOM     23  N   UNL     1       2.702   3.947  18.732  0.00  0.00    +0.000 N 
ATOM     24  C   UNL     1       1.999   3.883  19.918  0.00  0.00    +0.000 A 
ATOM     25  C   UNL     1       0.939   3.037  19.692  0.00  0.00    +0.000 A 
ATOM     26  N   UNL     1       0.958   2.570  18.409  0.00  0.00    +0.000 NA
ATOM     27  C   UNL     1       2.015   3.127  17.862  0.00  0.00    +0.000 A 
ENDBRANCH  20  23
ENDBRANCH  16  17
ENDBRANCH  15  16
ENDBRANCH   2  15
TORSDOF 6
ENDMDL
MODEL 9
REMARK VINA RESULT:      -7.3      1.323      2.372
REMARK  Name = 
REMARK  9 active torsions:
REMARK  status: ('A' for Active; 'I' for Inactive)
REMARK    1  A    between atoms: C_1  and  C_2
REMARK    2  A    between atoms: C_2  and  C_3
REMARK    3  A    between atoms: C_2  and  C_4
REMARK    4  A    between atoms: C_2  and  C_5
REMARK    5  A    between atoms: C_8  and  N_9
REMARK    6  A    between atoms: C_10  and  C_12
REMARK    7  A    between atoms: C_12  and  O_13
REMARK    8  A    between atoms: O_13  and  C_14
REMARK    9  A    between atoms: C_17  and  N_18
REMARK                            x       y       z     vdW  Elec       q    Type
REMARK                         _______ _______ _______ _____ _____    ______ ____
ROOT
ATOM      1  N   UNL     1       2.906   6.142  19.758  0.00  0.00    +0.000 N 
ATOM      2  C   UNL     1       2.410   4.856  19.922  0.00  0.00    +0.000 C 
ATOM      3  O   UNL     1       1.244   4.548  20.160  0.00  0.00    +0.000 OA
ATOM      4  H   UNL     1       3.892   6.238  19.545  0.00  0.00    +0.000 HD
ENDROOT
BRANCH   1   8
ATOM      5  C   UNL     1       0.632   9.749  19.717  0.00  0.00    +0.000 A 
ATOM      6  C   UNL     1       0.687   8.944  20.863  0.00  0.00    +0.000 A 
ATOM      7  C   UNL     1       1.443   7.767  20.899  0.00  0.00    +0.000 A 
ATOM      8  C   UNL     1       2.164   7.348  19.788  0.00  0.00    +0.000 A 
ATOM      9  C   UNL     1       2.142   8.146  18.640  0.00  0.00    +0.000 A 
ATOM     10  C   UNL     1       1.389   9.330  18.607  0.00  0.00    +0.000 A 
BRANCH   5  12
ATOM     11  C   UNL     1      -0.540  11.626  21.043  0.00  0.00    +0.000 C 
ATOM     12  C   UNL     1      -0.237  11.016  19.654  0.00  0.00    +0.000 C 
ATOM     13  C   UNL     1      -1.592  10.672  19.001  0.00  0.00    +0.000 C 
ATOM     14  C   UNL     1       0.466  12.108  18.823  0.00  0.00    +0.000 C 
ENDBRANCH   5  12
ENDBRANCH   1   8
BRANCH   2  15
ATOM     15  C   UNL     1       3.472   3.779  19.769  0.00  0.00    +0.000 C 
BRANCH  15  16
ATOM     16  O   UNL     1       4.717   4.450  19.626  0.00  0.00    +0.000 OA
BRANCH  16  17
ATOM     17  C   UNL     1       5.278   4.413  18.383  0.00  0.00    +0.000 A 
ATOM     18  C   UNL     1       4.529   3.756  17.409  0.00  0.00    +0.000 A 
ATOM     19  C   UNL     1       4.959   3.720  16.079  0.00  0.00    +0.000 A 
ATOM     20  C   UNL     1       6.150   4.359  15.707  0.00  0.00    +0.000 A 
ATOM     21  C   UNL     1       6.911   4.999  16.696  0.00  0.00    +0.000 A 
ATOM     22  C   UNL     1       6.475   5.027  18.027  0.00  0.00    +0.000 A 
BRANCH  20  23
ATOM     23  N   UNL     1       6.568   4.379  14.345  0.00  0.00    +0.000 N 
ATOM     24  C   UNL     1       7.551   5.166  13.780  0.00  0.00    +0.000 A 
ATOM     25  C   UNL     1       7.610   4.814  12.452  0.00  0.00    +0.000 A 
ATOM     26  N   UNL     1       6.698   3.839  12.169  0.00  0.00    +0.000 NA
ATOM     27  C   UNL     1       6.093   3.599  13.311  0.00  0.00    +0.000 A 
ENDBRANCH  20  23
ENDBRANCH  16  17
ENDBRANCH  15  16
ENDBRANCH   2  15
TORSDOF 6
ENDMDL
