MODEL 1
REMARK VINA RESULT:      -8.4      0.000      0.000
REMARK  Name = 
REMARK  8 active torsions:
REMARK  status: ('A' for Active; 'I' for Inactive)
REMARK    1  A    between atoms: N_1  and  C_2
REMARK    2  A    between atoms: C_2  and  C_3
REMARK    3  A    between atoms: C_2  and  C_18
REMARK    4  A    between atoms: C_3  and  C_4
REMARK    5  A    between atoms: C_4  and  C_5
REMARK    6  A    between atoms: C_5  and  C_6
REMARK    7  A    between atoms: C_6  and  N_7
REMARK    8  A    between atoms: N_7  and  C_8
REMARK                            x       y       z     vdW  Elec       q    Type
REMARK                         _______ _______ _______ _____ _____    ______ ____
ROOT
ATOM      1  C   UNL     1       8.339   7.176  18.495  0.00  0.00    +0.000 C 
ENDROOT
BRANCH   1   2
ATOM      2  C   UNL     1       7.374   6.153  19.119  0.00  0.00    +0.000 C 
BRANCH   2   3
ATOM      3  C   UNL     1       6.753   5.185  18.081  0.00  0.00    +0.000 C 
ATOM      4  O   UNL     1       7.373   4.804  17.088  0.00  0.00    +0.000 OA
ATOM      5  N   UNL     1       5.469   4.757  18.321  0.00  0.00    +0.000 N 
ATOM      6  C   UNL     1       4.874   3.706  17.504  0.00  0.00    +0.000 C 
ATOM      7  C   UNL     1       3.508   3.544  18.088  0.00  0.00    +0.000 A 
ATOM      8  C   UNL     1       2.524   2.632  17.750  0.00  0.00    +0.000 A 
ATOM      9  C   UNL     1       1.316   2.682  18.444  0.00  0.00    +0.000 A 
ATOM     10  C   UNL     1       1.103   3.637  19.453  0.00  0.00    +0.000 A 
ATOM     11  C   UNL     1       2.104   4.549  19.793  0.00  0.00    +0.000 A 
ATOM     12  C   UNL     1       3.305   4.481  19.107  0.00  0.00    +0.000 A 
ATOM     13  C   UNL     1       4.540   5.294  19.314  0.00  0.00    +0.000 C 
ENDBRANCH   2   3
BRANCH   2  14
ATOM     14  N   UNL     1       8.043   5.396  20.198  0.00  0.00    +0.000 NA
ATOM     15  H   UNL     1       7.403   4.700  20.578  0.00  0.00    +0.000 HD
ATOM     16  H   UNL     1       8.263   6.033  20.964  0.00  0.00    +0.000 HD
ENDBRANCH   2  14
ENDBRANCH   1   2
BRANCH   1  17
ATOM     17  C   UNL     1       7.685   8.313  17.692  0.00  0.00    +0.000 C 
BRANCH  17  18
ATOM     18  C   UNL     1       8.436   9.642  17.835  0.00  0.00    +0.000 C 
BRANCH  18  19
ATOM     19  C   UNL     1       8.999   9.813  19.242  0.00  0.00    +0.000 C 
BRANCH  19  20
ATOM     20  N   UNL     1      10.168  10.686  19.236  0.00  0.00    +0.000 N 
ATOM     21  H   UNL     1      10.886  10.357  18.595  0.00  0.00    +0.000 HD
BRANCH  20  22
ATOM     22  C   UNL     1       9.895  12.053  19.020  0.00  0.00    +0.000 A 
ATOM     23  C   UNL     1       8.973  12.772  19.791  0.00  0.00    +0.000 A 
ATOM     24  C   UNL     1       8.766  14.138  19.592  0.00  0.00    +0.000 A 
ATOM     25  C   UNL     1       9.504  14.833  18.634  0.00  0.00    +0.000 A 
ATOM     26  C   UNL     1       9.312  16.208  18.430  0.00  0.00    +0.000 A 
ATOM     27  C   UNL     1      10.062  16.895  17.478  0.00  0.00    +0.000 A 
ATOM     28  C   UNL     1      11.011  16.214  16.719  0.00  0.00    +0.000 A 
ATOM     29  C   UNL     1      11.214  14.849  16.911  0.00  0.00    +0.000 A 
ATOM     30  C   UNL     1      10.468  14.141  17.869  0.00  0.00    +0.000 A 
ATOM     31  C   UNL     1      10.661  12.764  18.087  0.00  0.00    +0.000 A 
ENDBRANCH  20  22
ENDBRANCH  19  20
ENDBRANCH  18  19
ENDBRANCH  17  18
ENDBRANCH   1  17
TORSDOF 8
ENDMDL
MODEL 2
REMARK VINA RESULT:      -8.2      6.206      9.897
REMARK  Name = 
REMARK  8 active torsions:
REMARK  status: ('A' for Active; 'I' for Inactive)
REMARK    1  A    between atoms: N_1  and  C_2
REMARK    2  A    between atoms: C_2  and  C_3
REMARK    3  A    between atoms: C_2  and  C_18
REMARK    4  A    between atoms: C_3  and  C_4
REMARK    5  A    between atoms: C_4  and  C_5
REMARK    6  A    between atoms: C_5  and  C_6
REMARK    7  A    between atoms: C_6  and  N_7
REMARK    8  A    between atoms: N_7  and  C_8
REMARK                            x       y       z     vdW  Elec       q    Type
REMARK                         _______ _______ _______ _____ _____    ______ ____
ROOT
ATOM      1  C   UNL     1       4.237   7.190  18.043  0.00  0.00    +0.000 C 
ENDROOT
BRANCH   1   2
ATOM      2  C   UNL     1       2.747   7.195  18.425  0.00  0.00    +0.000 C 
BRANCH   2   3
ATOM      3  C   UNL     1       2.081   8.586  18.272  0.00  0.00    +0.000 C 
ATOM      4  O   UNL     1       2.164   9.241  17.233  0.00  0.00    +0.000 OA
ATOM      5  N   UNL     1       1.378   9.061  19.354  0.00  0.00    +0.000 N 
ATOM      6  C   UNL     1       0.566  10.267  19.239  0.00  0.00    +0.000 C 
ATOM      7  C   UNL     1      -0.017  10.423  20.605  0.00  0.00    +0.000 A 
ATOM      8  C   UNL     1      -0.925  11.364  21.057  0.00  0.00    +0.000 A 
ATOM      9  C   UNL     1      -1.321  11.308  22.392  0.00  0.00    +0.000 A 
ATOM     10  C   UNL     1      -0.805  10.326  23.257  0.00  0.00    +0.000 A 
ATOM     11  C   UNL     1       0.106   9.377  22.791  0.00  0.00    +0.000 A 
ATOM     12  C   UNL     1       0.481   9.432  21.459  0.00  0.00    +0.000 A 
ATOM     13  C   UNL     1       1.385   8.512  20.710  0.00  0.00    +0.000 C 
ENDBRANCH   2   3
BRANCH   2  14
ATOM     14  N   UNL     1       2.006   6.178  17.649  0.00  0.00    +0.000 NA
ATOM     15  H   UNL     1       1.377   6.638  16.992  0.00  0.00    +0.000 HD
ATOM     16  H   UNL     1       1.415   5.642  18.285  0.00  0.00    +0.000 HD
ENDBRANCH   2  14
ENDBRANCH   1   2
BRANCH   1  17
ATOM     17  C   UNL     1       4.554   6.841  16.579  0.00  0.00    +0.000 C 
BRANCH  17  18
ATOM     18  C   UNL     1       5.945   6.217  16.410  0.00  0.00    +0.000 C 
BRANCH  18  19
ATOM     19  C   UNL     1       6.459   5.645  17.728  0.00  0.00    +0.000 C 
BRANCH  19  20
ATOM     20  N   UNL     1       6.249   4.203  17.790  0.00  0.00    +0.000 N 
ATOM     21  H   UNL     1       6.893   3.751  18.435  0.00  0.00    +0.000 HD
BRANCH  20  22
ATOM     22  C   UNL     1       4.922   3.801  18.047  0.00  0.00    +0.000 A 
ATOM     23  C   UNL     1       4.117   3.182  17.081  0.00  0.00    +0.000 A 
ATOM     24  C   UNL     1       2.828   2.741  17.382  0.00  0.00    +0.000 A 
ATOM     25  C   UNL     1       2.316   2.879  18.672  0.00  0.00    +0.000 A 
ATOM     26  C   UNL     1       1.023   2.433  18.990  0.00  0.00    +0.000 A 
ATOM     27  C   UNL     1       0.527   2.564  20.285  0.00  0.00    +0.000 A 
ATOM     28  C   UNL     1       1.315   3.145  21.275  0.00  0.00    +0.000 A 
ATOM     29  C   UNL     1       2.601   3.592  20.975  0.00  0.00    +0.000 A 
ATOM     30  C   UNL     1       3.119   3.464  19.676  0.00  0.00    +0.000 A 
ATOM     31  C   UNL     1       4.418   3.900  19.350  0.00  0.00    +0.000 A 
ENDBRANCH  20  22
ENDBRANCH  19  20
ENDBRANCH  18  19
ENDBRANCH  17  18
ENDBRANCH   1  17
TORSDOF 8
ENDMDL
MODEL 3
REMARK VINA RESULT:      -8.2      1.747      1.984
REMARK  Name = 
REMARK  8 active torsions:
REMARK  status: ('A' for Active; 'I' for Inactive)
REMARK    1  A    between atoms: N_1  and  C_2
REMARK    2  A    between atoms: C_2  and  C_3
REMARK    3  A    between atoms: C_2  and  C_18
REMARK    4  A    between atoms: C_3  and  C_4
REMARK    5  A    between atoms: C_4  and  C_5
REMARK    6  A    between atoms: C_5  and  C_6
REMARK    7  A    between atoms: C_6  and  N_7
REMARK    8  A    between atoms: N_7  and  C_8
REMARK                            x       y       z     vdW  Elec       q    Type
REMARK                         _______ _______ _______ _____ _____    ______ ____
ROOT
ATOM      1  C   UNL     1       7.605   7.181  17.544  0.00  0.00    +0.000 C 
ENDROOT
BRANCH   1   2
ATOM      2  C   UNL     1       6.822   6.096  18.304  0.00  0.00    +0.000 C 
BRANCH   2   3
ATOM      3  C   UNL     1       5.756   5.387  17.431  0.00  0.00    +0.000 C 
ATOM      4  O   UNL     1       5.892   5.247  16.216  0.00  0.00    +0.000 OA
ATOM      5  N   UNL     1       4.641   4.908  18.079  0.00  0.00    +0.000 N 
ATOM      6  C   UNL     1       3.680   4.068  17.374  0.00  0.00    +0.000 C 
ATOM      7  C   UNL     1       2.653   3.768  18.417  0.00  0.00    +0.000 A 
ATOM      8  C   UNL     1       1.539   2.952  18.327  0.00  0.00    +0.000 A 
ATOM      9  C   UNL     1       0.718   2.835  19.448  0.00  0.00    +0.000 A 
ATOM     10  C   UNL     1       1.011   3.533  20.632  0.00  0.00    +0.000 A 
ATOM     11  C   UNL     1       2.140   4.349  20.717  0.00  0.00    +0.000 A 
ATOM     12  C   UNL     1       2.957   4.447  19.603  0.00  0.00    +0.000 A 
ATOM     13  C   UNL     1       4.237   5.199  19.454  0.00  0.00    +0.000 C 
ENDBRANCH   2   3
BRANCH   2  14
ATOM     14  N   UNL     1       7.745   5.107  18.900  0.00  0.00    +0.000 NA
ATOM     15  H   UNL     1       8.658   5.534  19.046  0.00  0.00    +0.000 HD
ATOM     16  H   UNL     1       7.887   4.344  18.237  0.00  0.00    +0.000 HD
ENDBRANCH   2  14
ENDBRANCH   1   2
BRANCH   1  17
ATOM     17  C   UNL     1       8.424   8.151  18.413  0.00  0.00    +0.000 C 
BRANCH  17  18
ATOM     18  C   UNL     1       8.241   9.614  17.992  0.00  0.00    +0.000 C 
BRANCH  18  19
ATOM     19  C   UNL     1       9.327  10.503  18.590  0.00  0.00    +0.000 C 
BRANCH  19  20
ATOM     20  N   UNL     1       9.149  10.650  20.031  0.00  0.00    +0.000 N 
ATOM     21  H   UNL     1       9.650   9.933  20.552  0.00  0.00    +0.000 HD
BRANCH  20  22
ATOM     22  C   UNL     1       9.439  11.931  20.544  0.00  0.00    +0.000 A 
ATOM     23  C   UNL     1       8.895  12.407  21.745  0.00  0.00    +0.000 A 
ATOM     24  C   UNL     1       9.246  13.656  22.258  0.00  0.00    +0.000 A 
ATOM     25  C   UNL     1      10.179  14.455  21.598  0.00  0.00    +0.000 A 
ATOM     26  C   UNL     1      10.546  15.711  22.108  0.00  0.00    +0.000 A 
ATOM     27  C   UNL     1      11.488  16.495  21.447  0.00  0.00    +0.000 A 
ATOM     28  C   UNL     1      12.072  16.036  20.269  0.00  0.00    +0.000 A 
ATOM     29  C   UNL     1      11.718  14.791  19.751  0.00  0.00    +0.000 A 
ATOM     30  C   UNL     1      10.772  13.985  20.406  0.00  0.00    +0.000 A 
ATOM     31  C   UNL     1      10.405  12.721  19.907  0.00  0.00    +0.000 A 
ENDBRANCH  20  22
ENDBRANCH  19  20
ENDBRANCH  18  19
ENDBRANCH  17  18
ENDBRANCH   1  17
TORSDOF 8
ENDMDL
MODEL 4
REMARK VINA RESULT:      -8.1      1.629      1.918
REMARK  Name = 
REMARK  8 active torsions:
REMARK  status: ('A' for Active; 'I' for Inactive)
REMARK    1  A    between atoms: N_1  and  C_2
REMARK    2  A    between atoms: C_2  and  C_3
REMARK    3  A    between atoms: C_2  and  C_18
REMARK    4  A    between atoms: C_3  and  C_4
REMARK    5  A    between atoms: C_4  and  C_5
REMARK    6  A    between atoms: C_5  and  C_6
REMARK    7  A    between atoms: C_6  and  N_7
REMARK    8  A    between atoms: N_7  and  C_8
REMARK                            x       y       z     vdW  Elec       q    Type
REMARK                         _______ _______ _______ _____ _____    ______ ____
ROOT
ATOM      1  C   UNL     1       7.828   6.951  18.229  0.00  0.00    +0.000 C 
ENDROOT
BRANCH   1   2
ATOM      2  C   UNL     1       6.949   6.008  17.390  0.00  0.00    +0.000 C 
BRANCH   2   3
ATOM      3  C   UNL     1       5.442   6.361  17.449  0.00  0.00    +0.000 C 
ATOM      4  O   UNL     1       5.022   7.486  17.178  0.00  0.00    +0.000 OA
ATOM      5  N   UNL     1       4.581   5.353  17.814  0.00  0.00    +0.000 N 
ATOM      6  C   UNL     1       3.138   5.540  17.717  0.00  0.00    +0.000 C 
ATOM      7  C   UNL     1       2.587   4.235  18.193  0.00  0.00    +0.000 A 
ATOM      8  C   UNL     1       1.269   3.820  18.248  0.00  0.00    +0.000 A 
ATOM      9  C   UNL     1       1.002   2.543  18.742  0.00  0.00    +0.000 A 
ATOM     10  C   UNL     1       2.044   1.706  19.177  0.00  0.00    +0.000 A 
ATOM     11  C   UNL     1       3.372   2.130  19.111  0.00  0.00    +0.000 A 
ATOM     12  C   UNL     1       3.627   3.394  18.606  0.00  0.00    +0.000 A 
ATOM     13  C   UNL     1       4.946   4.054  18.380  0.00  0.00    +0.000 C 
ENDBRANCH   2   3
BRANCH   2  14
ATOM     14  N   UNL     1       7.417   5.969  15.987  0.00  0.00    +0.000 NA
ATOM     15  H   UNL     1       8.410   5.742  15.963  0.00  0.00    +0.000 HD
ATOM     16  H   UNL     1       7.325   6.901  15.581  0.00  0.00    +0.000 HD
ENDBRANCH   2  14
ENDBRANCH   1   2
BRANCH   1  17
ATOM     17  C   UNL     1       7.997   8.378  17.680  0.00  0.00    +0.000 C 
BRANCH  17  18
ATOM     18  C   UNL     1       8.795   9.282  18.628  0.00  0.00    +0.000 C 
BRANCH  18  19
ATOM     19  C   UNL     1       8.824  10.723  18.127  0.00  0.00    +0.000 C 
BRANCH  19  20
ATOM     20  N   UNL     1      10.191  11.157  17.860  0.00  0.00    +0.000 N 
ATOM     21  H   UNL     1      10.434  11.065  16.876  0.00  0.00    +0.000 HD
BRANCH  20  22
ATOM     22  C   UNL     1      10.514  12.446  18.334  0.00  0.00    +0.000 A 
ATOM     23  C   UNL     1      10.824  12.703  19.675  0.00  0.00    +0.000 A 
ATOM     24  C   UNL     1      11.198  13.978  20.104  0.00  0.00    +0.000 A 
ATOM     25  C   UNL     1      11.304  15.028  19.193  0.00  0.00    +0.000 A 
ATOM     26  C   UNL     1      11.687  16.312  19.610  0.00  0.00    +0.000 A 
ATOM     27  C   UNL     1      11.801  17.351  18.690  0.00  0.00    +0.000 A 
ATOM     28  C   UNL     1      11.532  17.119  17.343  0.00  0.00    +0.000 A 
ATOM     29  C   UNL     1      11.151  15.849  16.914  0.00  0.00    +0.000 A 
ATOM     30  C   UNL     1      11.034  14.789  17.828  0.00  0.00    +0.000 A 
ATOM     31  C   UNL     1      10.661  13.495  17.417  0.00  0.00    +0.000 A 
ENDBRANCH  20  22
ENDBRANCH  19  20
ENDBRANCH  18  19
ENDBRANCH  17  18
ENDBRANCH   1  17
TORSDOF 8
ENDMDL
MODEL 5
REMARK VINA RESULT:      -8.0      5.370      8.290
REMARK  Name = 
REMARK  8 active torsions:
REMARK  status: ('A' for Active; 'I' for Inactive)
REMARK    1  A    between atoms: N_1  and  C_2
REMARK    2  A    between atoms: C_2  and  C_3
REMARK    3  A    between atoms: C_2  and  C_18
REMARK    4  A    between atoms: C_3  and  C_4
REMARK    5  A    between atoms: C_4  and  C_5
REMARK    6  A    between atoms: C_5  and  C_6
REMARK    7  A    between atoms: C_6  and  N_7
REMARK    8  A    between atoms: N_7  and  C_8
REMARK                            x       y       z     vdW  Elec       q    Type
REMARK                         _______ _______ _______ _____ _____    ______ ____
ROOT
ATOM      1  C   UNL     1       2.762   2.640  20.392  0.00  0.00    +0.000 C 
ENDROOT
BRANCH   1   2
ATOM      2  C   UNL     1       2.584   2.194  18.931  0.00  0.00    +0.000 C 
BRANCH   2   3
ATOM      3  C   UNL     1       2.694   3.361  17.918  0.00  0.00    +0.000 C 
ATOM      4  O   UNL     1       1.811   3.597  17.092  0.00  0.00    +0.000 OA
ATOM      5  N   UNL     1       3.827   4.136  17.983  0.00  0.00    +0.000 N 
ATOM      6  C   UNL     1       3.932   5.362  17.200  0.00  0.00    +0.000 C 
ATOM      7  C   UNL     1       5.283   5.888  17.560  0.00  0.00    +0.000 A 
ATOM      8  C   UNL     1       5.887   7.068  17.165  0.00  0.00    +0.000 A 
ATOM      9  C   UNL     1       7.171   7.340  17.636  0.00  0.00    +0.000 A 
ATOM     10  C   UNL     1       7.835   6.435  18.481  0.00  0.00    +0.000 A 
ATOM     11  C   UNL     1       7.217   5.249  18.881  0.00  0.00    +0.000 A 
ATOM     12  C   UNL     1       5.935   4.996  18.420  0.00  0.00    +0.000 A 
ATOM     13  C   UNL     1       5.044   3.843  18.740  0.00  0.00    +0.000 C 
ENDBRANCH   2   3
BRANCH   2  14
ATOM     14  N   UNL     1       3.544   1.121  18.592  0.00  0.00    +0.000 NA
ATOM     15  H   UNL     1       4.482   1.399  18.875  0.00  0.00    +0.000 HD
ATOM     16  H   UNL     1       3.571   1.009  17.578  0.00  0.00    +0.000 HD
ENDBRANCH   2  14
ENDBRANCH   1   2
BRANCH   1  17
ATOM     17  C   UNL     1       1.706   3.620  20.929  0.00  0.00    +0.000 C 
BRANCH  17  18
ATOM     18  C   UNL     1       2.283   5.014  21.205  0.00  0.00    +0.000 C 
BRANCH  18  19
ATOM     19  C   UNL     1       1.650   6.066  20.298  0.00  0.00    +0.000 C 
BRANCH  19  20
ATOM     20  N   UNL     1       2.245   7.379  20.525  0.00  0.00    +0.000 N 
ATOM     21  H   UNL     1       2.919   7.622  19.803  0.00  0.00    +0.000 HD
BRANCH  20  22
ATOM     22  C   UNL     1       1.324   8.429  20.721  0.00  0.00    +0.000 A 
ATOM     23  C   UNL     1       0.857   8.800  21.989  0.00  0.00    +0.000 A 
ATOM     24  C   UNL     1      -0.009   9.881  22.157  0.00  0.00    +0.000 A 
ATOM     25  C   UNL     1      -0.408  10.645  21.061  0.00  0.00    +0.000 A 
ATOM     26  C   UNL     1      -1.273  11.740  21.219  0.00  0.00    +0.000 A 
ATOM     27  C   UNL     1      -1.656  12.504  20.118  0.00  0.00    +0.000 A 
ATOM     28  C   UNL     1      -1.182  12.180  18.850  0.00  0.00    +0.000 A 
ATOM     29  C   UNL     1      -0.323  11.096  18.678  0.00  0.00    +0.000 A 
ATOM     30  C   UNL     1       0.077  10.317  19.776  0.00  0.00    +0.000 A 
ATOM     31  C   UNL     1       0.951   9.223  19.630  0.00  0.00    +0.000 A 
ENDBRANCH  20  22
ENDBRANCH  19  20
ENDBRANCH  18  19
ENDBRANCH  17  18
ENDBRANCH   1  17
TORSDOF 8
ENDMDL
MODEL 6
REMARK VINA RESULT:      -8.0      1.546      1.969
REMARK  Name = 
REMARK  8 active torsions:
REMARK  status: ('A' for Active; 'I' for Inactive)
REMARK    1  A    between atoms: N_1  and  C_2
REMARK    2  A    between atoms: C_2  and  C_3
REMARK    3  A    between atoms: C_2  and  C_18
REMARK    4  A    between atoms: C_3  and  C_4
REMARK    5  A    between atoms: C_4  and  C_5
REMARK    6  A    between atoms: C_5  and  C_6
REMARK    7  A    between atoms: C_6  and  N_7
REMARK    8  A    between atoms: N_7  and  C_8
REMARK                            x       y       z     vdW  Elec       q    Type
REMARK                         _______ _______ _______ _____ _____    ______ ____
ROOT
ATOM      1  C   UNL     1       6.523   6.646  16.988  0.00  0.00    +0.000 C 
ENDROOT
BRANCH   1   2
ATOM      2  C   UNL     1       6.586   5.110  16.917  0.00  0.00    +0.000 C 
BRANCH   2   3
ATOM      3  C   UNL     1       5.261   4.465  16.439  0.00  0.00    +0.000 C 
ATOM      4  O   UNL     1       5.067   4.162  15.261  0.00  0.00    +0.000 OA
ATOM      5  N   UNL     1       4.301   4.234  17.396  0.00  0.00    +0.000 N 
ATOM      6  C   UNL     1       3.105   3.464  17.075  0.00  0.00    +0.000 C 
ATOM      7  C   UNL     1       2.349   3.445  18.364  0.00  0.00    +0.000 A 
ATOM      8  C   UNL     1       1.166   2.795  18.664  0.00  0.00    +0.000 A 
ATOM      9  C   UNL     1       0.648   2.933  19.951  0.00  0.00    +0.000 A 
ATOM     10  C   UNL     1       1.308   3.717  20.913  0.00  0.00    +0.000 A 
ATOM     11  C   UNL     1       2.505   4.365  20.604  0.00  0.00    +0.000 A 
ATOM     12  C   UNL     1       3.018   4.209  19.327  0.00  0.00    +0.000 A 
ATOM     13  C   UNL     1       4.295   4.742  18.768  0.00  0.00    +0.000 C 
ENDBRANCH   2   3
BRANCH   2  14
ATOM     14  N   UNL     1       7.712   4.673  16.064  0.00  0.00    +0.000 NA
ATOM     15  H   UNL     1       8.547   5.209  16.297  0.00  0.00    +0.000 HD
ATOM     16  H   UNL     1       7.494   4.888  15.091  0.00  0.00    +0.000 HD
ENDBRANCH   2  14
ENDBRANCH   1   2
BRANCH   1  17
ATOM     17  C   UNL     1       7.434   7.308  18.035  0.00  0.00    +0.000 C 
BRANCH  17  18
ATOM     18  C   UNL     1       8.336   8.390  17.429  0.00  0.00    +0.000 C 
BRANCH  18  19
ATOM     19  C   UNL     1       8.181   9.717  18.165  0.00  0.00    +0.000 C 
BRANCH  19  20
ATOM     20  N   UNL     1       9.233   9.890  19.161  0.00  0.00    +0.000 N 
ATOM     21  H   UNL     1      10.020   9.266  18.996  0.00  0.00    +0.000 HD
BRANCH  20  22
ATOM     22  C   UNL     1       9.678  11.216  19.341  0.00  0.00    +0.000 A 
ATOM     23  C   UNL     1      10.777  11.544  20.145  0.00  0.00    +0.000 A 
ATOM     24  C   UNL     1      11.231  12.859  20.256  0.00  0.00    +0.000 A 
ATOM     25  C   UNL     1      10.614  13.883  19.538  0.00  0.00    +0.000 A 
ATOM     26  C   UNL     1      11.066  15.209  19.636  0.00  0.00    +0.000 A 
ATOM     27  C   UNL     1      10.450  16.223  18.905  0.00  0.00    +0.000 A 
ATOM     28  C   UNL     1       9.376  15.923  18.071  0.00  0.00    +0.000 A 
ATOM     29  C   UNL     1       8.917  14.611  17.964  0.00  0.00    +0.000 A 
ATOM     30  C   UNL     1       9.528  13.577  18.691  0.00  0.00    +0.000 A 
ATOM     31  C   UNL     1       9.088  12.243  18.592  0.00  0.00    +0.000 A 
ENDBRANCH  20  22
ENDBRANCH  19  20
ENDBRANCH  18  19
ENDBRANCH  17  18
ENDBRANCH   1  17
TORSDOF 8
ENDMDL
MODEL 7
REMARK VINA RESULT:      -8.0      5.710      8.850
REMARK  Name = 
REMARK  8 active torsions:
REMARK  status: ('A' for Active; 'I' for Inactive)
REMARK    1  A    between atoms: N_1  and  C_2
REMARK    2  A    between atoms: C_2  and  C_3
REMARK    3  A    between atoms: C_2  and  C_18
REMARK    4  A    between atoms: C_3  and  C_4
REMARK    5  A    between atoms: C_4  and  C_5
REMARK    6  A    between atoms: C_5  and  C_6
REMARK    7  A    between atoms: C_6  and  N_7
REMARK    8  A    between atoms: N_7  and  C_8
REMARK                            x       y       z     vdW  Elec       q    Type
REMARK                         _______ _______ _______ _____ _____    ______ ____
ROOT
ATOM      1  C   UNL     1       1.677   5.795  18.197  0.00  0.00    +0.000 C 
ENDROOT
BRANCH   1   2
ATOM      2  C   UNL     1       2.735   6.892  18.404  0.00  0.00    +0.000 C 
BRANCH   2   3
ATOM      3  C   UNL     1       2.164   8.326  18.274  0.00  0.00    +0.000 C 
ATOM      4  O   UNL     1       2.316   9.002  17.257  0.00  0.00    +0.000 OA
ATOM      5  N   UNL     1       1.465   8.816  19.352  0.00  0.00    +0.000 N 
ATOM      6  C   UNL     1       0.735  10.075  19.251  0.00  0.00    +0.000 C 
ATOM      7  C   UNL     1       0.128  10.232  20.607  0.00  0.00    +0.000 A 
ATOM      8  C   UNL     1      -0.730  11.218  21.063  0.00  0.00    +0.000 A 
ATOM      9  C   UNL     1      -1.163  11.151  22.386  0.00  0.00    +0.000 A 
ATOM     10  C   UNL     1      -0.733  10.116  23.235  0.00  0.00    +0.000 A 
ATOM     11  C   UNL     1       0.127   9.122  22.765  0.00  0.00    +0.000 A 
ATOM     12  C   UNL     1       0.539   9.189  21.445  0.00  0.00    +0.000 A 
ATOM     13  C   UNL     1       1.402   8.232  20.692  0.00  0.00    +0.000 C 
ENDBRANCH   2   3
BRANCH   2  14
ATOM     14  N   UNL     1       3.416   6.721  19.705  0.00  0.00    +0.000 NA
ATOM     15  H   UNL     1       4.347   7.135  19.663  0.00  0.00    +0.000 HD
ATOM     16  H   UNL     1       3.552   5.725  19.880  0.00  0.00    +0.000 HD
ENDBRANCH   2  14
ENDBRANCH   1   2
BRANCH   1  17
ATOM     17  C   UNL     1       1.421   4.873  19.402  0.00  0.00    +0.000 C 
BRANCH  17  18
ATOM     18  C   UNL     1       1.316   3.397  19.001  0.00  0.00    +0.000 C 
BRANCH  18  19
ATOM     19  C   UNL     1       2.243   2.526  19.843  0.00  0.00    +0.000 C 
BRANCH  19  20
ATOM     20  N   UNL     1       3.318   1.967  19.029  0.00  0.00    +0.000 N 
ATOM     21  H   UNL     1       2.976   1.264  18.377  0.00  0.00    +0.000 HD
BRANCH  20  22
ATOM     22  C   UNL     1       4.122   2.915  18.364  0.00  0.00    +0.000 A 
ATOM     23  C   UNL     1       3.933   3.257  17.018  0.00  0.00    +0.000 A 
ATOM     24  C   UNL     1       4.706   4.242  16.402  0.00  0.00    +0.000 A 
ATOM     25  C   UNL     1       5.673   4.938  17.127  0.00  0.00    +0.000 A 
ATOM     26  C   UNL     1       6.452   5.937  16.520  0.00  0.00    +0.000 A 
ATOM     27  C   UNL     1       7.407   6.634  17.256  0.00  0.00    +0.000 A 
ATOM     28  C   UNL     1       7.596   6.340  18.604  0.00  0.00    +0.000 A 
ATOM     29  C   UNL     1       6.830   5.352  19.220  0.00  0.00    +0.000 A 
ATOM     30  C   UNL     1       5.860   4.641  18.494  0.00  0.00    +0.000 A 
ATOM     31  C   UNL     1       5.067   3.645  19.096  0.00  0.00    +0.000 A 
ENDBRANCH  20  22
ENDBRANCH  19  20
ENDBRANCH  18  19
ENDBRANCH  17  18
ENDBRANCH   1  17
TORSDOF 8
ENDMDL
MODEL 8
REMARK VINA RESULT:      -8.0      5.027      8.361
REMARK  Name = 
REMARK  8 active torsions:
REMARK  status: ('A' for Active; 'I' for Inactive)
REMARK    1  A    between atoms: N_1  and  C_2
REMARK    2  A    between atoms: C_2  and  C_3
REMARK    3  A    between atoms: C_2  and  C_18
REMARK    4  A    between atoms: C_3  and  C_4
REMARK    5  A    between atoms: C_4  and  C_5
REMARK    6  A    between atoms: C_5  and  C_6
REMARK    7  A    between atoms: C_6  and  N_7
REMARK    8  A    between atoms: N_7  and  C_8
REMARK                            x       y       z     vdW  Elec       q    Type
REMARK                         _______ _______ _______ _____ _____    ______ ____
ROOT
ATOM      1  C   UNL     1       1.274   5.236  20.202  0.00  0.00    +0.000 C 
ENDROOT
BRANCH   1   2
ATOM      2  C   UNL     1       2.465   5.875  19.468  0.00  0.00    +0.000 C 
BRANCH   2   3
ATOM      3  C   UNL     1       2.189   7.325  19.000  0.00  0.00    +0.000 C 
ATOM      4  O   UNL     1       2.566   7.744  17.905  0.00  0.00    +0.000 OA
ATOM      5  N   UNL     1       1.489   8.135  19.864  0.00  0.00    +0.000 N 
ATOM      6  C   UNL     1       1.023   9.448  19.435  0.00  0.00    +0.000 C 
ATOM      7  C   UNL     1       0.323   9.979  20.644  0.00  0.00    +0.000 A 
ATOM      8  C   UNL     1      -0.376  11.164  20.789  0.00  0.00    +0.000 A 
ATOM      9  C   UNL     1      -0.945  11.443  22.031  0.00  0.00    +0.000 A 
ATOM     10  C   UNL     1      -0.805  10.548  23.106  0.00  0.00    +0.000 A 
ATOM     11  C   UNL     1      -0.103   9.352  22.949  0.00  0.00    +0.000 A 
ATOM     12  C   UNL     1       0.445   9.077  21.707  0.00  0.00    +0.000 A 
ATOM     13  C   UNL     1       1.184   7.857  21.267  0.00  0.00    +0.000 C 
ENDBRANCH   2   3
BRANCH   2  14
ATOM     14  N   UNL     1       3.683   5.824  20.306  0.00  0.00    +0.000 NA
ATOM     15  H   UNL     1       3.769   4.903  20.731  0.00  0.00    +0.000 HD
ATOM     16  H   UNL     1       3.584   6.488  21.075  0.00  0.00    +0.000 HD
ENDBRANCH   2  14
ENDBRANCH   1   2
BRANCH   1  17
ATOM     17  C   UNL     1       1.264   3.699  20.255  0.00  0.00    +0.000 C 
BRANCH  17  18
ATOM     18  C   UNL     1       1.782   3.062  18.959  0.00  0.00    +0.000 C 
BRANCH  18  19
ATOM     19  C   UNL     1       3.196   2.517  19.137  0.00  0.00    +0.000 C 
BRANCH  19  20
ATOM     20  N   UNL     1       3.920   2.517  17.869  0.00  0.00    +0.000 N 
ATOM     21  H   UNL     1       3.318   2.265  17.088  0.00  0.00    +0.000 HD
BRANCH  20  22
ATOM     22  C   UNL     1       4.635   3.699  17.587  0.00  0.00    +0.000 A 
ATOM     23  C   UNL     1       4.250   4.595  16.582  0.00  0.00    +0.000 A 
ATOM     24  C   UNL     1       4.944   5.787  16.364  0.00  0.00    +0.000 A 
ATOM     25  C   UNL     1       6.028   6.131  17.170  0.00  0.00    +0.000 A 
ATOM     26  C   UNL     1       6.730   7.330  16.966  0.00  0.00    +0.000 A 
ATOM     27  C   UNL     1       7.805   7.669  17.784  0.00  0.00    +0.000 A 
ATOM     28  C   UNL     1       8.191   6.814  18.813  0.00  0.00    +0.000 A 
ATOM     29  C   UNL     1       7.504   5.621  19.028  0.00  0.00    +0.000 A 
ATOM     30  C   UNL     1       6.416   5.264  18.215  0.00  0.00    +0.000 A 
ATOM     31  C   UNL     1       5.701   4.069  18.418  0.00  0.00    +0.000 A 
ENDBRANCH  20  22
ENDBRANCH  19  20
ENDBRANCH  18  19
ENDBRANCH  17  18
ENDBRANCH   1  17
TORSDOF 8
ENDMDL
MODEL 9
REMARK VINA RESULT:      -7.9      1.166      1.800
REMARK  Name = 
REMARK  8 active torsions:
REMARK  status: ('A' for Active; 'I' for Inactive)
REMARK    1  A    between atoms: N_1  and  C_2
REMARK    2  A    between atoms: C_2  and  C_3
REMARK    3  A    between atoms: C_2  and  C_18
REMARK    4  A    between atoms: C_3  and  C_4
REMARK    5  A    between atoms: C_4  and  C_5
REMARK    6  A    between atoms: C_5  and  C_6
REMARK    7  A    between atoms: C_6  and  N_7
REMARK    8  A    between atoms: N_7  and  C_8
REMARK                            x       y       z     vdW  Elec       q    Type
REMARK                         _______ _______ _______ _____ _____    ______ ____
ROOT
ATOM      1  C   UNL     1       6.850   7.911  17.709  0.00  0.00    +0.000 C 
ENDROOT
BRANCH   1   2
ATOM      2  C   UNL     1       6.591   6.420  17.988  0.00  0.00    +0.000 C 
BRANCH   2   3
ATOM      3  C   UNL     1       5.362   5.860  17.231  0.00  0.00    +0.000 C 
ATOM      4  O   UNL     1       5.267   5.914  16.005  0.00  0.00    +0.000 OA
ATOM      5  N   UNL     1       4.372   5.285  17.992  0.00  0.00    +0.000 N 
ATOM      6  C   UNL     1       3.272   4.568  17.358  0.00  0.00    +0.000 C 
ATOM      7  C   UNL     1       2.445   4.108  18.515  0.00  0.00    +0.000 A 
ATOM      8  C   UNL     1       1.310   3.318  18.508  0.00  0.00    +0.000 A 
ATOM      9  C   UNL     1       0.706   3.025  19.730  0.00  0.00    +0.000 A 
ATOM     10  C   UNL     1       1.233   3.526  20.933  0.00  0.00    +0.000 A 
ATOM     11  C   UNL     1       2.383   4.317  20.932  0.00  0.00    +0.000 A 
ATOM     12  C   UNL     1       2.983   4.589  19.714  0.00  0.00    +0.000 A 
ATOM     13  C   UNL     1       4.237   5.354  19.447  0.00  0.00    +0.000 C 
ENDBRANCH   2   3
BRANCH   2  14
ATOM     14  N   UNL     1       7.796   5.617  17.688  0.00  0.00    +0.000 NA
ATOM     15  H   UNL     1       8.630   6.186  17.819  0.00  0.00    +0.000 HD
ATOM     16  H   UNL     1       7.781   5.353  16.702  0.00  0.00    +0.000 HD
ENDBRANCH   2  14
ENDBRANCH   1   2
BRANCH   1  17
ATOM     17  C   UNL     1       8.308   8.379  17.857  0.00  0.00    +0.000 C 
BRANCH  17  18
ATOM     18  C   UNL     1       8.431   9.906  17.925  0.00  0.00    +0.000 C 
BRANCH  18  19
ATOM     19  C   UNL     1       8.934  10.362  19.291  0.00  0.00    +0.000 C 
BRANCH  19  20
ATOM     20  N   UNL     1      10.327  10.788  19.221  0.00  0.00    +0.000 N 
ATOM     21  H   UNL     1      10.920  10.082  18.790  0.00  0.00    +0.000 HD
BRANCH  20  22
ATOM     22  C   UNL     1      10.540  12.049  18.625  0.00  0.00    +0.000 A 
ATOM     23  C   UNL     1      11.319  12.220  17.474  0.00  0.00    +0.000 A 
ATOM     24  C   UNL     1      11.464  13.471  16.872  0.00  0.00    +0.000 A 
ATOM     25  C   UNL     1      10.803  14.585  17.389  0.00  0.00    +0.000 A 
ATOM     26  C   UNL     1      10.934  15.847  16.789  0.00  0.00    +0.000 A 
ATOM     27  C   UNL     1      10.260  16.951  17.306  0.00  0.00    +0.000 A 
ATOM     28  C   UNL     1       9.451  16.806  18.431  0.00  0.00    +0.000 A 
ATOM     29  C   UNL     1       9.311  15.559  19.037  0.00  0.00    +0.000 A 
ATOM     30  C   UNL     1       9.980  14.435  18.527  0.00  0.00    +0.000 A 
ATOM     31  C   UNL     1       9.848  13.163  19.116  0.00  0.00    +0.000 A 
ENDBRANCH  20  22
ENDBRANCH  19  20
ENDBRANCH  18  19
ENDBRANCH  17  18
ENDBRANCH   1  17
TORSDOF 8
ENDMDL
