MODEL 1
REMARK VINA RESULT:      -7.5      0.000      0.000
REMARK  Name = 
REMARK  10 active torsions:
REMARK  status: ('A' for Active; 'I' for Inactive)
REMARK    1  A    between atoms: C_1  and  O_2
REMARK    2  A    between atoms: O_2  and  C_3
REMARK    3  A    between atoms: C_6  and  C_7
REMARK    4  A    between atoms: C_9  and  N_10
REMARK    5  A    between atoms: C_11  and  C_13
REMARK    6  A    between atoms: C_13  and  N_14
REMARK    7  A    between atoms: C_15  and  C_16
REMARK    8  A    between atoms: C_18  and  C_19
REMARK    9  A    between atoms: C_20  and  C_21
REMARK   10  A    between atoms: C_23  and  C_24
REMARK                            x       y       z     vdW  Elec       q    Type
REMARK                         _______ _______ _______ _____ _____    ______ ____
ROOT
ATOM      1  N   UNL     1       2.761   4.064  20.188  0.00  0.00    +0.000 N 
ATOM      2  C   UNL     1       2.122   2.847  20.390  0.00  0.00    +0.000 A 
ATOM      3  C   UNL     1       1.423   2.413  21.636  0.00  0.00    +0.000 C 
ATOM      4  C   UNL     1       2.240   2.118  19.226  0.00  0.00    +0.000 A 
ATOM      5  C   UNL     1       2.990   2.876  18.301  0.00  0.00    +0.000 A 
ATOM      6  C   UNL     1       3.299   2.468  16.901  0.00  0.00    +0.000 C 
ATOM      7  C   UNL     1       3.351   4.066  18.927  0.00  0.00    +0.000 A 
ENDROOT
BRANCH   7   8
ATOM      8  C   UNL     1       4.154   5.102  18.322  0.00  0.00    +0.000 A 
ATOM      9  N   UNL     1       5.471   5.146  18.423  0.00  0.00    +0.000 NA
ATOM     10  C   UNL     1       5.819   6.187  17.603  0.00  0.00    +0.000 A 
ATOM     11  N   UNL     1       4.778   6.802  17.026  0.00  0.00    +0.000 NA
ATOM     12  O   UNL     1       3.673   6.108  17.526  0.00  0.00    +0.000 OA
BRANCH  10  13
ATOM     13  C   UNL     1       7.255   6.637  17.340  0.00  0.00    +0.000 C 
ATOM     14  C   UNL     1       7.692   8.073  17.554  0.00  0.00    +0.000 C 
ATOM     15  C   UNL     1       8.105   7.032  18.535  0.00  0.00    +0.000 C 
ENDBRANCH  10  13
ENDBRANCH   7   8
BRANCH   1  16
ATOM     16  C   UNL     1       2.700   5.172  21.145  0.00  0.00    +0.000 C 
BRANCH  16  18
ATOM     17  N   UNL     1       1.840   7.437  21.178  0.00  0.00    +0.000 N 
ATOM     18  C   UNL     1       1.522   6.120  20.930  0.00  0.00    +0.000 C 
ATOM     19  O   UNL     1       0.441   5.692  20.502  0.00  0.00    +0.000 OA
ATOM     20  H   UNL     1       2.738   7.635  21.598  0.00  0.00    +0.000 HD
BRANCH  17  27
ATOM     21  C   UNL     1       0.975   9.251  19.813  0.00  0.00    +0.000 A 
ATOM     22  C   UNL     1       0.372  10.502  19.687  0.00  0.00    +0.000 A 
ATOM     23  C   UNL     1      -0.309  11.055  20.766  0.00  0.00    +0.000 A 
ATOM     24  C   UNL     1      -0.401  10.346  21.966  0.00  0.00    +0.000 A 
ATOM     25  C   UNL     1      -1.240  10.875  23.095  0.00  0.00    +0.000 C 
ATOM     26  C   UNL     1       0.266   9.117  22.110  0.00  0.00    +0.000 A 
ATOM     27  C   UNL     1       1.013   8.584  21.057  0.00  0.00    +0.000 A 
BRANCH  21  29
ATOM     28  C   UNL     1       2.163   9.786  17.872  0.00  0.00    +0.000 C 
ATOM     29  O   UNL     1       1.567   8.769  18.679  0.00  0.00    +0.000 OA
ENDBRANCH  21  29
ENDBRANCH  17  27
ENDBRANCH  16  18
ENDBRANCH   1  16
TORSDOF 6
ENDMDL
MODEL 2
REMARK VINA RESULT:      -7.1      1.499      1.942
REMARK  Name = 
REMARK  10 active torsions:
REMARK  status: ('A' for Active; 'I' for Inactive)
REMARK    1  A    between atoms: C_1  and  O_2
REMARK    2  A    between atoms: O_2  and  C_3
REMARK    3  A    between atoms: C_6  and  C_7
REMARK    4  A    between atoms: C_9  and  N_10
REMARK    5  A    between atoms: C_11  and  C_13
REMARK    6  A    between atoms: C_13  and  N_14
REMARK    7  A    between atoms: C_15  and  C_16
REMARK    8  A    between atoms: C_18  and  C_19
REMARK    9  A    between atoms: C_20  and  C_21
REMARK   10  A    between atoms: C_23  and  C_24
REMARK                            x       y       z     vdW  Elec       q    Type
REMARK                         _______ _______ _______ _____ _____    ______ ____
ROOT
ATOM      1  N   UNL     1       3.547   3.972  18.881  0.00  0.00    +0.000 N 
ATOM      2  C   UNL     1       2.590   3.256  18.173  0.00  0.00    +0.000 A 
ATOM      3  C   UNL     1       1.320   2.696  18.725  0.00  0.00    +0.000 C 
ATOM      4  C   UNL     1       3.018   3.170  16.866  0.00  0.00    +0.000 A 
ATOM      5  C   UNL     1       4.273   3.810  16.766  0.00  0.00    +0.000 A 
ATOM      6  C   UNL     1       5.054   3.983  15.509  0.00  0.00    +0.000 C 
ATOM      7  C   UNL     1       4.615   4.264  18.037  0.00  0.00    +0.000 A 
ENDROOT
BRANCH   7   8
ATOM      8  C   UNL     1       5.845   4.946  18.361  0.00  0.00    +0.000 A 
ATOM      9  N   UNL     1       6.332   5.941  17.641  0.00  0.00    +0.000 NA
ATOM     10  C   UNL     1       7.409   6.368  18.372  0.00  0.00    +0.000 A 
ATOM     11  N   UNL     1       7.625   5.664  19.492  0.00  0.00    +0.000 NA
ATOM     12  O   UNL     1       6.612   4.701  19.471  0.00  0.00    +0.000 OA
BRANCH  10  13
ATOM     13  C   UNL     1       8.308   7.539  17.983  0.00  0.00    +0.000 C 
ATOM     14  C   UNL     1       7.736   8.895  17.614  0.00  0.00    +0.000 C 
ATOM     15  C   UNL     1       8.392   8.716  18.938  0.00  0.00    +0.000 C 
ENDBRANCH  10  13
ENDBRANCH   7   8
BRANCH   1  16
ATOM     16  C   UNL     1       3.359   4.414  20.265  0.00  0.00    +0.000 C 
BRANCH  16  18
ATOM     17  N   UNL     1       2.570   6.703  20.172  0.00  0.00    +0.000 N 
ATOM     18  C   UNL     1       2.212   5.404  20.456  0.00  0.00    +0.000 C 
ATOM     19  O   UNL     1       1.081   5.003  20.763  0.00  0.00    +0.000 OA
ATOM     20  H   UNL     1       3.549   6.899  20.010  0.00  0.00    +0.000 HD
BRANCH  17  27
ATOM     21  C   UNL     1       1.538   8.567  19.005  0.00  0.00    +0.000 A 
ATOM     22  C   UNL     1       0.955   9.834  19.004  0.00  0.00    +0.000 A 
ATOM     23  C   UNL     1       0.479  10.378  20.192  0.00  0.00    +0.000 A 
ATOM     24  C   UNL     1       0.569   9.644  21.376  0.00  0.00    +0.000 A 
ATOM     25  C   UNL     1      -0.056  10.166  22.639  0.00  0.00    +0.000 C 
ATOM     26  C   UNL     1       1.219   8.397  21.385  0.00  0.00    +0.000 A 
ATOM     27  C   UNL     1       1.765   7.872  20.212  0.00  0.00    +0.000 A 
BRANCH  21  29
ATOM     28  C   UNL     1       3.337   8.070  17.597  0.00  0.00    +0.000 C 
ATOM     29  O   UNL     1       1.920   8.097  17.779  0.00  0.00    +0.000 OA
ENDBRANCH  21  29
ENDBRANCH  17  27
ENDBRANCH  16  18
ENDBRANCH   1  16
TORSDOF 6
ENDMDL
MODEL 3
REMARK VINA RESULT:      -7.1      5.015      8.594
REMARK  Name = 
REMARK  10 active torsions:
REMARK  status: ('A' for Active; 'I' for Inactive)
REMARK    1  A    between atoms: C_1  and  O_2
REMARK    2  A    between atoms: O_2  and  C_3
REMARK    3  A    between atoms: C_6  and  C_7
REMARK    4  A    between atoms: C_9  and  N_10
REMARK    5  A    between atoms: C_11  and  C_13
REMARK    6  A    between atoms: C_13  and  N_14
REMARK    7  A    between atoms: C_15  and  C_16
REMARK    8  A    between atoms: C_18  and  C_19
REMARK    9  A    between atoms: C_20  and  C_21
REMARK   10  A    between atoms: C_23  and  C_24
REMARK                            x       y       z     vdW  Elec       q    Type
REMARK                         _______ _______ _______ _____ _____    ______ ____
ROOT
ATOM      1  N   UNL     1       0.689  10.575  19.971  0.00  0.00    +0.000 N 
ATOM      2  C   UNL     1       1.197   9.285  19.871  0.00  0.00    +0.000 A 
ATOM      3  C   UNL     1       1.788   8.662  18.649  0.00  0.00    +0.000 C 
ATOM      4  C   UNL     1       1.069   8.691  21.108  0.00  0.00    +0.000 A 
ATOM      5  C   UNL     1       0.442   9.608  21.979  0.00  0.00    +0.000 A 
ATOM      6  C   UNL     1       0.166   9.374  23.424  0.00  0.00    +0.000 C 
ATOM      7  C   UNL     1       0.167  10.761  21.248  0.00  0.00    +0.000 A 
ENDROOT
BRANCH   7   8
ATOM      8  C   UNL     1      -0.502  11.927  21.774  0.00  0.00    +0.000 A 
ATOM      9  N   UNL     1      -1.817  12.028  21.863  0.00  0.00    +0.000 NA
ATOM     10  C   UNL     1      -2.002  13.209  22.530  0.00  0.00    +0.000 A 
ATOM     11  N   UNL     1      -0.866  13.854  22.831  0.00  0.00    +0.000 NA
ATOM     12  O   UNL     1       0.127  13.024  22.303  0.00  0.00    +0.000 OA
BRANCH  10  13
ATOM     13  C   UNL     1      -3.365  13.777  22.920  0.00  0.00    +0.000 C 
ATOM     14  C   UNL     1      -4.616  12.919  22.918  0.00  0.00    +0.000 C 
ATOM     15  C   UNL     1      -3.991  13.292  24.216  0.00  0.00    +0.000 C 
ENDBRANCH  10  13
ENDBRANCH   7   8
BRANCH   1  16
ATOM     16  C   UNL     1       0.809  11.571  18.904  0.00  0.00    +0.000 C 
BRANCH  16  18
ATOM     17  N   UNL     1      -1.550  11.231  18.465  0.00  0.00    +0.000 N 
ATOM     18  C   UNL     1      -0.524  12.150  18.435  0.00  0.00    +0.000 C 
ATOM     19  O   UNL     1      -0.620  13.350  18.143  0.00  0.00    +0.000 OA
ATOM     20  H   UNL     1      -1.313  10.265  18.649  0.00  0.00    +0.000 HD
BRANCH  17  27
ATOM     21  C   UNL     1      -3.319  11.161  16.801  0.00  0.00    +0.000 A 
ATOM     22  C   UNL     1      -4.582  11.539  16.348  0.00  0.00    +0.000 A 
ATOM     23  C   UNL     1      -5.508  12.071  17.239  0.00  0.00    +0.000 A 
ATOM     24  C   UNL     1      -5.174  12.205  18.588  0.00  0.00    +0.000 A 
ATOM     25  C   UNL     1      -6.207  12.658  19.581  0.00  0.00    +0.000 C 
ATOM     26  C   UNL     1      -3.877  11.887  19.028  0.00  0.00    +0.000 A 
ATOM     27  C   UNL     1      -2.916  11.420  18.130  0.00  0.00    +0.000 A 
BRANCH  21  29
ATOM     28  C   UNL     1      -3.197  10.178  14.684  0.00  0.00    +0.000 C 
ATOM     29  O   UNL     1      -2.504  10.595  15.862  0.00  0.00    +0.000 OA
ENDBRANCH  21  29
ENDBRANCH  17  27
ENDBRANCH  16  18
ENDBRANCH   1  16
TORSDOF 6
ENDMDL
MODEL 4
REMARK VINA RESULT:      -7.0      1.775      2.759
REMARK  Name = 
REMARK  10 active torsions:
REMARK  status: ('A' for Active; 'I' for Inactive)
REMARK    1  A    between atoms: C_1  and  O_2
REMARK    2  A    between atoms: O_2  and  C_3
REMARK    3  A    between atoms: C_6  and  C_7
REMARK    4  A    between atoms: C_9  and  N_10
REMARK    5  A    between atoms: C_11  and  C_13
REMARK    6  A    between atoms: C_13  and  N_14
REMARK    7  A    between atoms: C_15  and  C_16
REMARK    8  A    between atoms: C_18  and  C_19
REMARK    9  A    between atoms: C_20  and  C_21
REMARK   10  A    between atoms: C_23  and  C_24
REMARK                            x       y       z     vdW  Elec       q    Type
REMARK                         _______ _______ _______ _____ _____    ______ ____
ROOT
ATOM      1  N   UNL     1       3.492   4.931  18.889  0.00  0.00    +0.000 N 
ATOM      2  C   UNL     1       2.542   4.032  18.419  0.00  0.00    +0.000 A 
ATOM      3  C   UNL     1       1.180   3.810  18.989  0.00  0.00    +0.000 C 
ATOM      4  C   UNL     1       3.081   3.394  17.323  0.00  0.00    +0.000 A 
ATOM      5  C   UNL     1       4.394   3.876  17.128  0.00  0.00    +0.000 A 
ATOM      6  C   UNL     1       5.302   3.478  16.016  0.00  0.00    +0.000 C 
ATOM      7  C   UNL     1       4.657   4.797  18.138  0.00  0.00    +0.000 A 
ENDROOT
BRANCH   7   8
ATOM      8  C   UNL     1       5.910   5.493  18.309  0.00  0.00    +0.000 A 
ATOM      9  N   UNL     1       6.286   6.504  17.544  0.00  0.00    +0.000 NA
ATOM     10  C   UNL     1       7.443   6.937  18.134  0.00  0.00    +0.000 A 
ATOM     11  N   UNL     1       7.812   6.226  19.207  0.00  0.00    +0.000 NA
ATOM     12  O   UNL     1       6.818   5.248  19.306  0.00  0.00    +0.000 OA
BRANCH  10  13
ATOM     13  C   UNL     1       8.269   8.126  17.646  0.00  0.00    +0.000 C 
ATOM     14  C   UNL     1       7.715   9.538  17.653  0.00  0.00    +0.000 C 
ATOM     15  C   UNL     1       8.723   9.145  18.676  0.00  0.00    +0.000 C 
ENDBRANCH  10  13
ENDBRANCH   7   8
BRANCH   1  16
ATOM     16  C   UNL     1       3.219   5.912  19.942  0.00  0.00    +0.000 C 
BRANCH  16  18
ATOM     17  N   UNL     1       1.773   7.794  20.432  0.00  0.00    +0.000 N 
ATOM     18  C   UNL     1       2.517   7.177  19.451  0.00  0.00    +0.000 C 
ATOM     19  O   UNL     1       2.702   7.591  18.298  0.00  0.00    +0.000 OA
ATOM     20  H   UNL     1       1.646   7.304  21.307  0.00  0.00    +0.000 HD
BRANCH  17  27
ATOM     21  C   UNL     1       0.779   9.718  21.534  0.00  0.00    +0.000 A 
ATOM     22  C   UNL     1      -0.137  10.768  21.562  0.00  0.00    +0.000 A 
ATOM     23  C   UNL     1      -0.742  11.193  20.384  0.00  0.00    +0.000 A 
ATOM     24  C   UNL     1      -0.413  10.578  19.175  0.00  0.00    +0.000 A 
ATOM     25  C   UNL     1      -0.960  11.111  17.881  0.00  0.00    +0.000 C 
ATOM     26  C   UNL     1       0.460   9.475  19.160  0.00  0.00    +0.000 A 
ATOM     27  C   UNL     1       1.017   8.993  20.346  0.00  0.00    +0.000 A 
BRANCH  21  29
ATOM     28  C   UNL     1       0.426   9.299  23.806  0.00  0.00    +0.000 C 
ATOM     29  O   UNL     1       1.361   9.415  22.733  0.00  0.00    +0.000 OA
ENDBRANCH  21  29
ENDBRANCH  17  27
ENDBRANCH  16  18
ENDBRANCH   1  16
TORSDOF 6
ENDMDL
MODEL 5
REMARK VINA RESULT:      -6.8      2.422      3.479
REMARK  Name = 
REMARK  10 active torsions:
REMARK  status: ('A' for Active; 'I' for Inactive)
REMARK    1  A    between atoms: C_1  and  O_2
REMARK    2  A    between atoms: O_2  and  C_3
REMARK    3  A    between atoms: C_6  and  C_7
REMARK    4  A    between atoms: C_9  and  N_10
REMARK    5  A    between atoms: C_11  and  C_13
REMARK    6  A    between atoms: C_13  and  N_14
REMARK    7  A    between atoms: C_15  and  C_16
REMARK    8  A    between atoms: C_18  and  C_19
REMARK    9  A    between atoms: C_20  and  C_21
REMARK   10  A    between atoms: C_23  and  C_24
REMARK                            x       y       z     vdW  Elec       q    Type
REMARK                         _______ _______ _______ _____ _____    ______ ____
ROOT
ATOM      1  N   UNL     1       2.611   6.294  19.641  0.00  0.00    +0.000 N 
ATOM      2  C   UNL     1       1.579   6.054  20.539  0.00  0.00    +0.000 A 
ATOM      3  C   UNL     1       0.903   7.072  21.398  0.00  0.00    +0.000 C 
ATOM      4  C   UNL     1       1.283   4.710  20.483  0.00  0.00    +0.000 A 
ATOM      5  C   UNL     1       2.164   4.098  19.565  0.00  0.00    +0.000 A 
ATOM      6  C   UNL     1       2.141   2.660  19.176  0.00  0.00    +0.000 C 
ATOM      7  C   UNL     1       3.019   5.086  19.082  0.00  0.00    +0.000 A 
ENDROOT
BRANCH   7   8
ATOM      8  C   UNL     1       4.089   4.856  18.141  0.00  0.00    +0.000 A 
ATOM      9  N   UNL     1       4.025   5.215  16.871  0.00  0.00    +0.000 NA
ATOM     10  C   UNL     1       5.279   4.939  16.396  0.00  0.00    +0.000 A 
ATOM     11  N   UNL     1       6.104   4.402  17.306  0.00  0.00    +0.000 NA
ATOM     12  O   UNL     1       5.310   4.316  18.453  0.00  0.00    +0.000 OA
BRANCH  10  13
ATOM     13  C   UNL     1       5.740   5.207  14.966  0.00  0.00    +0.000 C 
ATOM     14  C   UNL     1       7.091   4.735  14.461  0.00  0.00    +0.000 C 
ATOM     15  C   UNL     1       5.860   4.021  14.025  0.00  0.00    +0.000 C 
ENDBRANCH  10  13
ENDBRANCH   7   8
BRANCH   1  16
ATOM     16  C   UNL     1       3.082   7.638  19.297  0.00  0.00    +0.000 C 
BRANCH  16  18
ATOM     17  N   UNL     1       1.282   9.243  19.061  0.00  0.00    +0.000 N 
ATOM     18  C   UNL     1       2.143   8.414  18.376  0.00  0.00    +0.000 C 
ATOM     19  O   UNL     1       2.249   8.318  17.146  0.00  0.00    +0.000 OA
ATOM     20  H   UNL     1       1.251   9.162  20.069  0.00  0.00    +0.000 HD
BRANCH  17  27
ATOM     21  C   UNL     1       0.458  11.509  18.765  0.00  0.00    +0.000 A 
ATOM     22  C   UNL     1      -0.572  12.405  18.483  0.00  0.00    +0.000 A 
ATOM     23  C   UNL     1      -1.731  11.955  17.859  0.00  0.00    +0.000 A 
ATOM     24  C   UNL     1      -1.848  10.611  17.500  0.00  0.00    +0.000 A 
ATOM     25  C   UNL     1      -3.037  10.139  16.712  0.00  0.00    +0.000 C 
ATOM     26  C   UNL     1      -0.835   9.698  17.847  0.00  0.00    +0.000 A 
ATOM     27  C   UNL     1       0.301  10.125  18.538  0.00  0.00    +0.000 A 
BRANCH  21  29
ATOM     28  C   UNL     1       2.245  12.987  18.468  0.00  0.00    +0.000 C 
ATOM     29  O   UNL     1       1.577  12.060  19.325  0.00  0.00    +0.000 OA
ENDBRANCH  21  29
ENDBRANCH  17  27
ENDBRANCH  16  18
ENDBRANCH   1  16
TORSDOF 6
ENDMDL
MODEL 6
REMARK VINA RESULT:      -6.8      1.047      2.003
REMARK  Name = 
REMARK  10 active torsions:
REMARK  status: ('A' for Active; 'I' for Inactive)
REMARK    1  A    between atoms: C_1  and  O_2
REMARK    2  A    between atoms: O_2  and  C_3
REMARK    3  A    between atoms: C_6  and  C_7
REMARK    4  A    between atoms: C_9  and  N_10
REMARK    5  A    between atoms: C_11  and  C_13
REMARK    6  A    between atoms: C_13  and  N_14
REMARK    7  A    between atoms: C_15  and  C_16
REMARK    8  A    between atoms: C_18  and  C_19
REMARK    9  A    between atoms: C_20  and  C_21
REMARK   10  A    between atoms: C_23  and  C_24
REMARK                            x       y       z     vdW  Elec       q    Type
REMARK                         _______ _______ _______ _____ _____    ______ ____
ROOT
ATOM      1  N   UNL     1       2.765   4.230  20.181  0.00  0.00    +0.000 N 
ATOM      2  C   UNL     1       2.134   3.015  20.420  0.00  0.00    +0.000 A 
ATOM      3  C   UNL     1       1.413   2.625  21.667  0.00  0.00    +0.000 C 
ATOM      4  C   UNL     1       2.283   2.242  19.289  0.00  0.00    +0.000 A 
ATOM      5  C   UNL     1       3.045   2.970  18.349  0.00  0.00    +0.000 A 
ATOM      6  C   UNL     1       3.386   2.509  16.974  0.00  0.00    +0.000 C 
ATOM      7  C   UNL     1       3.380   4.188  18.934  0.00  0.00    +0.000 A 
ENDROOT
BRANCH   7   8
ATOM      8  C   UNL     1       4.186   5.207  18.303  0.00  0.00    +0.000 A 
ATOM      9  N   UNL     1       5.500   5.271  18.430  0.00  0.00    +0.000 NA
ATOM     10  C   UNL     1       5.855   6.280  17.576  0.00  0.00    +0.000 A 
ATOM     11  N   UNL     1       4.820   6.859  16.951  0.00  0.00    +0.000 NA
ATOM     12  O   UNL     1       3.712   6.173  17.455  0.00  0.00    +0.000 OA
BRANCH  10  13
ATOM     13  C   UNL     1       7.291   6.736  17.325  0.00  0.00    +0.000 C 
ATOM     14  C   UNL     1       7.724   8.171  17.555  0.00  0.00    +0.000 C 
ATOM     15  C   UNL     1       8.132   7.122  18.529  0.00  0.00    +0.000 C 
ENDBRANCH  10  13
ENDBRANCH   7   8
BRANCH   1  16
ATOM     16  C   UNL     1       2.673   5.375  21.091  0.00  0.00    +0.000 C 
BRANCH  16  18
ATOM     17  N   UNL     1       1.903   7.640  20.702  0.00  0.00    +0.000 N 
ATOM     18  C   UNL     1       1.513   6.322  20.789  0.00  0.00    +0.000 C 
ATOM     19  O   UNL     1       0.376   5.876  20.581  0.00  0.00    +0.000 OA
ATOM     20  H   UNL     1       2.850   7.871  20.974  0.00  0.00    +0.000 HD
BRANCH  17  27
ATOM     21  C   UNL     1       0.757   9.637  21.477  0.00  0.00    +0.000 A 
ATOM     22  C   UNL     1      -0.199  10.638  21.307  0.00  0.00    +0.000 A 
ATOM     23  C   UNL     1      -0.733  10.881  20.046  0.00  0.00    +0.000 A 
ATOM     24  C   UNL     1      -0.292  10.134  18.951  0.00  0.00    +0.000 A 
ATOM     25  C   UNL     1      -0.765  10.472  17.565  0.00  0.00    +0.000 C 
ATOM     26  C   UNL     1       0.621   9.081  19.139  0.00  0.00    +0.000 A 
ATOM     27  C   UNL     1       1.109   8.780  20.412  0.00  0.00    +0.000 A 
BRANCH  21  29
ATOM     28  C   UNL     1       0.254   9.390  23.746  0.00  0.00    +0.000 C 
ATOM     29  O   UNL     1       1.261   9.517  22.741  0.00  0.00    +0.000 OA
ENDBRANCH  21  29
ENDBRANCH  17  27
ENDBRANCH  16  18
ENDBRANCH   1  16
TORSDOF 6
ENDMDL
MODEL 7
REMARK VINA RESULT:      -6.7      2.601      3.451
REMARK  Name = 
REMARK  10 active torsions:
REMARK  status: ('A' for Active; 'I' for Inactive)
REMARK    1  A    between atoms: C_1  and  O_2
REMARK    2  A    between atoms: O_2  and  C_3
REMARK    3  A    between atoms: C_6  and  C_7
REMARK    4  A    between atoms: C_9  and  N_10
REMARK    5  A    between atoms: C_11  and  C_13
REMARK    6  A    between atoms: C_13  and  N_14
REMARK    7  A    between atoms: C_15  and  C_16
REMARK    8  A    between atoms: C_18  and  C_19
REMARK    9  A    between atoms: C_20  and  C_21
REMARK   10  A    between atoms: C_23  and  C_24
REMARK                            x       y       z     vdW  Elec       q    Type
REMARK                         _______ _______ _______ _____ _____    ______ ____
ROOT
ATOM      1  N   UNL     1       2.852   6.107  18.938  0.00  0.00    +0.000 N 
ATOM      2  C   UNL     1       1.919   5.542  19.799  0.00  0.00    +0.000 A 
ATOM      3  C   UNL     1       1.267   6.218  20.960  0.00  0.00    +0.000 C 
ATOM      4  C   UNL     1       1.693   4.250  19.377  0.00  0.00    +0.000 A 
ATOM      5  C   UNL     1       2.521   3.995  18.262  0.00  0.00    +0.000 A 
ATOM      6  C   UNL     1       2.543   2.730  17.476  0.00  0.00    +0.000 C 
ATOM      7  C   UNL     1       3.274   5.143  18.027  0.00  0.00    +0.000 A 
ENDROOT
BRANCH   7   8
ATOM      8  C   UNL     1       4.267   5.275  16.988  0.00  0.00    +0.000 A 
ATOM      9  N   UNL     1       4.901   4.243  16.458  0.00  0.00    +0.000 NA
ATOM     10  C   UNL     1       5.629   4.803  15.442  0.00  0.00    +0.000 A 
ATOM     11  N   UNL     1       5.495   6.132  15.339  0.00  0.00    +0.000 NA
ATOM     12  O   UNL     1       4.620   6.452  16.381  0.00  0.00    +0.000 OA
BRANCH  10  13
ATOM     13  C   UNL     1       6.524   4.017  14.486  0.00  0.00    +0.000 C 
ATOM     14  C   UNL     1       6.101   3.721  13.060  0.00  0.00    +0.000 C 
ATOM     15  C   UNL     1       7.135   4.762  13.312  0.00  0.00    +0.000 C 
ENDBRANCH  10  13
ENDBRANCH   7   8
BRANCH   1  16
ATOM     16  C   UNL     1       3.216   7.526  18.966  0.00  0.00    +0.000 C 
BRANCH  16  18
ATOM     17  N   UNL     1       1.399   9.128  18.950  0.00  0.00    +0.000 N 
ATOM     18  C   UNL     1       2.283   8.428  18.161  0.00  0.00    +0.000 C 
ATOM     19  O   UNL     1       2.413   8.528  16.933  0.00  0.00    +0.000 OA
ATOM     20  H   UNL     1       1.350   8.889  19.932  0.00  0.00    +0.000 HD
BRANCH  17  27
ATOM     21  C   UNL     1       0.655  11.437  18.816  0.00  0.00    +0.000 A 
ATOM     22  C   UNL     1      -0.356  12.386  18.664  0.00  0.00    +0.000 A 
ATOM     23  C   UNL     1      -1.585  12.011  18.134  0.00  0.00    +0.000 A 
ATOM     24  C   UNL     1      -1.795  10.688  17.737  0.00  0.00    +0.000 A 
ATOM     25  C   UNL     1      -3.071  10.299  17.046  0.00  0.00    +0.000 C 
ATOM     26  C   UNL     1      -0.797   9.721  17.955  0.00  0.00    +0.000 A 
ATOM     27  C   UNL     1       0.415  10.071  18.553  0.00  0.00    +0.000 A 
BRANCH  21  29
ATOM     28  C   UNL     1       2.432  12.911  18.450  0.00  0.00    +0.000 C 
ATOM     29  O   UNL     1       1.843  11.917  19.291  0.00  0.00    +0.000 OA
ENDBRANCH  21  29
ENDBRANCH  17  27
ENDBRANCH  16  18
ENDBRANCH   1  16
TORSDOF 6
ENDMDL
MODEL 8
REMARK VINA RESULT:      -6.7      2.349      3.368
REMARK  Name = 
REMARK  10 active torsions:
REMARK  status: ('A' for Active; 'I' for Inactive)
REMARK    1  A    between atoms: C_1  and  O_2
REMARK    2  A    between atoms: O_2  and  C_3
REMARK    3  A    between atoms: C_6  and  C_7
REMARK    4  A    between atoms: C_9  and  N_10
REMARK    5  A    between atoms: C_11  and  C_13
REMARK    6  A    between atoms: C_13  and  N_14
REMARK    7  A    between atoms: C_15  and  C_16
REMARK    8  A    between atoms: C_18  and  C_19
REMARK    9  A    between atoms: C_20  and  C_21
REMARK   10  A    between atoms: C_23  and  C_24
REMARK                            x       y       z     vdW  Elec       q    Type
REMARK                         _______ _______ _______ _____ _____    ______ ____
ROOT
ATOM      1  N   UNL     1       2.982   5.818  18.887  0.00  0.00    +0.000 N 
ATOM      2  C   UNL     1       2.050   5.191  19.705  0.00  0.00    +0.000 A 
ATOM      3  C   UNL     1       1.414   5.773  20.924  0.00  0.00    +0.000 C 
ATOM      4  C   UNL     1       1.809   3.941  19.178  0.00  0.00    +0.000 A 
ATOM      5  C   UNL     1       2.626   3.773  18.039  0.00  0.00    +0.000 A 
ATOM      6  C   UNL     1       2.630   2.578  17.150  0.00  0.00    +0.000 C 
ATOM      7  C   UNL     1       3.388   4.930  17.895  0.00  0.00    +0.000 A 
ENDROOT
BRANCH   7   8
ATOM      8  C   UNL     1       4.375   5.140  16.862  0.00  0.00    +0.000 A 
ATOM      9  N   UNL     1       5.022   4.152  16.269  0.00  0.00    +0.000 NA
ATOM     10  C   UNL     1       5.737   4.783  15.286  0.00  0.00    +0.000 A 
ATOM     11  N   UNL     1       5.584   6.114  15.265  0.00  0.00    +0.000 NA
ATOM     12  O   UNL     1       4.709   6.357  16.328  0.00  0.00    +0.000 OA
BRANCH  10  13
ATOM     13  C   UNL     1       6.639   4.070  14.281  0.00  0.00    +0.000 C 
ATOM     14  C   UNL     1       6.121   3.610  12.932  0.00  0.00    +0.000 C 
ATOM     15  C   UNL     1       7.000   4.808  13.004  0.00  0.00    +0.000 C 
ENDBRANCH  10  13
ENDBRANCH   7   8
BRANCH   1  16
ATOM     16  C   UNL     1       3.360   7.226  19.031  0.00  0.00    +0.000 C 
BRANCH  16  18
ATOM     17  N   UNL     1       1.549   8.768  19.496  0.00  0.00    +0.000 N 
ATOM     18  C   UNL     1       2.320   8.211  18.500  0.00  0.00    +0.000 C 
ATOM     19  O   UNL     1       2.279   8.490  17.294  0.00  0.00    +0.000 OA
ATOM     20  H   UNL     1       1.637   8.388  20.429  0.00  0.00    +0.000 HD
BRANCH  17  27
ATOM     21  C   UNL     1       0.204  10.519  20.509  0.00  0.00    +0.000 A 
ATOM     22  C   UNL     1      -0.939  11.317  20.535  0.00  0.00    +0.000 A 
ATOM     23  C   UNL     1      -1.727  11.439  19.396  0.00  0.00    +0.000 A 
ATOM     24  C   UNL     1      -1.357  10.777  18.224  0.00  0.00    +0.000 A 
ATOM     25  C   UNL     1      -2.127  11.003  16.953  0.00  0.00    +0.000 C 
ATOM     26  C   UNL     1      -0.242   9.920  18.220  0.00  0.00    +0.000 A 
ATOM     27  C   UNL     1       0.515   9.732  19.378  0.00  0.00    +0.000 A 
BRANCH  21  29
ATOM     28  C   UNL     1       0.342   9.757  22.714  0.00  0.00    +0.000 C 
ATOM     29  O   UNL     1       0.941  10.512  21.659  0.00  0.00    +0.000 OA
ENDBRANCH  21  29
ENDBRANCH  17  27
ENDBRANCH  16  18
ENDBRANCH   1  16
TORSDOF 6
ENDMDL
MODEL 9
REMARK VINA RESULT:      -6.7      1.028      1.281
REMARK  Name = 
REMARK  10 active torsions:
REMARK  status: ('A' for Active; 'I' for Inactive)
REMARK    1  A    between atoms: C_1  and  O_2
REMARK    2  A    between atoms: O_2  and  C_3
REMARK    3  A    between atoms: C_6  and  C_7
REMARK    4  A    between atoms: C_9  and  N_10
REMARK    5  A    between atoms: C_11  and  C_13
REMARK    6  A    between atoms: C_13  and  N_14
REMARK    7  A    between atoms: C_15  and  C_16
REMARK    8  A    between atoms: C_18  and  C_19
REMARK    9  A    between atoms: C_20  and  C_21
REMARK   10  A    between atoms: C_23  and  C_24
REMARK                            x       y       z     vdW  Elec       q    Type
REMARK                         _______ _______ _______ _____ _____    ______ ____
ROOT
ATOM      1  N   UNL     1       2.512   3.959  20.276  0.00  0.00    +0.000 N 
ATOM      2  C   UNL     1       1.869   2.785  20.651  0.00  0.00    +0.000 A 
ATOM      3  C   UNL     1       1.308   2.479  22.001  0.00  0.00    +0.000 C 
ATOM      4  C   UNL     1       1.831   1.962  19.547  0.00  0.00    +0.000 A 
ATOM      5  C   UNL     1       2.488   2.615  18.482  0.00  0.00    +0.000 A 
ATOM      6  C   UNL     1       2.621   2.085  17.096  0.00  0.00    +0.000 C 
ATOM      7  C   UNL     1       2.950   3.838  18.961  0.00  0.00    +0.000 A 
ENDROOT
BRANCH   7   8
ATOM      8  C   UNL     1       3.705   4.792  18.183  0.00  0.00    +0.000 A 
ATOM      9  N   UNL     1       4.885   4.521  17.653  0.00  0.00    +0.000 NA
ATOM     10  C   UNL     1       5.162   5.634  16.905  0.00  0.00    +0.000 A 
ATOM     11  N   UNL     1       4.223   6.588  16.971  0.00  0.00    +0.000 NA
ATOM     12  O   UNL     1       3.273   6.048  17.842  0.00  0.00    +0.000 OA
BRANCH  10  13
ATOM     13  C   UNL     1       6.417   5.811  16.052  0.00  0.00    +0.000 C 
ATOM     14  C   UNL     1       7.372   4.662  15.791  0.00  0.00    +0.000 C 
ATOM     15  C   UNL     1       6.462   5.116  14.703  0.00  0.00    +0.000 C 
ENDBRANCH  10  13
ENDBRANCH   7   8
BRANCH   1  16
ATOM     16  C   UNL     1       2.591   5.142  21.137  0.00  0.00    +0.000 C 
BRANCH  16  18
ATOM     17  N   UNL     1       1.823   7.438  21.236  0.00  0.00    +0.000 N 
ATOM     18  C   UNL     1       1.460   6.146  20.927  0.00  0.00    +0.000 C 
ATOM     19  O   UNL     1       0.375   5.780  20.453  0.00  0.00    +0.000 OA
ATOM     20  H   UNL     1       2.716   7.582  21.688  0.00  0.00    +0.000 HD
BRANCH  17  27
ATOM     21  C   UNL     1       1.123   9.373  19.944  0.00  0.00    +0.000 A 
ATOM     22  C   UNL     1       0.573  10.651  19.864  0.00  0.00    +0.000 A 
ATOM     23  C   UNL     1      -0.165  11.157  20.929  0.00  0.00    +0.000 A 
ATOM     24  C   UNL     1      -0.368  10.373  22.066  0.00  0.00    +0.000 A 
ATOM     25  C   UNL     1      -1.269  10.857  23.167  0.00  0.00    +0.000 C 
ATOM     26  C   UNL     1       0.244   9.111  22.170  0.00  0.00    +0.000 A 
ATOM     27  C   UNL     1       1.047   8.622  21.138  0.00  0.00    +0.000 A 
BRANCH  21  29
ATOM     28  C   UNL     1       1.150   9.349  17.607  0.00  0.00    +0.000 C 
ATOM     29  O   UNL     1       1.779   8.945  18.824  0.00  0.00    +0.000 OA
ENDBRANCH  21  29
ENDBRANCH  17  27
ENDBRANCH  16  18
ENDBRANCH   1  16
TORSDOF 6
ENDMDL
