MODEL 1
REMARK VINA RESULT:      -8.0      0.000      0.000
REMARK  Name = 
REMARK  14 active torsions:
REMARK  status: ('A' for Active; 'I' for Inactive)
REMARK    1  A    between atoms: C_1  and  C_2
REMARK    2  A    between atoms: C_2  and  C_3
REMARK    3  A    between atoms: C_3  and  C_4
REMARK    4  A    between atoms: C_4  and  O_5
REMARK    5  A    between atoms: O_5  and  C_6
REMARK    6  A    between atoms: N_8  and  CA_9
REMARK    7  A    between atoms: CA_9  and  C_10
REMARK    8  A    between atoms: CA_9  and  C_29
REMARK    9  A    between atoms: C_10  and  N_11
REMARK   10  A    between atoms: C_12  and  C_14
REMARK   11  A    between atoms: C_14  and  C_15
REMARK   12  A    between atoms: C_17  and  C_18
REMARK   13  A    between atoms: C_21  and  C_22
REMARK   14  A    between atoms: C_29  and  OXT_31
REMARK                            x       y       z     vdW  Elec       q    Type
REMARK                         _______ _______ _______ _____ _____    ______ ____
ROOT
ATOM      1  N   UNL     1       4.911   3.282  17.503  0.00  0.00    +0.000 N 
ATOM      2  C   UNL     1       3.738   2.817  18.010  0.00  0.00    +0.000 C 
ATOM      3  O   UNL     1       2.703   2.896  17.362  0.00  0.00    +0.000 OA
ATOM      4  H   UNL     1       5.761   3.188  18.074  0.00  0.00    +0.000 HD
ENDROOT
BRANCH   1   5
ATOM      5  C   UNL     1       4.996   3.877  16.185  0.00  0.00    +0.000 C 
BRANCH   5   6
ATOM      6  CA  UNL     1       6.257   4.751  16.005  0.00  0.00    +0.000 C 
BRANCH   6   9
ATOM      7  C   UNL     1       7.479   5.285  18.091  0.00  0.00    +0.000 C 
ATOM      8  O   UNL     1       8.238   4.928  18.982  0.00  0.00    +0.000 OA
ATOM      9  N   UNL     1       7.232   4.451  17.048  0.00  0.00    +0.000 N 
ATOM     10  H   UNL     1       7.706   3.534  17.034  0.00  0.00    +0.000 HD
BRANCH   7  11
ATOM     11  O   UNL     1       6.850   6.482  18.176  0.00  0.00    +0.000 OA
BRANCH  11  12
ATOM     12  C   UNL     1       7.296   7.620  17.534  0.00  0.00    +0.000 C 
BRANCH  12  13
ATOM     13  C   UNL     1       8.514   8.236  18.223  0.00  0.00    +0.000 C 
BRANCH  13  15
ATOM     14  C   UNL     1       9.458  10.305  19.300  0.00  0.00    +0.000 C 
ATOM     15  C   UNL     1       8.430   9.764  18.309  0.00  0.00    +0.000 C 
ENDBRANCH  13  15
ENDBRANCH  12  13
ENDBRANCH  11  12
ENDBRANCH   7  11
ENDBRANCH   6   9
BRANCH   6  16
ATOM     16  C   UNL     1       6.896   4.609  14.637  0.00  0.00    +0.000 C 
ATOM     17  O   UNL     1       6.537   3.737  13.863  0.00  0.00    +0.000 OA
BRANCH  16  18
ATOM     18  OXT UNL     1       7.844   5.481  14.240  0.00  0.00    +0.000 OA
ATOM     19  HXT UNL     1       7.651   6.177  13.595  0.00  0.00    +0.000 HD
ENDBRANCH  16  18
ENDBRANCH   6  16
ENDBRANCH   5   6
ENDBRANCH   1   5
BRANCH   2  20
ATOM     20  C   UNL     1       3.709   2.200  19.385  0.00  0.00    +0.000 C 
BRANCH  20  21
ATOM     21  C   UNL     1       3.261   3.222  20.437  0.00  0.00    +0.000 C 
ATOM     22  C   UNL     1       3.605   4.671  20.045  0.00  0.00    +0.000 C 
ATOM     23  C   UNL     1       2.260   5.296  20.149  0.00  0.00    +0.000 C 
ATOM     24  N   UNL     1       1.372   4.424  20.432  0.00  0.00    +0.000 NA
ATOM     25  O   UNL     1       1.890   3.226  20.575  0.00  0.00    +0.000 OA
BRANCH  23  26
ATOM     26  C   UNL     1       1.953   6.727  19.920  0.00  0.00    +0.000 A 
ATOM     27  C   UNL     1       2.331   7.354  18.726  0.00  0.00    +0.000 A 
ATOM     28  C   UNL     1       2.044   8.704  18.508  0.00  0.00    +0.000 A 
ATOM     29  C   UNL     1       1.363   9.479  19.482  0.00  0.00    +0.000 A 
ATOM     30  C   UNL     1       0.995   8.827  20.682  0.00  0.00    +0.000 A 
ATOM     31  C   UNL     1       1.281   7.475  20.892  0.00  0.00    +0.000 A 
BRANCH  29  32
ATOM     32  C   UNL     1       1.054  10.943  19.257  0.00  0.00    +0.000 C 
ATOM     33  N   UNL     1       1.113  11.480  18.086  0.00  0.00    +0.000 NA
ATOM     34  N   UNL     1       0.679  11.795  20.332  0.00  0.00    +0.000 N 
ATOM     35  H   UNL     1       1.364  10.986  17.223  0.00  0.00    +0.000 HD
ATOM     36  H   UNL     1       0.607  11.482  21.309  0.00  0.00    +0.000 HD
ATOM     37  H   UNL     1       0.471  12.788  20.146  0.00  0.00    +0.000 HD
ENDBRANCH  29  32
ENDBRANCH  23  26
ENDBRANCH  20  21
ENDBRANCH   2  20
TORSDOF 13
ENDMDL
MODEL 2
REMARK VINA RESULT:      -7.9      2.077      4.303
REMARK  Name = 
REMARK  14 active torsions:
REMARK  status: ('A' for Active; 'I' for Inactive)
REMARK    1  A    between atoms: C_1  and  C_2
REMARK    2  A    between atoms: C_2  and  C_3
REMARK    3  A    between atoms: C_3  and  C_4
REMARK    4  A    between atoms: C_4  and  O_5
REMARK    5  A    between atoms: O_5  and  C_6
REMARK    6  A    between atoms: N_8  and  CA_9
REMARK    7  A    between atoms: CA_9  and  C_10
REMARK    8  A    between atoms: CA_9  and  C_29
REMARK    9  A    between atoms: C_10  and  N_11
REMARK   10  A    between atoms: C_12  and  C_14
REMARK   11  A    between atoms: C_14  and  C_15
REMARK   12  A    between atoms: C_17  and  C_18
REMARK   13  A    between atoms: C_21  and  C_22
REMARK   14  A    between atoms: C_29  and  OXT_31
REMARK                            x       y       z     vdW  Elec       q    Type
REMARK                         _______ _______ _______ _____ _____    ______ ____
ROOT
ATOM      1  N   UNL     1       5.646   3.874  17.557  0.00  0.00    +0.000 N 
ATOM      2  C   UNL     1       4.855   3.536  18.610  0.00  0.00    +0.000 C 
ATOM      3  O   UNL     1       5.334   3.375  19.724  0.00  0.00    +0.000 OA
ATOM      4  H   UNL     1       5.204   4.010  16.637  0.00  0.00    +0.000 HD
ENDROOT
BRANCH   1   5
ATOM      5  C   UNL     1       7.075   4.068  17.699  0.00  0.00    +0.000 C 
BRANCH   5   6
ATOM      6  CA  UNL     1       7.495   5.547  17.554  0.00  0.00    +0.000 C 
BRANCH   6   9
ATOM      7  C   UNL     1       6.169   6.139  15.548  0.00  0.00    +0.000 C 
ATOM      8  O   UNL     1       5.218   6.732  15.057  0.00  0.00    +0.000 OA
ATOM      9  N   UNL     1       6.452   6.301  16.867  0.00  0.00    +0.000 N 
ATOM     10  H   UNL     1       5.854   6.936  17.418  0.00  0.00    +0.000 HD
BRANCH   7  11
ATOM     11  O   UNL     1       6.899   5.285  14.790  0.00  0.00    +0.000 OA
BRANCH  11  12
ATOM     12  C   UNL     1       6.377   4.140  14.224  0.00  0.00    +0.000 C 
BRANCH  12  13
ATOM     13  C   UNL     1       6.556   4.107  12.706  0.00  0.00    +0.000 C 
BRANCH  13  15
ATOM     14  C   UNL     1       4.466   3.356  11.523  0.00  0.00    +0.000 C 
ATOM     15  C   UNL     1       5.832   2.925  12.053  0.00  0.00    +0.000 C 
ENDBRANCH  13  15
ENDBRANCH  12  13
ENDBRANCH  11  12
ENDBRANCH   7  11
ENDBRANCH   6   9
BRANCH   6  16
ATOM     16  C   UNL     1       7.833   6.209  18.875  0.00  0.00    +0.000 C 
ATOM     17  O   UNL     1       7.579   5.661  19.936  0.00  0.00    +0.000 OA
BRANCH  16  18
ATOM     18  OXT UNL     1       8.465   7.399  18.893  0.00  0.00    +0.000 OA
ATOM     19  HXT UNL     1       9.402   7.470  19.124  0.00  0.00    +0.000 HD
ENDBRANCH  16  18
ENDBRANCH   6  16
ENDBRANCH   5   6
ENDBRANCH   1   5
BRANCH   2  20
ATOM     20  C   UNL     1       3.373   3.355  18.404  0.00  0.00    +0.000 C 
BRANCH  20  21
ATOM     21  C   UNL     1       2.740   4.622  17.816  0.00  0.00    +0.000 C 
ATOM     22  C   UNL     1       1.737   5.288  18.775  0.00  0.00    +0.000 C 
ATOM     23  C   UNL     1       2.301   6.663  18.831  0.00  0.00    +0.000 C 
ATOM     24  N   UNL     1       3.385   6.738  18.161  0.00  0.00    +0.000 NA
ATOM     25  O   UNL     1       3.689   5.595  17.591  0.00  0.00    +0.000 OA
BRANCH  23  26
ATOM     26  C   UNL     1       1.730   7.801  19.587  0.00  0.00    +0.000 A 
ATOM     27  C   UNL     1       1.455   9.015  18.947  0.00  0.00    +0.000 A 
ATOM     28  C   UNL     1       0.918  10.091  19.660  0.00  0.00    +0.000 A 
ATOM     29  C   UNL     1       0.634   9.988  21.046  0.00  0.00    +0.000 A 
ATOM     30  C   UNL     1       0.923   8.754  21.674  0.00  0.00    +0.000 A 
ATOM     31  C   UNL     1       1.456   7.681  20.954  0.00  0.00    +0.000 A 
BRANCH  29  32
ATOM     32  C   UNL     1       0.058  11.149  21.826  0.00  0.00    +0.000 C 
ATOM     33  N   UNL     1      -0.420  11.002  23.015  0.00  0.00    +0.000 NA
ATOM     34  N   UNL     1       0.020  12.462  21.281  0.00  0.00    +0.000 N 
ATOM     35  H   UNL     1      -0.453  10.117  23.531  0.00  0.00    +0.000 HD
ATOM     36  H   UNL     1       0.362  12.699  20.341  0.00  0.00    +0.000 HD
ATOM     37  H   UNL     1      -0.376  13.234  21.839  0.00  0.00    +0.000 HD
ENDBRANCH  29  32
ENDBRANCH  23  26
ENDBRANCH  20  21
ENDBRANCH   2  20
TORSDOF 13
ENDMDL
MODEL 3
REMARK VINA RESULT:      -7.6      2.369      4.790
REMARK  Name = 
REMARK  14 active torsions:
REMARK  status: ('A' for Active; 'I' for Inactive)
REMARK    1  A    between atoms: C_1  and  C_2
REMARK    2  A    between atoms: C_2  and  C_3
REMARK    3  A    between atoms: C_3  and  C_4
REMARK    4  A    between atoms: C_4  and  O_5
REMARK    5  A    between atoms: O_5  and  C_6
REMARK    6  A    between atoms: N_8  and  CA_9
REMARK    7  A    between atoms: CA_9  and  C_10
REMARK    8  A    between atoms: CA_9  and  C_29
REMARK    9  A    between atoms: C_10  and  N_11
REMARK   10  A    between atoms: C_12  and  C_14
REMARK   11  A    between atoms: C_14  and  C_15
REMARK   12  A    between atoms: C_17  and  C_18
REMARK   13  A    between atoms: C_21  and  C_22
REMARK   14  A    between atoms: C_29  and  OXT_31
REMARK                            x       y       z     vdW  Elec       q    Type
REMARK                         _______ _______ _______ _____ _____    ______ ____
ROOT
ATOM      1  N   UNL     1       4.526   4.807  16.933  0.00  0.00    +0.000 N 
ATOM      2  C   UNL     1       3.311   4.330  17.315  0.00  0.00    +0.000 C 
ATOM      3  O   UNL     1       3.074   3.130  17.287  0.00  0.00    +0.000 OA
ATOM      4  H   UNL     1       4.690   5.821  16.981  0.00  0.00    +0.000 HD
ENDROOT
BRANCH   1   5
ATOM      5  C   UNL     1       5.591   3.930  16.491  0.00  0.00    +0.000 C 
BRANCH   5   6
ATOM      6  CA  UNL     1       6.996   4.522  16.742  0.00  0.00    +0.000 C 
BRANCH   6   9
ATOM      7  C   UNL     1       7.179   4.931  14.307  0.00  0.00    +0.000 C 
ATOM      8  O   UNL     1       7.480   5.682  13.389  0.00  0.00    +0.000 OA
ATOM      9  N   UNL     1       7.425   5.307  15.589  0.00  0.00    +0.000 N 
ATOM     10  H   UNL     1       7.873   6.222  15.750  0.00  0.00    +0.000 HD
BRANCH   7  11
ATOM     11  O   UNL     1       6.555   3.757  14.044  0.00  0.00    +0.000 OA
BRANCH  11  12
ATOM     12  C   UNL     1       6.216   3.348  12.769  0.00  0.00    +0.000 C 
BRANCH  12  13
ATOM     13  C   UNL     1       4.752   3.634  12.438  0.00  0.00    +0.000 C 
BRANCH  13  15
ATOM     14  C   UNL     1       3.381   3.841  10.336  0.00  0.00    +0.000 C 
ATOM     15  C   UNL     1       4.291   2.929  11.157  0.00  0.00    +0.000 C 
ENDBRANCH  13  15
ENDBRANCH  12  13
ENDBRANCH  11  12
ENDBRANCH   7  11
ENDBRANCH   6   9
BRANCH   6  16
ATOM     16  C   UNL     1       7.079   5.360  18.002  0.00  0.00    +0.000 C 
ATOM     17  O   UNL     1       7.674   6.426  18.011  0.00  0.00    +0.000 OA
BRANCH  16  18
ATOM     18  OXT UNL     1       6.453   4.956  19.125  0.00  0.00    +0.000 OA
ATOM     19  HXT UNL     1       6.918   4.906  19.973  0.00  0.00    +0.000 HD
ENDBRANCH  16  18
ENDBRANCH   6  16
ENDBRANCH   5   6
ENDBRANCH   1   5
BRANCH   2  20
ATOM     20  C   UNL     1       2.242   5.289  17.773  0.00  0.00    +0.000 C 
BRANCH  20  21
ATOM     21  C   UNL     1       2.773   6.222  18.869  0.00  0.00    +0.000 C 
ATOM     22  C   UNL     1       2.091   7.603  18.857  0.00  0.00    +0.000 C 
ATOM     23  C   UNL     1       1.614   7.671  20.264  0.00  0.00    +0.000 C 
ATOM     24  N   UNL     1       1.869   6.586  20.885  0.00  0.00    +0.000 NA
ATOM     25  O   UNL     1       2.500   5.722  20.124  0.00  0.00    +0.000 OA
BRANCH  23  26
ATOM     26  C   UNL     1       0.898   8.813  20.878  0.00  0.00    +0.000 A 
ATOM     27  C   UNL     1       0.445   9.877  20.088  0.00  0.00    +0.000 A 
ATOM     28  C   UNL     1      -0.229  10.957  20.666  0.00  0.00    +0.000 A 
ATOM     29  C   UNL     1      -0.478  11.008  22.062  0.00  0.00    +0.000 A 
ATOM     30  C   UNL     1      -0.008   9.925  22.841  0.00  0.00    +0.000 A 
ATOM     31  C   UNL     1       0.661   8.846  22.256  0.00  0.00    +0.000 A 
BRANCH  29  32
ATOM     32  C   UNL     1      -1.202  12.175  22.696  0.00  0.00    +0.000 C 
ATOM     33  N   UNL     1      -2.317  12.025  23.326  0.00  0.00    +0.000 NA
ATOM     34  N   UNL     1      -0.681  13.496  22.628  0.00  0.00    +0.000 N 
ATOM     35  H   UNL     1      -2.804  11.132  23.458  0.00  0.00    +0.000 HD
ATOM     36  H   UNL     1       0.193  13.740  22.145  0.00  0.00    +0.000 HD
ATOM     37  H   UNL     1      -1.196  14.271  23.073  0.00  0.00    +0.000 HD
ENDBRANCH  29  32
ENDBRANCH  23  26
ENDBRANCH  20  21
ENDBRANCH   2  20
TORSDOF 13
ENDMDL
MODEL 4
REMARK VINA RESULT:      -7.5      3.765      6.213
REMARK  Name = 
REMARK  14 active torsions:
REMARK  status: ('A' for Active; 'I' for Inactive)
REMARK    1  A    between atoms: C_1  and  C_2
REMARK    2  A    between atoms: C_2  and  C_3
REMARK    3  A    between atoms: C_3  and  C_4
REMARK    4  A    between atoms: C_4  and  O_5
REMARK    5  A    between atoms: O_5  and  C_6
REMARK    6  A    between atoms: N_8  and  CA_9
REMARK    7  A    between atoms: CA_9  and  C_10
REMARK    8  A    between atoms: CA_9  and  C_29
REMARK    9  A    between atoms: C_10  and  N_11
REMARK   10  A    between atoms: C_12  and  C_14
REMARK   11  A    between atoms: C_14  and  C_15
REMARK   12  A    between atoms: C_17  and  C_18
REMARK   13  A    between atoms: C_21  and  C_22
REMARK   14  A    between atoms: C_29  and  OXT_31
REMARK                            x       y       z     vdW  Elec       q    Type
REMARK                         _______ _______ _______ _____ _____    ______ ____
ROOT
ATOM      1  N   UNL     1       3.351   6.215  18.364  0.00  0.00    +0.000 N 
ATOM      2  C   UNL     1       2.842   7.468  18.219  0.00  0.00    +0.000 C 
ATOM      3  O   UNL     1       3.107   8.139  17.231  0.00  0.00    +0.000 OA
ATOM      4  H   UNL     1       3.097   5.678  19.204  0.00  0.00    +0.000 HD
ENDROOT
BRANCH   1   5
ATOM      5  C   UNL     1       4.212   5.615  17.365  0.00  0.00    +0.000 C 
BRANCH   5   6
ATOM      6  CA  UNL     1       5.248   4.644  17.974  0.00  0.00    +0.000 C 
BRANCH   6   9
ATOM      7  C   UNL     1       4.212   2.541  18.769  0.00  0.00    +0.000 C 
ATOM      8  O   UNL     1       3.785   1.422  18.519  0.00  0.00    +0.000 OA
ATOM      9  N   UNL     1       4.814   3.263  17.790  0.00  0.00    +0.000 N 
ATOM     10  H   UNL     1       4.902   2.836  16.854  0.00  0.00    +0.000 HD
BRANCH   7  11
ATOM     11  O   UNL     1       4.034   3.073  20.003  0.00  0.00    +0.000 OA
BRANCH  11  12
ATOM     12  C   UNL     1       3.040   2.662  20.869  0.00  0.00    +0.000 C 
BRANCH  12  13
ATOM     13  C   UNL     1       2.121   3.809  21.285  0.00  0.00    +0.000 C 
BRANCH  13  15
ATOM     14  C   UNL     1       0.616   2.810  19.533  0.00  0.00    +0.000 C 
ATOM     15  C   UNL     1       1.029   4.094  20.247  0.00  0.00    +0.000 C 
ENDBRANCH  13  15
ENDBRANCH  12  13
ENDBRANCH  11  12
ENDBRANCH   7  11
ENDBRANCH   6   9
BRANCH   6  16
ATOM     16  C   UNL     1       6.646   4.830  17.418  0.00  0.00    +0.000 C 
ATOM     17  O   UNL     1       6.908   5.763  16.676  0.00  0.00    +0.000 OA
BRANCH  16  18
ATOM     18  OXT UNL     1       7.633   3.986  17.776  0.00  0.00    +0.000 OA
ATOM     19  HXT UNL     1       8.056   4.042  18.645  0.00  0.00    +0.000 HD
ENDBRANCH  16  18
ENDBRANCH   6  16
ENDBRANCH   5   6
ENDBRANCH   1   5
BRANCH   2  20
ATOM     20  C   UNL     1       1.945   8.039  19.287  0.00  0.00    +0.000 C 
BRANCH  20  21
ATOM     21  C   UNL     1       1.516   9.470  18.939  0.00  0.00    +0.000 C 
ATOM     22  C   UNL     1       0.245   9.515  18.071  0.00  0.00    +0.000 C 
ATOM     23  C   UNL     1      -0.607  10.407  18.902  0.00  0.00    +0.000 C 
ATOM     24  N   UNL     1      -0.018  10.713  19.993  0.00  0.00    +0.000 NA
ATOM     25  O   UNL     1       1.178  10.178  20.071  0.00  0.00    +0.000 OA
BRANCH  23  26
ATOM     26  C   UNL     1      -1.973  10.862  18.558  0.00  0.00    +0.000 A 
ATOM     27  C   UNL     1      -2.667  10.287  17.486  0.00  0.00    +0.000 A 
ATOM     28  C   UNL     1      -3.956  10.716  17.159  0.00  0.00    +0.000 A 
ATOM     29  C   UNL     1      -4.601  11.742  17.898  0.00  0.00    +0.000 A 
ATOM     30  C   UNL     1      -3.881  12.312  18.973  0.00  0.00    +0.000 A 
ATOM     31  C   UNL     1      -2.594  11.875  19.298  0.00  0.00    +0.000 A 
BRANCH  29  32
ATOM     32  C   UNL     1      -5.994  12.217  17.546  0.00  0.00    +0.000 C 
ATOM     33  N   UNL     1      -7.033  11.473  17.724  0.00  0.00    +0.000 NA
ATOM     34  N   UNL     1      -6.220  13.511  17.004  0.00  0.00    +0.000 N 
ATOM     35  H   UNL     1      -7.019  10.524  18.109  0.00  0.00    +0.000 HD
ATOM     36  H   UNL     1      -5.471  14.187  16.810  0.00  0.00    +0.000 HD
ATOM     37  H   UNL     1      -7.182  13.808  16.778  0.00  0.00    +0.000 HD
ENDBRANCH  29  32
ENDBRANCH  23  26
ENDBRANCH  20  21
ENDBRANCH   2  20
TORSDOF 13
ENDMDL
MODEL 5
REMARK VINA RESULT:      -7.5      2.719      5.540
REMARK  Name = 
REMARK  14 active torsions:
REMARK  status: ('A' for Active; 'I' for Inactive)
REMARK    1  A    between atoms: C_1  and  C_2
REMARK    2  A    between atoms: C_2  and  C_3
REMARK    3  A    between atoms: C_3  and  C_4
REMARK    4  A    between atoms: C_4  and  O_5
REMARK    5  A    between atoms: O_5  and  C_6
REMARK    6  A    between atoms: N_8  and  CA_9
REMARK    7  A    between atoms: CA_9  and  C_10
REMARK    8  A    between atoms: CA_9  and  C_29
REMARK    9  A    between atoms: C_10  and  N_11
REMARK   10  A    between atoms: C_12  and  C_14
REMARK   11  A    between atoms: C_14  and  C_15
REMARK   12  A    between atoms: C_17  and  C_18
REMARK   13  A    between atoms: C_21  and  C_22
REMARK   14  A    between atoms: C_29  and  OXT_31
REMARK                            x       y       z     vdW  Elec       q    Type
REMARK                         _______ _______ _______ _____ _____    ______ ____
ROOT
ATOM      1  N   UNL     1       4.778   5.990  16.785  0.00  0.00    +0.000 N 
ATOM      2  C   UNL     1       3.837   5.822  17.753  0.00  0.00    +0.000 C 
ATOM      3  O   UNL     1       3.285   4.741  17.905  0.00  0.00    +0.000 OA
ATOM      4  H   UNL     1       5.227   6.912  16.695  0.00  0.00    +0.000 HD
ENDROOT
BRANCH   1   5
ATOM      5  C   UNL     1       5.176   4.911  15.904  0.00  0.00    +0.000 C 
BRANCH   5   6
ATOM      6  CA  UNL     1       6.698   4.650  15.930  0.00  0.00    +0.000 C 
BRANCH   6   9
ATOM      7  C   UNL     1       7.330   4.814  13.542  0.00  0.00    +0.000 C 
ATOM      8  O   UNL     1       7.806   5.471  12.625  0.00  0.00    +0.000 OA
ATOM      9  N   UNL     1       7.343   5.316  14.803  0.00  0.00    +0.000 N 
ATOM     10  H   UNL     1       7.767   6.245  14.954  0.00  0.00    +0.000 HD
BRANCH   7  11
ATOM     11  O   UNL     1       6.747   3.618  13.285  0.00  0.00    +0.000 OA
BRANCH  11  12
ATOM     12  C   UNL     1       6.112   3.324  12.095  0.00  0.00    +0.000 C 
BRANCH  12  13
ATOM     13  C   UNL     1       4.627   3.682  12.125  0.00  0.00    +0.000 C 
BRANCH  13  15
ATOM     14  C   UNL     1       3.297   4.019  10.015  0.00  0.00    +0.000 C 
ATOM     15  C   UNL     1       3.834   2.992  11.009  0.00  0.00    +0.000 C 
ENDBRANCH  13  15
ENDBRANCH  12  13
ENDBRANCH  11  12
ENDBRANCH   7  11
ENDBRANCH   6   9
BRANCH   6  16
ATOM     16  C   UNL     1       7.358   5.066  17.229  0.00  0.00    +0.000 C 
ATOM     17  O   UNL     1       7.729   6.216  17.406  0.00  0.00    +0.000 OA
BRANCH  16  18
ATOM     18  OXT UNL     1       7.502   4.175  18.230  0.00  0.00    +0.000 OA
ATOM     19  HXT UNL     1       8.246   3.556  18.252  0.00  0.00    +0.000 HD
ENDBRANCH  16  18
ENDBRANCH   6  16
ENDBRANCH   5   6
ENDBRANCH   1   5
BRANCH   2  20
ATOM     20  C   UNL     1       3.468   6.978  18.646  0.00  0.00    +0.000 C 
BRANCH  20  21
ATOM     21  C   UNL     1       2.191   7.670  18.151  0.00  0.00    +0.000 C 
ATOM     22  C   UNL     1       1.471   8.457  19.261  0.00  0.00    +0.000 C 
ATOM     23  C   UNL     1       1.386   9.796  18.619  0.00  0.00    +0.000 C 
ATOM     24  N   UNL     1       1.979   9.798  17.489  0.00  0.00    +0.000 NA
ATOM     25  O   UNL     1       2.478   8.620  17.195  0.00  0.00    +0.000 OA
BRANCH  23  26
ATOM     26  C   UNL     1       0.744  10.995  19.205  0.00  0.00    +0.000 A 
ATOM     27  C   UNL     1      -0.449  10.882  19.930  0.00  0.00    +0.000 A 
ATOM     28  C   UNL     1      -1.057  12.013  20.483  0.00  0.00    +0.000 A 
ATOM     29  C   UNL     1      -0.489  13.304  20.329  0.00  0.00    +0.000 A 
ATOM     30  C   UNL     1       0.713  13.396  19.589  0.00  0.00    +0.000 A 
ATOM     31  C   UNL     1       1.319  12.260  19.044  0.00  0.00    +0.000 A 
BRANCH  29  32
ATOM     32  C   UNL     1      -1.143  14.534  20.918  0.00  0.00    +0.000 C 
ATOM     33  N   UNL     1      -1.096  14.793  22.181  0.00  0.00    +0.000 NA
ATOM     34  N   UNL     1      -1.842  15.465  20.102  0.00  0.00    +0.000 N 
ATOM     35  H   UNL     1      -0.625  14.214  22.884  0.00  0.00    +0.000 HD
ATOM     36  H   UNL     1      -1.954  15.360  19.085  0.00  0.00    +0.000 HD
ATOM     37  H   UNL     1      -2.275  16.296  20.533  0.00  0.00    +0.000 HD
ENDBRANCH  29  32
ENDBRANCH  23  26
ENDBRANCH  20  21
ENDBRANCH   2  20
TORSDOF 13
ENDMDL
MODEL 6
REMARK VINA RESULT:      -7.5      1.917      4.408
REMARK  Name = 
REMARK  14 active torsions:
REMARK  status: ('A' for Active; 'I' for Inactive)
REMARK    1  A    between atoms: C_1  and  C_2
REMARK    2  A    between atoms: C_2  and  C_3
REMARK    3  A    between atoms: C_3  and  C_4
REMARK    4  A    between atoms: C_4  and  O_5
REMARK    5  A    between atoms: O_5  and  C_6
REMARK    6  A    between atoms: N_8  and  CA_9
REMARK    7  A    between atoms: CA_9  and  C_10
REMARK    8  A    between atoms: CA_9  and  C_29
REMARK    9  A    between atoms: C_10  and  N_11
REMARK   10  A    between atoms: C_12  and  C_14
REMARK   11  A    between atoms: C_14  and  C_15
REMARK   12  A    between atoms: C_17  and  C_18
REMARK   13  A    between atoms: C_21  and  C_22
REMARK   14  A    between atoms: C_29  and  OXT_31
REMARK                            x       y       z     vdW  Elec       q    Type
REMARK                         _______ _______ _______ _____ _____    ______ ____
ROOT
ATOM      1  N   UNL     1       6.292   3.938  18.002  0.00  0.00    +0.000 N 
ATOM      2  C   UNL     1       5.774   4.307  19.204  0.00  0.00    +0.000 C 
ATOM      3  O   UNL     1       6.262   5.234  19.835  0.00  0.00    +0.000 OA
ATOM      4  H   UNL     1       5.848   3.159  17.497  0.00  0.00    +0.000 HD
ENDROOT
BRANCH   1   5
ATOM      5  C   UNL     1       7.424   4.621  17.410  0.00  0.00    +0.000 C 
BRANCH   5   6
ATOM      6  CA  UNL     1       7.003   5.702  16.389  0.00  0.00    +0.000 C 
BRANCH   6   9
ATOM      7  C   UNL     1       5.766   4.733  14.476  0.00  0.00    +0.000 C 
ATOM      8  O   UNL     1       4.711   4.332  14.004  0.00  0.00    +0.000 OA
ATOM      9  N   UNL     1       5.776   5.302  15.709  0.00  0.00    +0.000 N 
ATOM     10  H   UNL     1       4.879   5.389  16.213  0.00  0.00    +0.000 HD
BRANCH   7  11
ATOM     11  O   UNL     1       6.923   4.559  13.792  0.00  0.00    +0.000 OA
BRANCH  11  12
ATOM     12  C   UNL     1       7.004   3.853  12.608  0.00  0.00    +0.000 C 
BRANCH  12  13
ATOM     13  C   UNL     1       5.647   3.314  12.158  0.00  0.00    +0.000 C 
BRANCH  13  15
ATOM     14  C   UNL     1       7.179   1.682  11.007  0.00  0.00    +0.000 C 
ATOM     15  C   UNL     1       5.752   1.940  11.488  0.00  0.00    +0.000 C 
ENDBRANCH  13  15
ENDBRANCH  12  13
ENDBRANCH  11  12
ENDBRANCH   7  11
ENDBRANCH   6   9
BRANCH   6  16
ATOM     16  C   UNL     1       6.834   7.077  17.005  0.00  0.00    +0.000 C 
ATOM     17  O   UNL     1       7.748   7.886  16.999  0.00  0.00    +0.000 OA
BRANCH  16  18
ATOM     18  OXT UNL     1       5.647   7.441  17.529  0.00  0.00    +0.000 OA
ATOM     19  HXT UNL     1       5.018   7.981  17.029  0.00  0.00    +0.000 HD
ENDBRANCH  16  18
ENDBRANCH   6  16
ENDBRANCH   5   6
ENDBRANCH   1   5
BRANCH   2  20
ATOM     20  C   UNL     1       4.591   3.564  19.768  0.00  0.00    +0.000 C 
BRANCH  20  21
ATOM     21  C   UNL     1       3.277   4.093  19.178  0.00  0.00    +0.000 C 
ATOM     22  C   UNL     1       2.750   5.336  19.918  0.00  0.00    +0.000 C 
ATOM     23  C   UNL     1       2.613   6.281  18.778  0.00  0.00    +0.000 C 
ATOM     24  N   UNL     1       3.036   5.753  17.696  0.00  0.00    +0.000 NA
ATOM     25  O   UNL     1       3.451   4.522  17.880  0.00  0.00    +0.000 OA
BRANCH  23  26
ATOM     26  C   UNL     1       2.100   7.667  18.863  0.00  0.00    +0.000 A 
ATOM     27  C   UNL     1       2.219   8.539  17.773  0.00  0.00    +0.000 A 
ATOM     28  C   UNL     1       1.738   9.848  17.852  0.00  0.00    +0.000 A 
ATOM     29  C   UNL     1       1.114  10.334  19.030  0.00  0.00    +0.000 A 
ATOM     30  C   UNL     1       1.008   9.439  20.119  0.00  0.00    +0.000 A 
ATOM     31  C   UNL     1       1.487   8.130  20.033  0.00  0.00    +0.000 A 
BRANCH  29  32
ATOM     32  C   UNL     1       0.595  11.752  19.125  0.00  0.00    +0.000 C 
ATOM     33  N   UNL     1      -0.278  12.216  18.296  0.00  0.00    +0.000 NA
ATOM     34  N   UNL     1       1.046  12.640  20.140  0.00  0.00    +0.000 N 
ATOM     35  H   UNL     1      -0.693  11.689  17.521  0.00  0.00    +0.000 HD
ATOM     36  H   UNL     1       1.745  12.386  20.849  0.00  0.00    +0.000 HD
ATOM     37  H   UNL     1       0.671  13.600  20.181  0.00  0.00    +0.000 HD
ENDBRANCH  29  32
ENDBRANCH  23  26
ENDBRANCH  20  21
ENDBRANCH   2  20
TORSDOF 13
ENDMDL
MODEL 7
REMARK VINA RESULT:      -7.4      2.920      5.397
REMARK  Name = 
REMARK  14 active torsions:
REMARK  status: ('A' for Active; 'I' for Inactive)
REMARK    1  A    between atoms: C_1  and  C_2
REMARK    2  A    between atoms: C_2  and  C_3
REMARK    3  A    between atoms: C_3  and  C_4
REMARK    4  A    between atoms: C_4  and  O_5
REMARK    5  A    between atoms: O_5  and  C_6
REMARK    6  A    between atoms: N_8  and  CA_9
REMARK    7  A    between atoms: CA_9  and  C_10
REMARK    8  A    between atoms: CA_9  and  C_29
REMARK    9  A    between atoms: C_10  and  N_11
REMARK   10  A    between atoms: C_12  and  C_14
REMARK   11  A    between atoms: C_14  and  C_15
REMARK   12  A    between atoms: C_17  and  C_18
REMARK   13  A    between atoms: C_21  and  C_22
REMARK   14  A    between atoms: C_29  and  OXT_31
REMARK                            x       y       z     vdW  Elec       q    Type
REMARK                         _______ _______ _______ _____ _____    ______ ____
ROOT
ATOM      1  N   UNL     1       3.355   5.248  17.543  0.00  0.00    +0.000 N 
ATOM      2  C   UNL     1       3.244   6.603  17.498  0.00  0.00    +0.000 C 
ATOM      3  O   UNL     1       4.164   7.290  17.077  0.00  0.00    +0.000 OA
ATOM      4  H   UNL     1       2.556   4.704  17.895  0.00  0.00    +0.000 HD
ENDROOT
BRANCH   1   5
ATOM      5  C   UNL     1       4.546   4.559  17.091  0.00  0.00    +0.000 C 
BRANCH   5   6
ATOM      6  CA  UNL     1       5.706   4.638  18.110  0.00  0.00    +0.000 C 
BRANCH   6   9
ATOM      7  C   UNL     1       4.769   3.077  19.787  0.00  0.00    +0.000 C 
ATOM      8  O   UNL     1       4.823   1.997  20.361  0.00  0.00    +0.000 OA
ATOM      9  N   UNL     1       5.752   3.423  18.916  0.00  0.00    +0.000 N 
ATOM     10  H   UNL     1       6.529   2.760  18.771  0.00  0.00    +0.000 HD
BRANCH   7  11
ATOM     11  O   UNL     1       3.705   3.894  19.982  0.00  0.00    +0.000 OA
BRANCH  11  12
ATOM     12  C   UNL     1       2.673   3.601  20.850  0.00  0.00    +0.000 C 
BRANCH  12  13
ATOM     13  C   UNL     1       1.352   4.238  20.420  0.00  0.00    +0.000 C 
BRANCH  13  15
ATOM     14  C   UNL     1       1.286   2.074  19.136  0.00  0.00    +0.000 C 
ATOM     15  C   UNL     1       0.664   3.460  19.293  0.00  0.00    +0.000 C 
ENDBRANCH  13  15
ENDBRANCH  12  13
ENDBRANCH  11  12
ENDBRANCH   7  11
ENDBRANCH   6   9
BRANCH   6  16
ATOM     16  C   UNL     1       7.055   4.888  17.466  0.00  0.00    +0.000 C 
ATOM     17  O   UNL     1       7.251   5.879  16.780  0.00  0.00    +0.000 OA
BRANCH  16  18
ATOM     18  OXT UNL     1       8.076   4.035  17.682  0.00  0.00    +0.000 OA
ATOM     19  HXT UNL     1       7.999   3.305  18.313  0.00  0.00    +0.000 HD
ENDBRANCH  16  18
ENDBRANCH   6  16
ENDBRANCH   5   6
ENDBRANCH   1   5
BRANCH   2  20
ATOM     20  C   UNL     1       1.978   7.267  17.975  0.00  0.00    +0.000 C 
BRANCH  20  21
ATOM     21  C   UNL     1       2.273   8.278  19.089  0.00  0.00    +0.000 C 
ATOM     22  C   UNL     1       1.232   9.411  19.156  0.00  0.00    +0.000 C 
ATOM     23  C   UNL     1       0.816   9.301  20.579  0.00  0.00    +0.000 C 
ATOM     24  N   UNL     1       1.392   8.314  21.147  0.00  0.00    +0.000 NA
ATOM     25  O   UNL     1       2.205   7.685  20.331  0.00  0.00    +0.000 OA
BRANCH  23  26
ATOM     26  C   UNL     1      -0.164  10.176  21.262  0.00  0.00    +0.000 A 
ATOM     27  C   UNL     1      -0.728  11.271  20.595  0.00  0.00    +0.000 A 
ATOM     28  C   UNL     1      -1.651  12.099  21.238  0.00  0.00    +0.000 A 
ATOM     29  C   UNL     1      -2.047  11.859  22.579  0.00  0.00    +0.000 A 
ATOM     30  C   UNL     1      -1.462  10.751  23.236  0.00  0.00    +0.000 A 
ATOM     31  C   UNL     1      -0.543   9.924  22.585  0.00  0.00    +0.000 A 
BRANCH  29  32
ATOM     32  C   UNL     1      -3.042  12.754  23.285  0.00  0.00    +0.000 C 
ATOM     33  N   UNL     1      -3.113  14.019  23.044  0.00  0.00    +0.000 NA
ATOM     34  N   UNL     1      -3.950  12.237  24.250  0.00  0.00    +0.000 N 
ATOM     35  H   UNL     1      -2.526  14.524  22.372  0.00  0.00    +0.000 HD
ATOM     36  H   UNL     1      -3.981  11.249  24.531  0.00  0.00    +0.000 HD
ATOM     37  H   UNL     1      -4.619  12.872  24.712  0.00  0.00    +0.000 HD
ENDBRANCH  29  32
ENDBRANCH  23  26
ENDBRANCH  20  21
ENDBRANCH   2  20
TORSDOF 13
ENDMDL
MODEL 8
REMARK VINA RESULT:      -7.4      2.896      5.379
REMARK  Name = 
REMARK  14 active torsions:
REMARK  status: ('A' for Active; 'I' for Inactive)
REMARK    1  A    between atoms: C_1  and  C_2
REMARK    2  A    between atoms: C_2  and  C_3
REMARK    3  A    between atoms: C_3  and  C_4
REMARK    4  A    between atoms: C_4  and  O_5
REMARK    5  A    between atoms: O_5  and  C_6
REMARK    6  A    between atoms: N_8  and  CA_9
REMARK    7  A    between atoms: CA_9  and  C_10
REMARK    8  A    between atoms: CA_9  and  C_29
REMARK    9  A    between atoms: C_10  and  N_11
REMARK   10  A    between atoms: C_12  and  C_14
REMARK   11  A    between atoms: C_14  and  C_15
REMARK   12  A    between atoms: C_17  and  C_18
REMARK   13  A    between atoms: C_21  and  C_22
REMARK   14  A    between atoms: C_29  and  OXT_31
REMARK                            x       y       z     vdW  Elec       q    Type
REMARK                         _______ _______ _______ _____ _____    ______ ____
ROOT
ATOM      1  N   UNL     1       3.528   6.043  19.522  0.00  0.00    +0.000 N 
ATOM      2  C   UNL     1       2.897   6.618  18.464  0.00  0.00    +0.000 C 
ATOM      3  O   UNL     1       2.186   5.952  17.724  0.00  0.00    +0.000 OA
ATOM      4  H   UNL     1       4.110   6.638  20.127  0.00  0.00    +0.000 HD
ENDROOT
BRANCH   1   5
ATOM      5  C   UNL     1       3.383   4.635  19.831  0.00  0.00    +0.000 C 
BRANCH   5   6
ATOM      6  CA  UNL     1       4.377   3.746  19.049  0.00  0.00    +0.000 C 
BRANCH   6   9
ATOM      7  C   UNL     1       6.619   4.551  18.373  0.00  0.00    +0.000 C 
ATOM      8  O   UNL     1       7.723   4.970  18.693  0.00  0.00    +0.000 OA
ATOM      9  N   UNL     1       5.749   4.151  19.336  0.00  0.00    +0.000 N 
ATOM     10  H   UNL     1       6.054   4.204  20.321  0.00  0.00    +0.000 HD
BRANCH   7  11
ATOM     11  O   UNL     1       6.250   4.540  17.069  0.00  0.00    +0.000 OA
BRANCH  11  12
ATOM     12  C   UNL     1       5.907   5.679  16.369  0.00  0.00    +0.000 C 
BRANCH  12  13
ATOM     13  C   UNL     1       5.565   5.384  14.909  0.00  0.00    +0.000 C 
BRANCH  13  15
ATOM     14  C   UNL     1       6.093   3.651  13.162  0.00  0.00    +0.000 C 
ATOM     15  C   UNL     1       6.680   4.618  14.188  0.00  0.00    +0.000 C 
ENDBRANCH  13  15
ENDBRANCH  12  13
ENDBRANCH  11  12
ENDBRANCH   7  11
ENDBRANCH   6   9
BRANCH   6  16
ATOM     16  C   UNL     1       4.202   2.265  19.321  0.00  0.00    +0.000 C 
ATOM     17  O   UNL     1       3.234   1.657  18.892  0.00  0.00    +0.000 OA
BRANCH  16  18
ATOM     18  OXT UNL     1       5.144   1.588  20.007  0.00  0.00    +0.000 OA
ATOM     19  HXT UNL     1       4.919   0.815  20.544  0.00  0.00    +0.000 HD
ENDBRANCH  16  18
ENDBRANCH   6  16
ENDBRANCH   5   6
ENDBRANCH   1   5
BRANCH   2  20
ATOM     20  C   UNL     1       3.078   8.090  18.195  0.00  0.00    +0.000 C 
BRANCH  20  21
ATOM     21  C   UNL     1       1.725   8.780  17.979  0.00  0.00    +0.000 C 
ATOM     22  C   UNL     1       0.852   8.789  19.247  0.00  0.00    +0.000 C 
ATOM     23  C   UNL     1       0.576  10.245  19.366  0.00  0.00    +0.000 C 
ATOM     24  N   UNL     1       1.200  10.902  18.466  0.00  0.00    +0.000 NA
ATOM     25  O   UNL     1       1.890  10.114  17.674  0.00  0.00    +0.000 OA
BRANCH  23  26
ATOM     26  C   UNL     1      -0.267  10.883  20.402  0.00  0.00    +0.000 A 
ATOM     27  C   UNL     1      -0.189  10.469  21.738  0.00  0.00    +0.000 A 
ATOM     28  C   UNL     1      -0.986  11.069  22.717  0.00  0.00    +0.000 A 
ATOM     29  C   UNL     1      -1.894  12.110  22.393  0.00  0.00    +0.000 A 
ATOM     30  C   UNL     1      -1.960  12.508  21.038  0.00  0.00    +0.000 A 
ATOM     31  C   UNL     1      -1.157  11.908  20.064  0.00  0.00    +0.000 A 
BRANCH  29  32
ATOM     32  C   UNL     1      -2.764  12.760  23.446  0.00  0.00    +0.000 C 
ATOM     33  N   UNL     1      -2.595  13.985  23.810  0.00  0.00    +0.000 NA
ATOM     34  N   UNL     1      -3.815  12.044  24.083  0.00  0.00    +0.000 N 
ATOM     35  H   UNL     1      -1.882  14.619  23.433  0.00  0.00    +0.000 HD
ATOM     36  H   UNL     1      -4.039  11.061  23.884  0.00  0.00    +0.000 HD
ATOM     37  H   UNL     1      -4.394  12.516  24.795  0.00  0.00    +0.000 HD
ENDBRANCH  29  32
ENDBRANCH  23  26
ENDBRANCH  20  21
ENDBRANCH   2  20
TORSDOF 13
ENDMDL
MODEL 9
REMARK VINA RESULT:      -7.4      1.929      4.244
REMARK  Name = 
REMARK  14 active torsions:
REMARK  status: ('A' for Active; 'I' for Inactive)
REMARK    1  A    between atoms: C_1  and  C_2
REMARK    2  A    between atoms: C_2  and  C_3
REMARK    3  A    between atoms: C_3  and  C_4
REMARK    4  A    between atoms: C_4  and  O_5
REMARK    5  A    between atoms: O_5  and  C_6
REMARK    6  A    between atoms: N_8  and  CA_9
REMARK    7  A    between atoms: CA_9  and  C_10
REMARK    8  A    between atoms: CA_9  and  C_29
REMARK    9  A    between atoms: C_10  and  N_11
REMARK   10  A    between atoms: C_12  and  C_14
REMARK   11  A    between atoms: C_14  and  C_15
REMARK   12  A    between atoms: C_17  and  C_18
REMARK   13  A    between atoms: C_21  and  C_22
REMARK   14  A    between atoms: C_29  and  OXT_31
REMARK                            x       y       z     vdW  Elec       q    Type
REMARK                         _______ _______ _______ _____ _____    ______ ____
ROOT
ATOM      1  N   UNL     1       4.916   3.874  18.111  0.00  0.00    +0.000 N 
ATOM      2  C   UNL     1       4.471   3.267  19.244  0.00  0.00    +0.000 C 
ATOM      3  O   UNL     1       5.228   2.593  19.929  0.00  0.00    +0.000 OA
ATOM      4  H   UNL     1       4.252   4.441  17.567  0.00  0.00    +0.000 HD
ENDROOT
BRANCH   1   5
ATOM      5  C   UNL     1       6.292   3.765  17.670  0.00  0.00    +0.000 C 
BRANCH   5   6
ATOM      6  CA  UNL     1       6.971   5.140  17.480  0.00  0.00    +0.000 C 
BRANCH   6   9
ATOM      7  C   UNL     1       5.914   6.049  15.435  0.00  0.00    +0.000 C 
ATOM      8  O   UNL     1       5.072   6.775  14.923  0.00  0.00    +0.000 OA
ATOM      9  N   UNL     1       6.071   6.053  16.784  0.00  0.00    +0.000 N 
ATOM     10  H   UNL     1       5.475   6.684  17.342  0.00  0.00    +0.000 HD
BRANCH   7  11
ATOM     11  O   UNL     1       6.644   5.209  14.661  0.00  0.00    +0.000 OA
BRANCH  11  12
ATOM     12  C   UNL     1       6.135   4.046  14.118  0.00  0.00    +0.000 C 
BRANCH  12  13
ATOM     13  C   UNL     1       6.384   3.949  12.614  0.00  0.00    +0.000 C 
BRANCH  13  15
ATOM     14  C   UNL     1       5.981   1.792  11.380  0.00  0.00    +0.000 C 
ATOM     15  C   UNL     1       5.343   3.078  11.901  0.00  0.00    +0.000 C 
ENDBRANCH  13  15
ENDBRANCH  12  13
ENDBRANCH  11  12
ENDBRANCH   7  11
ENDBRANCH   6   9
BRANCH   6  16
ATOM     16  C   UNL     1       7.442   5.762  18.780  0.00  0.00    +0.000 C 
ATOM     17  O   UNL     1       8.147   6.758  18.781  0.00  0.00    +0.000 OA
BRANCH  16  18
ATOM     18  OXT UNL     1       7.047   5.244  19.959  0.00  0.00    +0.000 OA
ATOM     19  HXT UNL     1       7.656   4.744  20.521  0.00  0.00    +0.000 HD
ENDBRANCH  16  18
ENDBRANCH   6  16
ENDBRANCH   5   6
ENDBRANCH   1   5
BRANCH   2  20
ATOM     20  C   UNL     1       3.031   3.422  19.658  0.00  0.00    +0.000 C 
BRANCH  20  21
ATOM     21  C   UNL     1       2.845   4.654  20.553  0.00  0.00    +0.000 C 
ATOM     22  C   UNL     1       3.231   5.967  19.847  0.00  0.00    +0.000 C 
ATOM     23  C   UNL     1       1.976   6.742  20.030  0.00  0.00    +0.000 C 
ATOM     24  N   UNL     1       1.082   6.033  20.602  0.00  0.00    +0.000 NA
ATOM     25  O   UNL     1       1.520   4.830  20.890  0.00  0.00    +0.000 OA
BRANCH  23  26
ATOM     26  C   UNL     1       1.748   8.135  19.583  0.00  0.00    +0.000 A 
ATOM     27  C   UNL     1       1.137   9.065  20.432  0.00  0.00    +0.000 A 
ATOM     28  C   UNL     1       0.919  10.380  20.011  0.00  0.00    +0.000 A 
ATOM     29  C   UNL     1       1.309  10.813  18.717  0.00  0.00    +0.000 A 
ATOM     30  C   UNL     1       1.919   9.856  17.874  0.00  0.00    +0.000 A 
ATOM     31  C   UNL     1       2.139   8.544  18.303  0.00  0.00    +0.000 A 
BRANCH  29  32
ATOM     32  C   UNL     1       1.072  12.233  18.251  0.00  0.00    +0.000 C 
ATOM     33  N   UNL     1      -0.084  12.798  18.347  0.00  0.00    +0.000 NA
ATOM     34  N   UNL     1       2.118  13.012  17.686  0.00  0.00    +0.000 N 
ATOM     35  H   UNL     1      -0.924  12.359  18.737  0.00  0.00    +0.000 HD
ATOM     36  H   UNL     1       3.077  12.666  17.550  0.00  0.00    +0.000 HD
ATOM     37  H   UNL     1       1.926  13.978  17.380  0.00  0.00    +0.000 HD
ENDBRANCH  29  32
ENDBRANCH  23  26
ENDBRANCH  20  21
ENDBRANCH   2  20
TORSDOF 13
ENDMDL
