MODEL 1
REMARK VINA RESULT:      -7.4      0.000      0.000
REMARK  Name = 
REMARK  4 active torsions:
REMARK  status: ('A' for Active; 'I' for Inactive)
REMARK    1  A    between atoms: C_1  and  C_2
REMARK    2  A    between atoms: C_2  and  N_3
REMARK    3  A    between atoms: C_15  and  C_16
REMARK    4  A    between atoms: N_18  and  C_19
REMARK                            x       y       z     vdW  Elec       q    Type
REMARK                         _______ _______ _______ _____ _____    ______ ____
ROOT
ATOM      1  N   UNL     1       5.034   3.947  16.985  0.00  0.00    +0.000 NA
ATOM      2  C   UNL     1       5.574   4.363  18.283  0.00  0.00    +0.000 C 
ATOM      3  C   UNL     1       4.811   5.512  18.953  0.00  0.00    +0.000 C 
ATOM      4  C   UNL     1       3.288   5.293  18.977  0.00  0.00    +0.000 C 
ATOM      5  C   UNL     1       2.740   4.693  17.676  0.00  0.00    +0.000 C 
ATOM      6  C   UNL     1       3.623   3.562  17.139  0.00  0.00    +0.000 C 
ATOM      7  C   UNL     1       2.926   4.372  20.178  0.00  0.00    +0.000 C 
ATOM      8  O   UNL     1       3.245   3.206  20.347  0.00  0.00    +0.000 OA
ATOM      9  N   UNL     1       2.162   5.115  21.070  0.00  0.00    +0.000 N 
ATOM     10  C   UNL     1       1.931   6.393  20.602  0.00  0.00    +0.000 A 
ATOM     11  C   UNL     1       1.181   7.375  21.218  0.00  0.00    +0.000 A 
ATOM     12  C   UNL     1       1.040   8.597  20.552  0.00  0.00    +0.000 A 
ATOM     13  C   UNL     1       1.654   8.809  19.298  0.00  0.00    +0.000 A 
ATOM     14  C   UNL     1       2.411   7.781  18.699  0.00  0.00    +0.000 A 
ATOM     15  C   UNL     1       2.550   6.572  19.368  0.00  0.00    +0.000 A 
ATOM     16  H   UNL     1       1.804   4.721  21.927  0.00  0.00    +0.000 HD
ENDROOT
BRANCH  13  17
ATOM     17  C   UNL     1       1.479  10.091  18.551  0.00  0.00    +0.000 C 
ATOM     18  O   UNL     1       1.966  10.212  17.434  0.00  0.00    +0.000 OA
ATOM     19  N   UNL     1       0.778  11.095  19.192  0.00  0.00    +0.000 N 
ATOM     20  C   UNL     1       0.558  12.387  18.587  0.00  0.00    +0.000 C 
ATOM     21  H   UNL     1       0.511  10.985  20.159  0.00  0.00    +0.000 HD
ENDBRANCH  13  17
BRANCH   1  23
ATOM     22  C   UNL     1       5.700   4.279  14.588  0.00  0.00    +0.000 C 
ATOM     23  C   UNL     1       5.221   4.909  15.891  0.00  0.00    +0.000 C 
ENDBRANCH   1  23
TORSDOF 2
ENDMDL
MODEL 2
REMARK VINA RESULT:      -7.4      1.250      1.443
REMARK  Name = 
REMARK  4 active torsions:
REMARK  status: ('A' for Active; 'I' for Inactive)
REMARK    1  A    between atoms: C_1  and  C_2
REMARK    2  A    between atoms: C_2  and  N_3
REMARK    3  A    between atoms: C_15  and  C_16
REMARK    4  A    between atoms: N_18  and  C_19
REMARK                            x       y       z     vdW  Elec       q    Type
REMARK                         _______ _______ _______ _____ _____    ______ ____
ROOT
ATOM      1  N   UNL     1       6.668   4.259  16.426  0.00  0.00    +0.000 NA
ATOM      2  C   UNL     1       7.010   4.580  17.816  0.00  0.00    +0.000 C 
ATOM      3  C   UNL     1       5.964   5.423  18.553  0.00  0.00    +0.000 C 
ATOM      4  C   UNL     1       4.532   4.882  18.395  0.00  0.00    +0.000 C 
ATOM      5  C   UNL     1       4.224   4.382  16.977  0.00  0.00    +0.000 C 
ATOM      6  C   UNL     1       5.375   3.562  16.386  0.00  0.00    +0.000 C 
ATOM      7  C   UNL     1       4.307   3.733  19.420  0.00  0.00    +0.000 C 
ATOM      8  O   UNL     1       4.870   2.651  19.464  0.00  0.00    +0.000 OA
ATOM      9  N   UNL     1       3.335   4.151  20.322  0.00  0.00    +0.000 N 
ATOM     10  C   UNL     1       2.853   5.405  20.007  0.00  0.00    +0.000 A 
ATOM     11  C   UNL     1       1.859   6.098  20.670  0.00  0.00    +0.000 A 
ATOM     12  C   UNL     1       1.491   7.348  20.161  0.00  0.00    +0.000 A 
ATOM     13  C   UNL     1       2.125   7.874  19.014  0.00  0.00    +0.000 A 
ATOM     14  C   UNL     1       3.134   7.136  18.362  0.00  0.00    +0.000 A 
ATOM     15  C   UNL     1       3.498   5.898  18.876  0.00  0.00    +0.000 A 
ATOM     16  H   UNL     1       3.018   3.564  21.079  0.00  0.00    +0.000 HD
ENDROOT
BRANCH  13  17
ATOM     17  C   UNL     1       1.715   9.188  18.431  0.00  0.00    +0.000 C 
ATOM     18  O   UNL     1       2.145   9.523  17.334  0.00  0.00    +0.000 OA
ATOM     19  N   UNL     1       0.870   9.972  19.193  0.00  0.00    +0.000 N 
ATOM     20  C   UNL     1       0.419  11.270  18.751  0.00  0.00    +0.000 C 
ATOM     21  H   UNL     1       0.651   9.703  20.141  0.00  0.00    +0.000 HD
ENDBRANCH  13  17
BRANCH   1  23
ATOM     22  C   UNL     1       6.795   4.987  14.027  0.00  0.00    +0.000 C 
ATOM     23  C   UNL     1       6.706   5.394  15.494  0.00  0.00    +0.000 C 
ENDBRANCH   1  23
TORSDOF 2
ENDMDL
MODEL 3
REMARK VINA RESULT:      -7.3      3.651      7.399
REMARK  Name = 
REMARK  4 active torsions:
REMARK  status: ('A' for Active; 'I' for Inactive)
REMARK    1  A    between atoms: C_1  and  C_2
REMARK    2  A    between atoms: C_2  and  N_3
REMARK    3  A    between atoms: C_15  and  C_16
REMARK    4  A    between atoms: N_18  and  C_19
REMARK                            x       y       z     vdW  Elec       q    Type
REMARK                         _______ _______ _______ _____ _____    ______ ____
ROOT
ATOM      1  N   UNL     1       3.294   4.802  18.622  0.00  0.00    +0.000 NA
ATOM      2  C   UNL     1       4.528   4.019  18.729  0.00  0.00    +0.000 C 
ATOM      3  C   UNL     1       5.227   3.741  17.393  0.00  0.00    +0.000 C 
ATOM      4  C   UNL     1       5.388   5.000  16.523  0.00  0.00    +0.000 C 
ATOM      5  C   UNL     1       4.156   5.915  16.545  0.00  0.00    +0.000 C 
ATOM      6  C   UNL     1       3.580   6.081  17.955  0.00  0.00    +0.000 C 
ATOM      7  C   UNL     1       6.642   5.790  16.998  0.00  0.00    +0.000 C 
ATOM      8  O   UNL     1       6.817   6.333  18.077  0.00  0.00    +0.000 OA
ATOM      9  N   UNL     1       7.574   5.771  15.967  0.00  0.00    +0.000 N 
ATOM     10  C   UNL     1       7.089   5.112  14.855  0.00  0.00    +0.000 A 
ATOM     11  C   UNL     1       7.738   4.944  13.648  0.00  0.00    +0.000 A 
ATOM     12  C   UNL     1       7.051   4.274  12.630  0.00  0.00    +0.000 A 
ATOM     13  C   UNL     1       5.743   3.786  12.844  0.00  0.00    +0.000 A 
ATOM     14  C   UNL     1       5.112   3.979  14.090  0.00  0.00    +0.000 A 
ATOM     15  C   UNL     1       5.802   4.641  15.097  0.00  0.00    +0.000 A 
ATOM     16  H   UNL     1       8.469   6.229  16.045  0.00  0.00    +0.000 HD
ENDROOT
BRANCH  13  17
ATOM     17  C   UNL     1       4.977   3.106  11.756  0.00  0.00    +0.000 C 
ATOM     18  O   UNL     1       5.290   1.972  11.414  0.00  0.00    +0.000 OA
ATOM     19  N   UNL     1       3.949   3.824  11.175  0.00  0.00    +0.000 N 
ATOM     20  C   UNL     1       3.148   3.288  10.100  0.00  0.00    +0.000 C 
ATOM     21  H   UNL     1       3.819   4.798  11.408  0.00  0.00    +0.000 HD
ENDBRANCH  13  17
BRANCH   1  23
ATOM     22  C   UNL     1       1.772   2.808  18.704  0.00  0.00    +0.000 C 
ATOM     23  C   UNL     1       2.160   4.104  18.001  0.00  0.00    +0.000 C 
ENDBRANCH   1  23
TORSDOF 2
ENDMDL
MODEL 4
REMARK VINA RESULT:      -7.1      3.772      7.670
REMARK  Name = 
REMARK  4 active torsions:
REMARK  status: ('A' for Active; 'I' for Inactive)
REMARK    1  A    between atoms: C_1  and  C_2
REMARK    2  A    between atoms: C_2  and  N_3
REMARK    3  A    between atoms: C_15  and  C_16
REMARK    4  A    between atoms: N_18  and  C_19
REMARK                            x       y       z     vdW  Elec       q    Type
REMARK                         _______ _______ _______ _____ _____    ______ ____
ROOT
ATOM      1  N   UNL     1       3.765   4.426  18.901  0.00  0.00    +0.000 NA
ATOM      2  C   UNL     1       5.156   3.968  18.985  0.00  0.00    +0.000 C 
ATOM      3  C   UNL     1       5.857   3.807  17.631  0.00  0.00    +0.000 C 
ATOM      4  C   UNL     1       5.680   5.027  16.710  0.00  0.00    +0.000 C 
ATOM      5  C   UNL     1       4.265   5.619  16.751  0.00  0.00    +0.000 C 
ATOM      6  C   UNL     1       3.711   5.704  18.177  0.00  0.00    +0.000 C 
ATOM      7  C   UNL     1       6.720   6.115  17.103  0.00  0.00    +0.000 C 
ATOM      8  O   UNL     1       6.793   6.733  18.153  0.00  0.00    +0.000 OA
ATOM      9  N   UNL     1       7.596   6.275  16.035  0.00  0.00    +0.000 N 
ATOM     10  C   UNL     1       7.249   5.470  14.969  0.00  0.00    +0.000 A 
ATOM     11  C   UNL     1       7.881   5.408  13.742  0.00  0.00    +0.000 A 
ATOM     12  C   UNL     1       7.344   4.547  12.780  0.00  0.00    +0.000 A 
ATOM     13  C   UNL     1       6.201   3.768  13.066  0.00  0.00    +0.000 A 
ATOM     14  C   UNL     1       5.582   3.860  14.330  0.00  0.00    +0.000 A 
ATOM     15  C   UNL     1       6.123   4.714  15.282  0.00  0.00    +0.000 A 
ATOM     16  H   UNL     1       8.355   6.938  16.059  0.00  0.00    +0.000 HD
ENDROOT
BRANCH  13  17
ATOM     17  C   UNL     1       5.588   2.875  12.037  0.00  0.00    +0.000 C 
ATOM     18  O   UNL     1       4.497   3.164  11.559  0.00  0.00    +0.000 OA
ATOM     19  N   UNL     1       6.297   1.740  11.693  0.00  0.00    +0.000 N 
ATOM     20  C   UNL     1       5.803   0.787  10.728  0.00  0.00    +0.000 C 
ATOM     21  H   UNL     1       7.126   1.488  12.211  0.00  0.00    +0.000 HD
ENDBRANCH  13  17
BRANCH   1  23
ATOM     22  C   UNL     1       1.405   3.997  18.160  0.00  0.00    +0.000 C 
ATOM     23  C   UNL     1       2.815   3.448  18.355  0.00  0.00    +0.000 C 
ENDBRANCH   1  23
TORSDOF 2
ENDMDL
MODEL 5
REMARK VINA RESULT:      -7.0      3.576      6.885
REMARK  Name = 
REMARK  4 active torsions:
REMARK  status: ('A' for Active; 'I' for Inactive)
REMARK    1  A    between atoms: C_1  and  C_2
REMARK    2  A    between atoms: C_2  and  N_3
REMARK    3  A    between atoms: C_15  and  C_16
REMARK    4  A    between atoms: N_18  and  C_19
REMARK                            x       y       z     vdW  Elec       q    Type
REMARK                         _______ _______ _______ _____ _____    ______ ____
ROOT
ATOM      1  N   UNL     1       2.431   3.883  19.103  0.00  0.00    +0.000 NA
ATOM      2  C   UNL     1       3.696   3.193  19.373  0.00  0.00    +0.000 C 
ATOM      3  C   UNL     1       4.684   3.190  18.200  0.00  0.00    +0.000 C 
ATOM      4  C   UNL     1       4.879   4.581  17.572  0.00  0.00    +0.000 C 
ATOM      5  C   UNL     1       3.575   5.380  17.447  0.00  0.00    +0.000 C 
ATOM      6  C   UNL     1       2.703   5.270  18.702  0.00  0.00    +0.000 C 
ATOM      7  C   UNL     1       5.909   5.382  18.420  0.00  0.00    +0.000 C 
ATOM      8  O   UNL     1       5.795   5.757  19.576  0.00  0.00    +0.000 OA
ATOM      9  N   UNL     1       7.032   5.604  17.630  0.00  0.00    +0.000 N 
ATOM     10  C   UNL     1       6.866   5.095  16.357  0.00  0.00    +0.000 A 
ATOM     11  C   UNL     1       7.767   5.176  15.313  0.00  0.00    +0.000 A 
ATOM     12  C   UNL     1       7.386   4.625  14.085  0.00  0.00    +0.000 A 
ATOM     13  C   UNL     1       6.126   4.006  13.932  0.00  0.00    +0.000 A 
ATOM     14  C   UNL     1       5.232   3.945  15.021  0.00  0.00    +0.000 A 
ATOM     15  C   UNL     1       5.618   4.490  16.239  0.00  0.00    +0.000 A 
ATOM     16  H   UNL     1       7.834   6.112  17.969  0.00  0.00    +0.000 HD
ENDROOT
BRANCH  13  17
ATOM     17  C   UNL     1       5.684   3.451  12.617  0.00  0.00    +0.000 C 
ATOM     18  O   UNL     1       6.496   2.877  11.900  0.00  0.00    +0.000 OA
ATOM     19  N   UNL     1       4.360   3.641  12.272  0.00  0.00    +0.000 N 
ATOM     20  C   UNL     1       3.815   3.172  11.021  0.00  0.00    +0.000 C 
ATOM     21  H   UNL     1       3.771   4.231  12.842  0.00  0.00    +0.000 HD
ENDBRANCH  13  17
BRANCH   1  23
ATOM     22  C   UNL     1       0.615   2.176  18.801  0.00  0.00    +0.000 C 
ATOM     23  C   UNL     1       1.537   3.205  18.155  0.00  0.00    +0.000 C 
ENDBRANCH   1  23
TORSDOF 2
ENDMDL
MODEL 6
REMARK VINA RESULT:      -6.8      2.281      3.029
REMARK  Name = 
REMARK  4 active torsions:
REMARK  status: ('A' for Active; 'I' for Inactive)
REMARK    1  A    between atoms: C_1  and  C_2
REMARK    2  A    between atoms: C_2  and  N_3
REMARK    3  A    between atoms: C_15  and  C_16
REMARK    4  A    between atoms: N_18  and  C_19
REMARK                            x       y       z     vdW  Elec       q    Type
REMARK                         _______ _______ _______ _____ _____    ______ ____
ROOT
ATOM      1  N   UNL     1       7.147   6.174  16.804  0.00  0.00    +0.000 NA
ATOM      2  C   UNL     1       7.203   5.303  17.983  0.00  0.00    +0.000 C 
ATOM      3  C   UNL     1       5.956   5.354  18.874  0.00  0.00    +0.000 C 
ATOM      4  C   UNL     1       4.643   5.215  18.084  0.00  0.00    +0.000 C 
ATOM      5  C   UNL     1       4.646   5.989  16.759  0.00  0.00    +0.000 C 
ATOM      6  C   UNL     1       5.966   5.835  15.998  0.00  0.00    +0.000 C 
ATOM      7  C   UNL     1       4.370   3.707  17.814  0.00  0.00    +0.000 C 
ATOM      8  O   UNL     1       5.032   2.938  17.136  0.00  0.00    +0.000 OA
ATOM      9  N   UNL     1       3.215   3.352  18.501  0.00  0.00    +0.000 N 
ATOM     10  C   UNL     1       2.661   4.434  19.156  0.00  0.00    +0.000 A 
ATOM     11  C   UNL     1       1.495   4.440  19.897  0.00  0.00    +0.000 A 
ATOM     12  C   UNL     1       1.086   5.658  20.450  0.00  0.00    +0.000 A 
ATOM     13  C   UNL     1       1.849   6.831  20.255  0.00  0.00    +0.000 A 
ATOM     14  C   UNL     1       3.032   6.785  19.490  0.00  0.00    +0.000 A 
ATOM     15  C   UNL     1       3.435   5.571  18.947  0.00  0.00    +0.000 A 
ATOM     16  H   UNL     1       2.837   2.418  18.469  0.00  0.00    +0.000 HD
ENDROOT
BRANCH  13  17
ATOM     17  C   UNL     1       1.405   8.149  20.801  0.00  0.00    +0.000 C 
ATOM     18  O   UNL     1       1.326   8.306  22.013  0.00  0.00    +0.000 OA
ATOM     19  N   UNL     1       1.083   9.129  19.881  0.00  0.00    +0.000 N 
ATOM     20  C   UNL     1       0.621  10.437  20.279  0.00  0.00    +0.000 C 
ATOM     21  H   UNL     1       1.044   8.904  18.897  0.00  0.00    +0.000 HD
ENDBRANCH  13  17
BRANCH   1  23
ATOM     22  C   UNL     1       8.208   7.978  18.190  0.00  0.00    +0.000 C 
ATOM     23  C   UNL     1       7.222   7.614  17.085  0.00  0.00    +0.000 C 
ENDBRANCH   1  23
TORSDOF 2
ENDMDL
MODEL 7
REMARK VINA RESULT:      -6.8      2.426      3.701
REMARK  Name = 
REMARK  4 active torsions:
REMARK  status: ('A' for Active; 'I' for Inactive)
REMARK    1  A    between atoms: C_1  and  C_2
REMARK    2  A    between atoms: C_2  and  N_3
REMARK    3  A    between atoms: C_15  and  C_16
REMARK    4  A    between atoms: N_18  and  C_19
REMARK                            x       y       z     vdW  Elec       q    Type
REMARK                         _______ _______ _______ _____ _____    ______ ____
ROOT
ATOM      1  N   UNL     1       3.553   3.076  19.162  0.00  0.00    +0.000 NA
ATOM      2  C   UNL     1       2.732   3.459  18.009  0.00  0.00    +0.000 C 
ATOM      3  C   UNL     1       2.077   4.840  18.122  0.00  0.00    +0.000 C 
ATOM      4  C   UNL     1       3.061   5.942  18.552  0.00  0.00    +0.000 C 
ATOM      5  C   UNL     1       4.041   5.489  19.643  0.00  0.00    +0.000 C 
ATOM      6  C   UNL     1       4.598   4.087  19.380  0.00  0.00    +0.000 C 
ATOM      7  C   UNL     1       3.850   6.434  17.305  0.00  0.00    +0.000 C 
ATOM      8  O   UNL     1       4.633   5.798  16.617  0.00  0.00    +0.000 OA
ATOM      9  N   UNL     1       3.504   7.762  17.077  0.00  0.00    +0.000 N 
ATOM     10  C   UNL     1       2.625   8.229  18.033  0.00  0.00    +0.000 A 
ATOM     11  C   UNL     1       2.111   9.508  18.127  0.00  0.00    +0.000 A 
ATOM     12  C   UNL     1       1.259   9.786  19.200  0.00  0.00    +0.000 A 
ATOM     13  C   UNL     1       0.938   8.786  20.145  0.00  0.00    +0.000 A 
ATOM     14  C   UNL     1       1.484   7.492  20.017  0.00  0.00    +0.000 A 
ATOM     15  C   UNL     1       2.326   7.222  18.946  0.00  0.00    +0.000 A 
ATOM     16  H   UNL     1       3.899   8.296  16.319  0.00  0.00    +0.000 HD
ENDROOT
BRANCH  13  17
ATOM     17  C   UNL     1       0.065   9.077  21.322  0.00  0.00    +0.000 C 
ATOM     18  O   UNL     1      -0.611   8.179  21.810  0.00  0.00    +0.000 OA
ATOM     19  N   UNL     1       0.058  10.378  21.787  0.00  0.00    +0.000 N 
ATOM     20  C   UNL     1      -0.759  10.792  22.904  0.00  0.00    +0.000 C 
ATOM     21  H   UNL     1       0.534  11.102  21.268  0.00  0.00    +0.000 HD
ENDBRANCH  13  17
BRANCH   1  23
ATOM     22  C   UNL     1       1.318   2.540  20.173  0.00  0.00    +0.000 C 
ATOM     23  C   UNL     1       2.806   2.788  20.394  0.00  0.00    +0.000 C 
ENDBRANCH   1  23
TORSDOF 2
ENDMDL
MODEL 8
REMARK VINA RESULT:      -6.7      3.239      5.736
REMARK  Name = 
REMARK  4 active torsions:
REMARK  status: ('A' for Active; 'I' for Inactive)
REMARK    1  A    between atoms: C_1  and  C_2
REMARK    2  A    between atoms: C_2  and  N_3
REMARK    3  A    between atoms: C_15  and  C_16
REMARK    4  A    between atoms: N_18  and  C_19
REMARK                            x       y       z     vdW  Elec       q    Type
REMARK                         _______ _______ _______ _____ _____    ______ ____
ROOT
ATOM      1  N   UNL     1       1.756   3.938  20.358  0.00  0.00    +0.000 NA
ATOM      2  C   UNL     1       1.456   4.309  18.972  0.00  0.00    +0.000 C 
ATOM      3  C   UNL     1       2.661   4.819  18.173  0.00  0.00    +0.000 C 
ATOM      4  C   UNL     1       3.898   3.912  18.299  0.00  0.00    +0.000 C 
ATOM      5  C   UNL     1       4.117   3.379  19.721  0.00  0.00    +0.000 C 
ATOM      6  C   UNL     1       2.812   2.916  20.377  0.00  0.00    +0.000 C 
ATOM      7  C   UNL     1       3.760   2.724  17.304  0.00  0.00    +0.000 C 
ATOM      8  O   UNL     1       2.923   1.835  17.314  0.00  0.00    +0.000 OA
ATOM      9  N   UNL     1       4.771   2.841  16.357  0.00  0.00    +0.000 N 
ATOM     10  C   UNL     1       5.587   3.924  16.615  0.00  0.00    +0.000 A 
ATOM     11  C   UNL     1       6.703   4.305  15.897  0.00  0.00    +0.000 A 
ATOM     12  C   UNL     1       7.417   5.418  16.352  0.00  0.00    +0.000 A 
ATOM     13  C   UNL     1       6.998   6.123  17.503  0.00  0.00    +0.000 A 
ATOM     14  C   UNL     1       5.855   5.701  18.212  0.00  0.00    +0.000 A 
ATOM     15  C   UNL     1       5.148   4.598  17.751  0.00  0.00    +0.000 A 
ATOM     16  H   UNL     1       4.884   2.174  15.609  0.00  0.00    +0.000 HD
ENDROOT
BRANCH  13  17
ATOM     17  C   UNL     1       7.773   7.287  18.029  0.00  0.00    +0.000 C 
ATOM     18  O   UNL     1       8.515   7.134  18.991  0.00  0.00    +0.000 OA
ATOM     19  N   UNL     1       7.584   8.500  17.394  0.00  0.00    +0.000 N 
ATOM     20  C   UNL     1       8.257   9.704  17.820  0.00  0.00    +0.000 C 
ATOM     21  H   UNL     1       6.866   8.595  16.691  0.00  0.00    +0.000 HD
ENDBRANCH  13  17
BRANCH   1  23
ATOM     22  C   UNL     1       1.461   6.389  20.814  0.00  0.00    +0.000 C 
ATOM     23  C   UNL     1       2.066   5.060  21.254  0.00  0.00    +0.000 C 
ENDBRANCH   1  23
TORSDOF 2
ENDMDL
MODEL 9
REMARK VINA RESULT:      -6.6      2.319      3.786
REMARK  Name = 
REMARK  4 active torsions:
REMARK  status: ('A' for Active; 'I' for Inactive)
REMARK    1  A    between atoms: C_1  and  C_2
REMARK    2  A    between atoms: C_2  and  N_3
REMARK    3  A    between atoms: C_15  and  C_16
REMARK    4  A    between atoms: N_18  and  C_19
REMARK                            x       y       z     vdW  Elec       q    Type
REMARK                         _______ _______ _______ _____ _____    ______ ____
ROOT
ATOM      1  N   UNL     1       2.716   2.616  19.236  0.00  0.00    +0.000 NA
ATOM      2  C   UNL     1       2.144   3.088  17.971  0.00  0.00    +0.000 C 
ATOM      3  C   UNL     1       1.792   4.580  17.947  0.00  0.00    +0.000 C 
ATOM      4  C   UNL     1       2.929   5.478  18.465  0.00  0.00    +0.000 C 
ATOM      5  C   UNL     1       3.648   4.901  19.692  0.00  0.00    +0.000 C 
ATOM      6  C   UNL     1       3.919   3.399  19.555  0.00  0.00    +0.000 C 
ATOM      7  C   UNL     1       3.952   5.716  17.317  0.00  0.00    +0.000 C 
ATOM      8  O   UNL     1       4.658   4.889  16.763  0.00  0.00    +0.000 OA
ATOM      9  N   UNL     1       3.929   7.069  16.998  0.00  0.00    +0.000 N 
ATOM     10  C   UNL     1       3.059   7.768  17.811  0.00  0.00    +0.000 A 
ATOM     11  C   UNL     1       2.824   9.129  17.790  0.00  0.00    +0.000 A 
ATOM     12  C   UNL     1       1.927   9.645  18.730  0.00  0.00    +0.000 A 
ATOM     13  C   UNL     1       1.286   8.795  19.659  0.00  0.00    +0.000 A 
ATOM     14  C   UNL     1       1.553   7.411  19.651  0.00  0.00    +0.000 A 
ATOM     15  C   UNL     1       2.442   6.904  18.712  0.00  0.00    +0.000 A 
ATOM     16  H   UNL     1       4.519   7.461  16.281  0.00  0.00    +0.000 HD
ENDROOT
BRANCH  13  17
ATOM     17  C   UNL     1       0.358   9.335  20.698  0.00  0.00    +0.000 C 
ATOM     18  O   UNL     1      -0.617   9.994  20.355  0.00  0.00    +0.000 OA
ATOM     19  N   UNL     1       0.675   9.068  22.016  0.00  0.00    +0.000 N 
ATOM     20  C   UNL     1      -0.129   9.551  23.114  0.00  0.00    +0.000 C 
ATOM     21  H   UNL     1       1.556   8.632  22.245  0.00  0.00    +0.000 HD
ENDBRANCH  13  17
BRANCH   1  23
ATOM     22  C   UNL     1       2.457   2.611  21.733  0.00  0.00    +0.000 C 
ATOM     23  C   UNL     1       1.780   2.568  20.367  0.00  0.00    +0.000 C 
ENDBRANCH   1  23
TORSDOF 2
ENDMDL
