MODEL 1
REMARK VINA RESULT:      -8.0      0.000      0.000
REMARK  Name = 
REMARK  6 active torsions:
REMARK  status: ('A' for Active; 'I' for Inactive)
REMARK    1  A    between atoms: C_2  and  O_3
REMARK    2  A    between atoms: C_2  and  C_4
REMARK    3  A    between atoms: C_6  and  S_7
REMARK    4  A    between atoms: S_7  and  N_10
REMARK    5  A    between atoms: N_10  and  C_11
REMARK    6  A    between atoms: C_24  and  O_25
REMARK                            x       y       z     vdW  Elec       q    Type
REMARK                         _______ _______ _______ _____ _____    ______ ____
ROOT
ATOM      1  C   UNL     1       4.432   3.523  19.476  0.00  0.00    +0.000 A 
ATOM      2  C   UNL     1       5.597   3.925  18.829  0.00  0.00    +0.000 A 
ATOM      3  C   UNL     1       5.651   5.167  18.176  0.00  0.00    +0.000 A 
ATOM      4  C   UNL     1       4.514   6.028  18.117  0.00  0.00    +0.000 A 
ATOM      5  C   UNL     1       4.471   7.267  17.421  0.00  0.00    +0.000 A 
ATOM      6  C   UNL     1       3.349   8.096  17.429  0.00  0.00    +0.000 A 
ATOM      7  C   UNL     1       2.219   7.710  18.124  0.00  0.00    +0.000 A 
ATOM      8  C   UNL     1       2.212   6.493  18.803  0.00  0.00    +0.000 A 
ATOM      9  C   UNL     1       3.334   5.625  18.805  0.00  0.00    +0.000 A 
ATOM     10  C   UNL     1       3.319   4.374  19.474  0.00  0.00    +0.000 A 
ENDROOT
BRANCH   3  11
ATOM     11  S   UNL     1       7.217   5.617  17.429  0.00  0.00    +0.000 S 
ATOM     12  O   UNL     1       7.770   6.736  18.162  0.00  0.00    +0.000 OA
ATOM     13  O   UNL     1       7.971   4.394  17.258  0.00  0.00    +0.000 OA
BRANCH  11  14
ATOM     14  N   UNL     1       6.800   6.155  15.888  0.00  0.00    +0.000 N 
ATOM     15  H   UNL     1       7.141   7.082  15.645  0.00  0.00    +0.000 HD
BRANCH  14  16
ATOM     16  C   UNL     1       6.566   5.229  14.843  0.00  0.00    +0.000 A 
ATOM     17  C   UNL     1       5.418   4.438  14.871  0.00  0.00    +0.000 A 
ATOM     18  C   UNL     1       5.154   3.558  13.820  0.00  0.00    +0.000 A 
ATOM     19  C   UNL     1       6.053   3.462  12.758  0.00  0.00    +0.000 A 
ATOM     20 BR   UNL     1       5.695   2.279  11.327  0.00  0.00    +0.000 Br
ATOM     21  C   UNL     1       7.210   4.239  12.738  0.00  0.00    +0.000 A 
ATOM     22  C   UNL     1       7.464   5.133  13.780  0.00  0.00    +0.000 A 
ENDBRANCH  14  16
ENDBRANCH  11  14
ENDBRANCH   3  11
BRANCH   1  24
ATOM     23  O   UNL     1       4.190   1.996  21.283  0.00  0.00    +0.000 OA
ATOM     24  C   UNL     1       4.429   2.169  20.100  0.00  0.00    +0.000 C 
BRANCH  24  25
ATOM     25  O   UNL     1       4.660   1.155  19.242  0.00  0.00    +0.000 OA
ATOM     26  H   UNL     1       4.225   1.293  18.373  0.00  0.00    +0.000 HD
ENDBRANCH  24  25
ENDBRANCH   1  24
BRANCH  10  27
ATOM     27  O   UNL     1       2.199   3.950  20.157  0.00  0.00    +0.000 OA
ATOM     28  H   UNL     1       1.555   3.608  19.509  0.00  0.00    +0.000 HD
ENDBRANCH  10  27
TORSDOF 6
ENDMDL
MODEL 2
REMARK VINA RESULT:      -7.6      3.616      6.587
REMARK  Name = 
REMARK  6 active torsions:
REMARK  status: ('A' for Active; 'I' for Inactive)
REMARK    1  A    between atoms: C_2  and  O_3
REMARK    2  A    between atoms: C_2  and  C_4
REMARK    3  A    between atoms: C_6  and  S_7
REMARK    4  A    between atoms: S_7  and  N_10
REMARK    5  A    between atoms: N_10  and  C_11
REMARK    6  A    between atoms: C_24  and  O_25
REMARK                            x       y       z     vdW  Elec       q    Type
REMARK                         _______ _______ _______ _____ _____    ______ ____
ROOT
ATOM      1  C   UNL     1       5.855   4.071  14.788  0.00  0.00    +0.000 A 
ATOM      2  C   UNL     1       4.963   3.455  15.660  0.00  0.00    +0.000 A 
ATOM      3  C   UNL     1       4.993   3.753  17.032  0.00  0.00    +0.000 A 
ATOM      4  C   UNL     1       5.957   4.654  17.577  0.00  0.00    +0.000 A 
ATOM      5  C   UNL     1       6.093   4.956  18.960  0.00  0.00    +0.000 A 
ATOM      6  C   UNL     1       7.023   5.878  19.441  0.00  0.00    +0.000 A 
ATOM      7  C   UNL     1       7.863   6.526  18.556  0.00  0.00    +0.000 A 
ATOM      8  C   UNL     1       7.776   6.244  17.194  0.00  0.00    +0.000 A 
ATOM      9  C   UNL     1       6.848   5.304  16.677  0.00  0.00    +0.000 A 
ATOM     10  C   UNL     1       6.777   4.997  15.293  0.00  0.00    +0.000 A 
ENDROOT
BRANCH   3  11
ATOM     11  S   UNL     1       3.761   2.953  18.059  0.00  0.00    +0.000 S 
ATOM     12  O   UNL     1       3.464   1.655  17.492  0.00  0.00    +0.000 OA
ATOM     13  O   UNL     1       4.206   3.082  19.430  0.00  0.00    +0.000 OA
BRANCH  11  14
ATOM     14  N   UNL     1       2.393   3.922  17.894  0.00  0.00    +0.000 N 
ATOM     15  H   UNL     1       1.576   3.457  17.506  0.00  0.00    +0.000 HD
BRANCH  14  16
ATOM     16  C   UNL     1       2.192   5.033  18.748  0.00  0.00    +0.000 A 
ATOM     17  C   UNL     1       2.539   6.310  18.307  0.00  0.00    +0.000 A 
ATOM     18  C   UNL     1       2.299   7.416  19.123  0.00  0.00    +0.000 A 
ATOM     19  C   UNL     1       1.731   7.235  20.384  0.00  0.00    +0.000 A 
ATOM     20 BR   UNL     1       1.395   8.730  21.489  0.00  0.00    +0.000 Br
ATOM     21  C   UNL     1       1.401   5.956  20.834  0.00  0.00    +0.000 A 
ATOM     22  C   UNL     1       1.625   4.852  20.009  0.00  0.00    +0.000 A 
ENDBRANCH  14  16
ENDBRANCH  11  14
ENDBRANCH   3  11
BRANCH   1  24
ATOM     23  O   UNL     1       4.776   3.721  12.698  0.00  0.00    +0.000 OA
ATOM     24  C   UNL     1       5.801   3.664  13.354  0.00  0.00    +0.000 C 
BRANCH  24  25
ATOM     25  O   UNL     1       6.985   3.281  12.835  0.00  0.00    +0.000 OA
ATOM     26  H   UNL     1       7.127   3.630  11.929  0.00  0.00    +0.000 HD
ENDBRANCH  24  25
ENDBRANCH   1  24
BRANCH  10  27
ATOM     27  O   UNL     1       7.618   5.609  14.388  0.00  0.00    +0.000 OA
ATOM     28  H   UNL     1       7.118   5.774  13.567  0.00  0.00    +0.000 HD
ENDBRANCH  10  27
TORSDOF 6
ENDMDL
MODEL 3
REMARK VINA RESULT:      -7.5      4.686      7.682
REMARK  Name = 
REMARK  6 active torsions:
REMARK  status: ('A' for Active; 'I' for Inactive)
REMARK    1  A    between atoms: C_2  and  O_3
REMARK    2  A    between atoms: C_2  and  C_4
REMARK    3  A    between atoms: C_6  and  S_7
REMARK    4  A    between atoms: S_7  and  N_10
REMARK    5  A    between atoms: N_10  and  C_11
REMARK    6  A    between atoms: C_24  and  O_25
REMARK                            x       y       z     vdW  Elec       q    Type
REMARK                         _______ _______ _______ _____ _____    ______ ____
ROOT
ATOM      1  C   UNL     1       5.645   5.954  17.043  0.00  0.00    +0.000 A 
ATOM      2  C   UNL     1       4.712   6.942  17.348  0.00  0.00    +0.000 A 
ATOM      3  C   UNL     1       3.414   6.589  17.752  0.00  0.00    +0.000 A 
ATOM      4  C   UNL     1       3.000   5.225  17.820  0.00  0.00    +0.000 A 
ATOM      5  C   UNL     1       1.688   4.792  18.156  0.00  0.00    +0.000 A 
ATOM      6  C   UNL     1       1.341   3.445  18.252  0.00  0.00    +0.000 A 
ATOM      7  C   UNL     1       2.293   2.475  18.003  0.00  0.00    +0.000 A 
ATOM      8  C   UNL     1       3.586   2.856  17.651  0.00  0.00    +0.000 A 
ATOM      9  C   UNL     1       3.966   4.218  17.535  0.00  0.00    +0.000 A 
ATOM     10  C   UNL     1       5.275   4.607  17.151  0.00  0.00    +0.000 A 
ENDROOT
BRANCH   3  11
ATOM     11  S   UNL     1       2.311   7.935  18.183  0.00  0.00    +0.000 S 
ATOM     12  O   UNL     1       3.014   9.185  17.986  0.00  0.00    +0.000 OA
ATOM     13  O   UNL     1       1.051   7.677  17.518  0.00  0.00    +0.000 OA
BRANCH  11  14
ATOM     14  N   UNL     1       2.044   7.738  19.834  0.00  0.00    +0.000 N 
ATOM     15  H   UNL     1       2.774   7.238  20.335  0.00  0.00    +0.000 HD
BRANCH  14  16
ATOM     16  C   UNL     1       1.254   8.669  20.549  0.00  0.00    +0.000 A 
ATOM     17  C   UNL     1       0.524   9.631  19.851  0.00  0.00    +0.000 A 
ATOM     18  C   UNL     1      -0.297  10.521  20.545  0.00  0.00    +0.000 A 
ATOM     19  C   UNL     1      -0.366  10.456  21.936  0.00  0.00    +0.000 A 
ATOM     20 BR   UNL     1      -1.483  11.653  22.880  0.00  0.00    +0.000 Br
ATOM     21  C   UNL     1       0.377   9.507  22.637  0.00  0.00    +0.000 A 
ATOM     22  C   UNL     1       1.183   8.604  21.940  0.00  0.00    +0.000 A 
ENDBRANCH  14  16
ENDBRANCH  11  14
ENDBRANCH   3  11
BRANCH   1  24
ATOM     23  O   UNL     1       7.609   5.800  15.712  0.00  0.00    +0.000 OA
ATOM     24  C   UNL     1       6.985   6.403  16.568  0.00  0.00    +0.000 C 
BRANCH  24  25
ATOM     25  O   UNL     1       7.422   7.551  17.123  0.00  0.00    +0.000 OA
ATOM     26  H   UNL     1       7.762   7.420  18.034  0.00  0.00    +0.000 HD
ENDBRANCH  24  25
ENDBRANCH   1  24
BRANCH  10  27
ATOM     27  O   UNL     1       6.241   3.663  16.873  0.00  0.00    +0.000 OA
ATOM     28  H   UNL     1       6.232   2.996  17.585  0.00  0.00    +0.000 HD
ENDBRANCH  10  27
TORSDOF 6
ENDMDL
MODEL 4
REMARK VINA RESULT:      -7.5      4.668      7.626
REMARK  Name = 
REMARK  6 active torsions:
REMARK  status: ('A' for Active; 'I' for Inactive)
REMARK    1  A    between atoms: C_2  and  O_3
REMARK    2  A    between atoms: C_2  and  C_4
REMARK    3  A    between atoms: C_6  and  S_7
REMARK    4  A    between atoms: S_7  and  N_10
REMARK    5  A    between atoms: N_10  and  C_11
REMARK    6  A    between atoms: C_24  and  O_25
REMARK                            x       y       z     vdW  Elec       q    Type
REMARK                         _______ _______ _______ _____ _____    ______ ____
ROOT
ATOM      1  C   UNL     1       5.691   5.973  17.038  0.00  0.00    +0.000 A 
ATOM      2  C   UNL     1       4.748   6.953  17.335  0.00  0.00    +0.000 A 
ATOM      3  C   UNL     1       3.451   6.590  17.732  0.00  0.00    +0.000 A 
ATOM      4  C   UNL     1       3.048   5.222  17.800  0.00  0.00    +0.000 A 
ATOM      5  C   UNL     1       1.738   4.778  18.130  0.00  0.00    +0.000 A 
ATOM      6  C   UNL     1       1.403   3.428  18.227  0.00  0.00    +0.000 A 
ATOM      7  C   UNL     1       2.365   2.466  17.986  0.00  0.00    +0.000 A 
ATOM      8  C   UNL     1       3.657   2.858  17.641  0.00  0.00    +0.000 A 
ATOM      9  C   UNL     1       4.025   4.223  17.524  0.00  0.00    +0.000 A 
ATOM     10  C   UNL     1       5.333   4.624  17.147  0.00  0.00    +0.000 A 
ENDROOT
BRANCH   3  11
ATOM     11  S   UNL     1       2.333   7.926  18.153  0.00  0.00    +0.000 S 
ATOM     12  O   UNL     1       3.013   9.183  17.922  0.00  0.00    +0.000 OA
ATOM     13  O   UNL     1       1.068   7.636  17.513  0.00  0.00    +0.000 OA
BRANCH  11  14
ATOM     14  N   UNL     1       2.093   7.758  19.812  0.00  0.00    +0.000 N 
ATOM     15  H   UNL     1       2.859   7.321  20.319  0.00  0.00    +0.000 HD
BRANCH  14  16
ATOM     16  C   UNL     1       1.249   8.654  20.510  0.00  0.00    +0.000 A 
ATOM     17  C   UNL     1       1.107   8.528  21.892  0.00  0.00    +0.000 A 
ATOM     18  C   UNL     1       0.316   9.438  22.596  0.00  0.00    +0.000 A 
ATOM     19  C   UNL     1      -0.345  10.455  21.908  0.00  0.00    +0.000 A 
ATOM     20 BR   UNL     1      -1.409  11.695  22.857  0.00  0.00    +0.000 Br
ATOM     21  C   UNL     1      -0.219  10.571  20.524  0.00  0.00    +0.000 A 
ATOM     22  C   UNL     1       0.589   9.672  19.823  0.00  0.00    +0.000 A 
ENDBRANCH  14  16
ENDBRANCH  11  14
ENDBRANCH   3  11
BRANCH   1  24
ATOM     23  O   UNL     1       7.626   7.352  17.102  0.00  0.00    +0.000 OA
ATOM     24  C   UNL     1       7.030   6.433  16.570  0.00  0.00    +0.000 C 
BRANCH  24  25
ATOM     25  O   UNL     1       7.544   5.716  15.549  0.00  0.00    +0.000 OA
ATOM     26  H   UNL     1       7.014   4.915  15.350  0.00  0.00    +0.000 HD
ENDBRANCH  24  25
ENDBRANCH   1  24
BRANCH  10  27
ATOM     27  O   UNL     1       6.309   3.687  16.877  0.00  0.00    +0.000 OA
ATOM     28  H   UNL     1       6.037   3.178  16.090  0.00  0.00    +0.000 HD
ENDBRANCH  10  27
TORSDOF 6
ENDMDL
MODEL 5
REMARK VINA RESULT:      -7.4      0.813      1.297
REMARK  Name = 
REMARK  6 active torsions:
REMARK  status: ('A' for Active; 'I' for Inactive)
REMARK    1  A    between atoms: C_2  and  O_3
REMARK    2  A    between atoms: C_2  and  C_4
REMARK    3  A    between atoms: C_6  and  S_7
REMARK    4  A    between atoms: S_7  and  N_10
REMARK    5  A    between atoms: N_10  and  C_11
REMARK    6  A    between atoms: C_24  and  O_25
REMARK                            x       y       z     vdW  Elec       q    Type
REMARK                         _______ _______ _______ _____ _____    ______ ____
ROOT
ATOM      1  C   UNL     1       4.441   3.565  19.213  0.00  0.00    +0.000 A 
ATOM      2  C   UNL     1       5.582   4.156  18.677  0.00  0.00    +0.000 A 
ATOM      3  C   UNL     1       5.529   5.462  18.165  0.00  0.00    +0.000 A 
ATOM      4  C   UNL     1       4.309   6.202  18.138  0.00  0.00    +0.000 A 
ATOM      5  C   UNL     1       4.161   7.501  17.578  0.00  0.00    +0.000 A 
ATOM      6  C   UNL     1       2.957   8.204  17.615  0.00  0.00    +0.000 A 
ATOM      7  C   UNL     1       1.847   7.628  18.202  0.00  0.00    +0.000 A 
ATOM      8  C   UNL     1       1.944   6.348  18.745  0.00  0.00    +0.000 A 
ATOM      9  C   UNL     1       3.152   5.605  18.714  0.00  0.00    +0.000 A 
ATOM     10  C   UNL     1       3.244   4.291  19.243  0.00  0.00    +0.000 A 
ENDROOT
BRANCH   3  11
ATOM     11  S   UNL     1       7.067   6.153  17.556  0.00  0.00    +0.000 S 
ATOM     12  O   UNL     1       6.760   7.310  16.743  0.00  0.00    +0.000 OA
ATOM     13  O   UNL     1       7.961   6.257  18.690  0.00  0.00    +0.000 OA
BRANCH  11  14
ATOM     14  N   UNL     1       7.689   4.955  16.549  0.00  0.00    +0.000 N 
ATOM     15  H   UNL     1       8.274   4.262  17.009  0.00  0.00    +0.000 HD
BRANCH  14  16
ATOM     16  C   UNL     1       7.000   4.578  15.372  0.00  0.00    +0.000 A 
ATOM     17  C   UNL     1       7.516   4.940  14.128  0.00  0.00    +0.000 A 
ATOM     18  C   UNL     1       6.871   4.530  12.960  0.00  0.00    +0.000 A 
ATOM     19  C   UNL     1       5.700   3.777  13.046  0.00  0.00    +0.000 A 
ATOM     20 BR   UNL     1       4.827   3.211  11.468  0.00  0.00    +0.000 Br
ATOM     21  C   UNL     1       5.172   3.429  14.289  0.00  0.00    +0.000 A 
ATOM     22  C   UNL     1       5.830   3.824  15.457  0.00  0.00    +0.000 A 
ENDBRANCH  14  16
ENDBRANCH  11  14
ENDBRANCH   3  11
BRANCH   1  24
ATOM     23  O   UNL     1       5.074   1.868  20.752  0.00  0.00    +0.000 OA
ATOM     24  C   UNL     1       4.559   2.156  19.686  0.00  0.00    +0.000 C 
BRANCH  24  25
ATOM     25  O   UNL     1       4.005   1.240  18.866  0.00  0.00    +0.000 OA
ATOM     26  H   UNL     1       4.338   1.313  17.946  0.00  0.00    +0.000 HD
ENDBRANCH  24  25
ENDBRANCH   1  24
BRANCH  10  27
ATOM     27  O   UNL     1       2.148   3.680  19.815  0.00  0.00    +0.000 OA
ATOM     28  H   UNL     1       2.437   3.236  20.633  0.00  0.00    +0.000 HD
ENDBRANCH  10  27
TORSDOF 6
ENDMDL
MODEL 6
REMARK VINA RESULT:      -7.2      3.587      5.290
REMARK  Name = 
REMARK  6 active torsions:
REMARK  status: ('A' for Active; 'I' for Inactive)
REMARK    1  A    between atoms: C_2  and  O_3
REMARK    2  A    between atoms: C_2  and  C_4
REMARK    3  A    between atoms: C_6  and  S_7
REMARK    4  A    between atoms: S_7  and  N_10
REMARK    5  A    between atoms: N_10  and  C_11
REMARK    6  A    between atoms: C_24  and  O_25
REMARK                            x       y       z     vdW  Elec       q    Type
REMARK                         _______ _______ _______ _____ _____    ______ ____
ROOT
ATOM      1  C   UNL     1       2.578   6.878  18.738  0.00  0.00    +0.000 A 
ATOM      2  C   UNL     1       3.419   6.233  17.836  0.00  0.00    +0.000 A 
ATOM      3  C   UNL     1       3.843   4.917  18.080  0.00  0.00    +0.000 A 
ATOM      4  C   UNL     1       3.466   4.222  19.269  0.00  0.00    +0.000 A 
ATOM      5  C   UNL     1       3.906   2.915  19.618  0.00  0.00    +0.000 A 
ATOM      6  C   UNL     1       3.474   2.259  20.770  0.00  0.00    +0.000 A 
ATOM      7  C   UNL     1       2.593   2.890  21.627  0.00  0.00    +0.000 A 
ATOM      8  C   UNL     1       2.152   4.178  21.332  0.00  0.00    +0.000 A 
ATOM      9  C   UNL     1       2.581   4.875  20.173  0.00  0.00    +0.000 A 
ATOM     10  C   UNL     1       2.154   6.197  19.885  0.00  0.00    +0.000 A 
ENDROOT
BRANCH   3  11
ATOM     11  S   UNL     1       4.873   4.155  16.826  0.00  0.00    +0.000 S 
ATOM     12  O   UNL     1       4.516   2.756  16.728  0.00  0.00    +0.000 OA
ATOM     13  O   UNL     1       4.831   5.017  15.665  0.00  0.00    +0.000 OA
BRANCH  11  14
ATOM     14  N   UNL     1       6.432   4.254  17.455  0.00  0.00    +0.000 N 
ATOM     15  H   UNL     1       7.055   3.495  17.193  0.00  0.00    +0.000 HD
BRANCH  14  16
ATOM     16  C   UNL     1       7.000   5.512  17.771  0.00  0.00    +0.000 A 
ATOM     17  C   UNL     1       7.708   5.666  18.963  0.00  0.00    +0.000 A 
ATOM     18  C   UNL     1       8.314   6.888  19.259  0.00  0.00    +0.000 A 
ATOM     19  C   UNL     1       8.190   7.954  18.369  0.00  0.00    +0.000 A 
ATOM     20 BR   UNL     1       9.016   9.608  18.761  0.00  0.00    +0.000 Br
ATOM     21  C   UNL     1       7.466   7.808  17.186  0.00  0.00    +0.000 A 
ATOM     22  C   UNL     1       6.877   6.578  16.882  0.00  0.00    +0.000 A 
ENDBRANCH  14  16
ENDBRANCH  11  14
ENDBRANCH   3  11
BRANCH   1  24
ATOM     23  O   UNL     1       1.650   9.006  19.252  0.00  0.00    +0.000 OA
ATOM     24  C   UNL     1       2.214   8.293  18.440  0.00  0.00    +0.000 C 
BRANCH  24  25
ATOM     25  O   UNL     1       2.606   8.730  17.226  0.00  0.00    +0.000 OA
ATOM     26  H   UNL     1       2.916   8.001  16.648  0.00  0.00    +0.000 HD
ENDBRANCH  24  25
ENDBRANCH   1  24
BRANCH  10  27
ATOM     27  O   UNL     1       1.293   6.863  20.733  0.00  0.00    +0.000 OA
ATOM     28  H   UNL     1       1.821   7.298  21.428  0.00  0.00    +0.000 HD
ENDBRANCH  10  27
TORSDOF 6
ENDMDL
MODEL 7
REMARK VINA RESULT:      -7.2      0.837      1.279
REMARK  Name = 
REMARK  6 active torsions:
REMARK  status: ('A' for Active; 'I' for Inactive)
REMARK    1  A    between atoms: C_2  and  O_3
REMARK    2  A    between atoms: C_2  and  C_4
REMARK    3  A    between atoms: C_6  and  S_7
REMARK    4  A    between atoms: S_7  and  N_10
REMARK    5  A    between atoms: N_10  and  C_11
REMARK    6  A    between atoms: C_24  and  O_25
REMARK                            x       y       z     vdW  Elec       q    Type
REMARK                         _______ _______ _______ _____ _____    ______ ____
ROOT
ATOM      1  C   UNL     1       3.672   3.374  18.560  0.00  0.00    +0.000 A 
ATOM      2  C   UNL     1       4.972   3.722  18.206  0.00  0.00    +0.000 A 
ATOM      3  C   UNL     1       5.283   5.049  17.868  0.00  0.00    +0.000 A 
ATOM      4  C   UNL     1       4.278   6.063  17.835  0.00  0.00    +0.000 A 
ATOM      5  C   UNL     1       4.501   7.412  17.442  0.00  0.00    +0.000 A 
ATOM      6  C   UNL     1       3.496   8.379  17.468  0.00  0.00    +0.000 A 
ATOM      7  C   UNL     1       2.223   8.031  17.878  0.00  0.00    +0.000 A 
ATOM      8  C   UNL     1       1.958   6.715  18.253  0.00  0.00    +0.000 A 
ATOM      9  C   UNL     1       2.956   5.708  18.227  0.00  0.00    +0.000 A 
ATOM     10  C   UNL     1       2.681   4.362  18.583  0.00  0.00    +0.000 A 
ENDROOT
BRANCH   3  11
ATOM     11  S   UNL     1       6.998   5.406  17.490  0.00  0.00    +0.000 S 
ATOM     12  O   UNL     1       7.455   6.455  18.376  0.00  0.00    +0.000 OA
ATOM     13  O   UNL     1       7.688   4.135  17.423  0.00  0.00    +0.000 OA
BRANCH  11  14
ATOM     14  N   UNL     1       6.956   6.024  15.924  0.00  0.00    +0.000 N 
ATOM     15  H   UNL     1       7.559   6.826  15.758  0.00  0.00    +0.000 HD
BRANCH  14  16
ATOM     16  C   UNL     1       6.634   5.186  14.829  0.00  0.00    +0.000 A 
ATOM     17  C   UNL     1       7.544   5.045  13.782  0.00  0.00    +0.000 A 
ATOM     18  C   UNL     1       7.257   4.182  12.723  0.00  0.00    +0.000 A 
ATOM     19  C   UNL     1       6.051   3.483  12.709  0.00  0.00    +0.000 A 
ATOM     20 BR   UNL     1       5.661   2.307  11.282  0.00  0.00    +0.000 Br
ATOM     21  C   UNL     1       5.132   3.637  13.746  0.00  0.00    +0.000 A 
ATOM     22  C   UNL     1       5.429   4.486  14.816  0.00  0.00    +0.000 A 
ENDBRANCH  14  16
ENDBRANCH  11  14
ENDBRANCH   3  11
BRANCH   1  24
ATOM     23  O   UNL     1       2.494   1.575  19.576  0.00  0.00    +0.000 OA
ATOM     24  C   UNL     1       3.405   1.936  18.851  0.00  0.00    +0.000 C 
BRANCH  24  25
ATOM     25  O   UNL     1       4.218   1.072  18.208  0.00  0.00    +0.000 OA
ATOM     26  H   UNL     1       3.830   0.174  18.141  0.00  0.00    +0.000 HD
ENDBRANCH  24  25
ENDBRANCH   1  24
BRANCH  10  27
ATOM     27  O   UNL     1       1.415   3.979  18.974  0.00  0.00    +0.000 OA
ATOM     28  H   UNL     1       1.368   4.020  19.947  0.00  0.00    +0.000 HD
ENDBRANCH  10  27
TORSDOF 6
ENDMDL
MODEL 8
REMARK VINA RESULT:      -7.2      3.554      5.331
REMARK  Name = 
REMARK  6 active torsions:
REMARK  status: ('A' for Active; 'I' for Inactive)
REMARK    1  A    between atoms: C_2  and  O_3
REMARK    2  A    between atoms: C_2  and  C_4
REMARK    3  A    between atoms: C_6  and  S_7
REMARK    4  A    between atoms: S_7  and  N_10
REMARK    5  A    between atoms: N_10  and  C_11
REMARK    6  A    between atoms: C_24  and  O_25
REMARK                            x       y       z     vdW  Elec       q    Type
REMARK                         _______ _______ _______ _____ _____    ______ ____
ROOT
ATOM      1  C   UNL     1       2.616   6.924  18.702  0.00  0.00    +0.000 A 
ATOM      2  C   UNL     1       3.448   6.252  17.812  0.00  0.00    +0.000 A 
ATOM      3  C   UNL     1       3.848   4.932  18.077  0.00  0.00    +0.000 A 
ATOM      4  C   UNL     1       3.456   4.261  19.274  0.00  0.00    +0.000 A 
ATOM      5  C   UNL     1       3.872   2.952  19.643  0.00  0.00    +0.000 A 
ATOM      6  C   UNL     1       3.426   2.320  20.803  0.00  0.00    +0.000 A 
ATOM      7  C   UNL     1       2.554   2.978  21.648  0.00  0.00    +0.000 A 
ATOM      8  C   UNL     1       2.136   4.270  21.334  0.00  0.00    +0.000 A 
ATOM      9  C   UNL     1       2.581   4.942  20.166  0.00  0.00    +0.000 A 
ATOM     10  C   UNL     1       2.177   6.268  19.858  0.00  0.00    +0.000 A 
ENDROOT
BRANCH   3  11
ATOM     11  S   UNL     1       4.868   4.134  16.837  0.00  0.00    +0.000 S 
ATOM     12  O   UNL     1       4.472   2.745  16.743  0.00  0.00    +0.000 OA
ATOM     13  O   UNL     1       4.861   4.991  15.670  0.00  0.00    +0.000 OA
BRANCH  11  14
ATOM     14  N   UNL     1       6.423   4.194  17.480  0.00  0.00    +0.000 N 
ATOM     15  H   UNL     1       7.018   3.401  17.252  0.00  0.00    +0.000 HD
BRANCH  14  16
ATOM     16  C   UNL     1       7.039   5.439  17.756  0.00  0.00    +0.000 A 
ATOM     17  C   UNL     1       6.959   6.467  16.817  0.00  0.00    +0.000 A 
ATOM     18  C   UNL     1       7.520   7.713  17.102  0.00  0.00    +0.000 A 
ATOM     19  C   UNL     1       8.176   7.915  18.316  0.00  0.00    +0.000 A 
ATOM     20 BR   UNL     1       8.928   9.603  18.710  0.00  0.00    +0.000 Br
ATOM     21  C   UNL     1       8.272   6.882  19.247  0.00  0.00    +0.000 A 
ATOM     22  C   UNL     1       7.694   5.641  18.970  0.00  0.00    +0.000 A 
ENDBRANCH  14  16
ENDBRANCH  11  14
ENDBRANCH   3  11
BRANCH   1  24
ATOM     23  O   UNL     1       2.492   8.832  17.289  0.00  0.00    +0.000 OA
ATOM     24  C   UNL     1       2.277   8.341  18.383  0.00  0.00    +0.000 C 
BRANCH  24  25
ATOM     25  O   UNL     1       1.670   9.012  19.383  0.00  0.00    +0.000 OA
ATOM     26  H   UNL     1       1.132   8.424  19.956  0.00  0.00    +0.000 HD
ENDBRANCH  24  25
ENDBRANCH   1  24
BRANCH  10  27
ATOM     27  O   UNL     1       1.325   6.960  20.694  0.00  0.00    +0.000 OA
ATOM     28  H   UNL     1       1.806   7.171  21.516  0.00  0.00    +0.000 HD
ENDBRANCH  10  27
TORSDOF 6
ENDMDL
MODEL 9
REMARK VINA RESULT:      -7.1      5.971      8.546
REMARK  Name = 
REMARK  6 active torsions:
REMARK  status: ('A' for Active; 'I' for Inactive)
REMARK    1  A    between atoms: C_2  and  O_3
REMARK    2  A    between atoms: C_2  and  C_4
REMARK    3  A    between atoms: C_6  and  S_7
REMARK    4  A    between atoms: S_7  and  N_10
REMARK    5  A    between atoms: N_10  and  C_11
REMARK    6  A    between atoms: C_24  and  O_25
REMARK                            x       y       z     vdW  Elec       q    Type
REMARK                         _______ _______ _______ _____ _____    ______ ____
ROOT
ATOM      1  C   UNL     1      -1.470  10.592  18.304  0.00  0.00    +0.000 A 
ATOM      2  C   UNL     1      -1.082   9.824  19.398  0.00  0.00    +0.000 A 
ATOM      3  C   UNL     1      -0.139  10.321  20.313  0.00  0.00    +0.000 A 
ATOM      4  C   UNL     1       0.478  11.595  20.128  0.00  0.00    +0.000 A 
ATOM      5  C   UNL     1       1.486  12.137  20.972  0.00  0.00    +0.000 A 
ATOM      6  C   UNL     1       2.028  13.406  20.776  0.00  0.00    +0.000 A 
ATOM      7  C   UNL     1       1.591  14.181  19.718  0.00  0.00    +0.000 A 
ATOM      8  C   UNL     1       0.618  13.679  18.856  0.00  0.00    +0.000 A 
ATOM      9  C   UNL     1       0.056  12.388  19.023  0.00  0.00    +0.000 A 
ATOM     10  C   UNL     1      -0.916  11.866  18.130  0.00  0.00    +0.000 A 
ENDROOT
BRANCH   3  11
ATOM     11  S   UNL     1       0.244   9.280  21.721  0.00  0.00    +0.000 S 
ATOM     12  O   UNL     1       0.382  10.123  22.890  0.00  0.00    +0.000 OA
ATOM     13  O   UNL     1      -0.698   8.182  21.704  0.00  0.00    +0.000 OA
BRANCH  11  14
ATOM     14  N   UNL     1       1.757   8.635  21.359  0.00  0.00    +0.000 N 
ATOM     15  H   UNL     1       2.461   8.745  22.084  0.00  0.00    +0.000 HD
BRANCH  14  16
ATOM     16  C   UNL     1       1.876   7.543  20.466  0.00  0.00    +0.000 A 
ATOM     17  C   UNL     1       2.204   7.780  19.131  0.00  0.00    +0.000 A 
ATOM     18  C   UNL     1       2.373   6.707  18.255  0.00  0.00    +0.000 A 
ATOM     19  C   UNL     1       2.193   5.404  18.716  0.00  0.00    +0.000 A 
ATOM     20 BR   UNL     1       2.429   3.947  17.536  0.00  0.00    +0.000 Br
ATOM     21  C   UNL     1       1.847   5.166  20.046  0.00  0.00    +0.000 A 
ATOM     22  C   UNL     1       1.697   6.239  20.927  0.00  0.00    +0.000 A 
ENDBRANCH  14  16
ENDBRANCH  11  14
ENDBRANCH   3  11
BRANCH   1  24
ATOM     23  O   UNL     1      -3.442   9.401  17.715  0.00  0.00    +0.000 OA
ATOM     24  C   UNL     1      -2.434   9.977  17.346  0.00  0.00    +0.000 C 
BRANCH  24  25
ATOM     25  O   UNL     1      -2.125  10.158  16.046  0.00  0.00    +0.000 OA
ATOM     26  H   UNL     1      -2.666  10.861  15.627  0.00  0.00    +0.000 HD
ENDBRANCH  24  25
ENDBRANCH   1  24
BRANCH  10  27
ATOM     27  O   UNL     1      -1.355  12.605  17.052  0.00  0.00    +0.000 OA
ATOM     28  H   UNL     1      -1.252  12.064  16.247  0.00  0.00    +0.000 HD
ENDBRANCH  10  27
TORSDOF 6
ENDMDL
