MODEL 1
REMARK VINA RESULT:      -6.3      0.000      0.000
REMARK  Name = 
REMARK  16 active torsions:
REMARK  status: ('A' for Active; 'I' for Inactive)
REMARK    1  A    between atoms: C_1  and  O_2
REMARK    2  A    between atoms: O_2  and  C_3
REMARK    3  A    between atoms: C_3  and  C_4
REMARK    4  A    between atoms: C_4  and  C_5
REMARK    5  A    between atoms: C_5  and  N_6
REMARK    6  A    between atoms: N_6  and  C_7
REMARK    7  A    between atoms: N_6  and  C_20
REMARK    8  A    between atoms: C_7  and  C_8
REMARK    9  A    between atoms: C_10  and  O_11
REMARK   10  A    between atoms: O_11  and  C_12
REMARK   11  A    between atoms: C_13  and  O_14
REMARK   12  A    between atoms: O_14  and  C_15
REMARK   13  A    between atoms: C_16  and  O_17
REMARK   14  A    between atoms: O_17  and  C_18
REMARK   15  A    between atoms: C_20  and  N_22
REMARK   16  A    between atoms: N_22  and  C_23
REMARK                            x       y       z     vdW  Elec       q    Type
REMARK                         _______ _______ _______ _____ _____    ______ ____
ROOT
ATOM      1  N   UNL     1       2.202   5.088  19.098  0.00  0.00    +0.000 N 
ENDROOT
BRANCH   1   2
ATOM      2  C   UNL     1       2.712   4.591  17.880  0.00  0.00    +0.000 C 
ATOM      3  S   UNL     1       2.424   3.031  17.313  0.00  0.00    +0.000 S 
BRANCH   2   4
ATOM      4  N   UNL     1       3.573   5.511  17.283  0.00  0.00    +0.000 N 
ATOM      5  H   UNL     1       3.084   6.323  16.930  0.00  0.00    +0.000 HD
BRANCH   4   6
ATOM      6  C   UNL     1       4.967   5.650  17.437  0.00  0.00    +0.000 A 
ATOM      7  C   UNL     1       5.735   4.499  17.642  0.00  0.00    +0.000 A 
ATOM      8  C   UNL     1       7.119   4.591  17.788  0.00  0.00    +0.000 A 
ATOM      9  C   UNL     1       7.742   5.843  17.759  0.00  0.00    +0.000 A 
ATOM     10  C   UNL     1       6.968   6.988  17.604  0.00  0.00    +0.000 A 
ATOM     11 CL   UNL     1       7.722   8.536  17.595  0.00  0.00    +0.000 Cl
ATOM     12  C   UNL     1       5.589   6.898  17.460  0.00  0.00    +0.000 A 
ENDBRANCH   4   6
ENDBRANCH   2   4
ENDBRANCH   1   2
BRANCH   1  13
ATOM     13  C   UNL     1       1.181   4.321  19.844  0.00  0.00    +0.000 C 
BRANCH  13  14
ATOM     14  C   UNL     1       1.670   3.793  21.204  0.00  0.00    +0.000 C 
BRANCH  14  15
ATOM     15  C   UNL     1       2.501   2.514  21.141  0.00  0.00    +0.000 C 
BRANCH  15  17
ATOM     16  C   UNL     1       4.490   1.885  20.036  0.00  0.00    +0.000 C 
ATOM     17  O   UNL     1       3.863   2.846  20.874  0.00  0.00    +0.000 OA
ENDBRANCH  15  17
ENDBRANCH  14  15
ENDBRANCH  13  14
ENDBRANCH   1  13
BRANCH   1  18
ATOM     18  C   UNL     1       2.843   6.209  19.811  0.00  0.00    +0.000 C 
BRANCH  18  19
ATOM     19  C   UNL     1       1.992   7.468  19.902  0.00  0.00    +0.000 A 
ATOM     20  C   UNL     1       1.179   7.650  21.027  0.00  0.00    +0.000 A 
ATOM     21  C   UNL     1       0.330   8.764  21.161  0.00  0.00    +0.000 A 
ATOM     22  C   UNL     1       0.272   9.738  20.137  0.00  0.00    +0.000 A 
ATOM     23  C   UNL     1       1.156   9.613  19.046  0.00  0.00    +0.000 A 
ATOM     24  C   UNL     1       1.998   8.490  18.949  0.00  0.00    +0.000 A 
BRANCH  21  25
ATOM     25  O   UNL     1      -0.512   8.875  22.239  0.00  0.00    +0.000 OA
ATOM     26  C   UNL     1       0.005   9.530  23.393  0.00  0.00    +0.000 C 
ENDBRANCH  21  25
BRANCH  22  27
ATOM     27  O   UNL     1      -0.578  10.812  20.099  0.00  0.00    +0.000 OA
ATOM     28  C   UNL     1      -0.203  12.052  20.674  0.00  0.00    +0.000 C 
ENDBRANCH  22  27
BRANCH  23  29
ATOM     29  O   UNL     1       1.310  10.450  17.966  0.00  0.00    +0.000 OA
ATOM     30  C   UNL     1       2.286  11.480  18.016  0.00  0.00    +0.000 C 
ENDBRANCH  23  29
ENDBRANCH  18  19
ENDBRANCH   1  18
TORSDOF 12
ENDMDL
MODEL 2
REMARK VINA RESULT:      -6.3      3.191      4.956
REMARK  Name = 
REMARK  16 active torsions:
REMARK  status: ('A' for Active; 'I' for Inactive)
REMARK    1  A    between atoms: C_1  and  O_2
REMARK    2  A    between atoms: O_2  and  C_3
REMARK    3  A    between atoms: C_3  and  C_4
REMARK    4  A    between atoms: C_4  and  C_5
REMARK    5  A    between atoms: C_5  and  N_6
REMARK    6  A    between atoms: N_6  and  C_7
REMARK    7  A    between atoms: N_6  and  C_20
REMARK    8  A    between atoms: C_7  and  C_8
REMARK    9  A    between atoms: C_10  and  O_11
REMARK   10  A    between atoms: O_11  and  C_12
REMARK   11  A    between atoms: C_13  and  O_14
REMARK   12  A    between atoms: O_14  and  C_15
REMARK   13  A    between atoms: C_16  and  O_17
REMARK   14  A    between atoms: O_17  and  C_18
REMARK   15  A    between atoms: C_20  and  N_22
REMARK   16  A    between atoms: N_22  and  C_23
REMARK                            x       y       z     vdW  Elec       q    Type
REMARK                         _______ _______ _______ _____ _____    ______ ____
ROOT
ATOM      1  N   UNL     1       5.097   5.531  17.731  0.00  0.00    +0.000 N 
ENDROOT
BRANCH   1   2
ATOM      2  C   UNL     1       4.958   4.245  17.167  0.00  0.00    +0.000 C 
ATOM      3  S   UNL     1       3.654   3.224  17.476  0.00  0.00    +0.000 S 
BRANCH   2   4
ATOM      4  N   UNL     1       6.089   3.895  16.430  0.00  0.00    +0.000 N 
ATOM      5  H   UNL     1       6.646   3.189  16.892  0.00  0.00    +0.000 HD
BRANCH   4   6
ATOM      6  C   UNL     1       6.343   4.081  15.056  0.00  0.00    +0.000 A 
ATOM      7  C   UNL     1       7.414   4.897  14.679  0.00  0.00    +0.000 A 
ATOM      8  C   UNL     1       7.708   5.097  13.331  0.00  0.00    +0.000 A 
ATOM      9  C   UNL     1       6.910   4.504  12.347  0.00  0.00    +0.000 A 
ATOM     10  C   UNL     1       5.817   3.733  12.727  0.00  0.00    +0.000 A 
ATOM     11 CL   UNL     1       4.812   3.021  11.524  0.00  0.00    +0.000 Cl
ATOM     12  C   UNL     1       5.522   3.534  14.070  0.00  0.00    +0.000 A 
ENDBRANCH   4   6
ENDBRANCH   2   4
ENDBRANCH   1   2
BRANCH   1  13
ATOM     13  C   UNL     1       6.153   5.792  18.732  0.00  0.00    +0.000 C 
BRANCH  13  14
ATOM     14  C   UNL     1       7.524   6.129  18.119  0.00  0.00    +0.000 C 
BRANCH  14  15
ATOM     15  C   UNL     1       7.675   7.563  17.620  0.00  0.00    +0.000 C 
BRANCH  15  17
ATOM     16  C   UNL     1       8.531   9.678  18.223  0.00  0.00    +0.000 C 
ATOM     17  O   UNL     1       8.526   8.286  18.508  0.00  0.00    +0.000 OA
ENDBRANCH  15  17
ENDBRANCH  14  15
ENDBRANCH  13  14
ENDBRANCH   1  13
BRANCH   1  18
ATOM     18  C   UNL     1       4.415   6.709  17.163  0.00  0.00    +0.000 C 
BRANCH  18  19
ATOM     19  C   UNL     1       3.314   7.285  18.041  0.00  0.00    +0.000 A 
ATOM     20  C   UNL     1       2.743   8.513  17.685  0.00  0.00    +0.000 A 
ATOM     21  C   UNL     1       1.754   9.131  18.471  0.00  0.00    +0.000 A 
ATOM     22  C   UNL     1       1.313   8.519  19.668  0.00  0.00    +0.000 A 
ATOM     23  C   UNL     1       1.813   7.240  19.985  0.00  0.00    +0.000 A 
ATOM     24  C   UNL     1       2.795   6.646  19.171  0.00  0.00    +0.000 A 
BRANCH  21  25
ATOM     25  O   UNL     1       1.269  10.371  18.136  0.00  0.00    +0.000 OA
ATOM     26  C   UNL     1       2.181  11.461  18.216  0.00  0.00    +0.000 C 
ENDBRANCH  21  25
BRANCH  22  27
ATOM     27  O   UNL     1       0.434   9.058  20.569  0.00  0.00    +0.000 OA
ATOM     28  C   UNL     1       0.898   9.872  21.633  0.00  0.00    +0.000 C 
ENDBRANCH  22  27
BRANCH  23  29
ATOM     29  O   UNL     1       1.502   6.439  21.060  0.00  0.00    +0.000 OA
ATOM     30  C   UNL     1       1.844   5.061  21.024  0.00  0.00    +0.000 C 
ENDBRANCH  23  29
ENDBRANCH  18  19
ENDBRANCH   1  18
TORSDOF 12
ENDMDL
MODEL 3
REMARK VINA RESULT:      -6.2      1.261      1.556
REMARK  Name = 
REMARK  16 active torsions:
REMARK  status: ('A' for Active; 'I' for Inactive)
REMARK    1  A    between atoms: C_1  and  O_2
REMARK    2  A    between atoms: O_2  and  C_3
REMARK    3  A    between atoms: C_3  and  C_4
REMARK    4  A    between atoms: C_4  and  C_5
REMARK    5  A    between atoms: C_5  and  N_6
REMARK    6  A    between atoms: N_6  and  C_7
REMARK    7  A    between atoms: N_6  and  C_20
REMARK    8  A    between atoms: C_7  and  C_8
REMARK    9  A    between atoms: C_10  and  O_11
REMARK   10  A    between atoms: O_11  and  C_12
REMARK   11  A    between atoms: C_13  and  O_14
REMARK   12  A    between atoms: O_14  and  C_15
REMARK   13  A    between atoms: C_16  and  O_17
REMARK   14  A    between atoms: O_17  and  C_18
REMARK   15  A    between atoms: C_20  and  N_22
REMARK   16  A    between atoms: N_22  and  C_23
REMARK                            x       y       z     vdW  Elec       q    Type
REMARK                         _______ _______ _______ _____ _____    ______ ____
ROOT
ATOM      1  N   UNL     1       2.670   5.029  18.654  0.00  0.00    +0.000 N 
ENDROOT
BRANCH   1   2
ATOM      2  C   UNL     1       3.672   4.488  17.819  0.00  0.00    +0.000 C 
ATOM      3  S   UNL     1       3.975   2.837  17.674  0.00  0.00    +0.000 S 
BRANCH   2   4
ATOM      4  N   UNL     1       4.440   5.496  17.239  0.00  0.00    +0.000 N 
ATOM      5  H   UNL     1       3.903   6.076  16.609  0.00  0.00    +0.000 HD
BRANCH   4   6
ATOM      6  C   UNL     1       5.672   6.029  17.670  0.00  0.00    +0.000 A 
ATOM      7  C   UNL     1       6.176   7.159  17.017  0.00  0.00    +0.000 A 
ATOM      8  C   UNL     1       7.385   7.725  17.420  0.00  0.00    +0.000 A 
ATOM      9  C   UNL     1       8.115   7.145  18.461  0.00  0.00    +0.000 A 
ATOM     10  C   UNL     1       7.634   5.993  19.074  0.00  0.00    +0.000 A 
ATOM     11 CL   UNL     1       8.539   5.254  20.339  0.00  0.00    +0.000 Cl
ATOM     12  C   UNL     1       6.430   5.426  18.674  0.00  0.00    +0.000 A 
ENDBRANCH   4   6
ENDBRANCH   2   4
ENDBRANCH   1   2
BRANCH   1  13
ATOM     13  C   UNL     1       1.302   4.469  18.632  0.00  0.00    +0.000 C 
BRANCH  13  14
ATOM     14  C   UNL     1       0.821   3.945  19.997  0.00  0.00    +0.000 C 
BRANCH  14  15
ATOM     15  C   UNL     1       1.068   2.459  20.243  0.00  0.00    +0.000 C 
BRANCH  15  17
ATOM     16  C   UNL     1       3.146   2.494  21.363  0.00  0.00    +0.000 C 
ATOM     17  O   UNL     1       1.745   2.291  21.488  0.00  0.00    +0.000 OA
ENDBRANCH  15  17
ENDBRANCH  14  15
ENDBRANCH  13  14
ENDBRANCH   1  13
BRANCH   1  18
ATOM     18  C   UNL     1       2.991   5.952  19.758  0.00  0.00    +0.000 C 
BRANCH  18  19
ATOM     19  C   UNL     1       2.188   7.244  19.755  0.00  0.00    +0.000 A 
ATOM     20  C   UNL     1       1.341   7.513  20.838  0.00  0.00    +0.000 A 
ATOM     21  C   UNL     1       0.532   8.662  20.883  0.00  0.00    +0.000 A 
ATOM     22  C   UNL     1       0.549   9.586  19.812  0.00  0.00    +0.000 A 
ATOM     23  C   UNL     1       1.466   9.373  18.764  0.00  0.00    +0.000 A 
ATOM     24  C   UNL     1       2.268   8.217  18.754  0.00  0.00    +0.000 A 
BRANCH  21  25
ATOM     25  O   UNL     1      -0.344   8.859  21.922  0.00  0.00    +0.000 OA
ATOM     26  C   UNL     1       0.179   9.470  23.097  0.00  0.00    +0.000 C 
ENDBRANCH  21  25
BRANCH  22  27
ATOM     27  O   UNL     1      -0.257  10.687  19.688  0.00  0.00    +0.000 OA
ATOM     28  C   UNL     1       0.081  11.905  20.330  0.00  0.00    +0.000 C 
ENDBRANCH  22  27
BRANCH  23  29
ATOM     29  O   UNL     1       1.693  10.149  17.650  0.00  0.00    +0.000 OA
ATOM     30  C   UNL     1       2.498  11.313  17.763  0.00  0.00    +0.000 C 
ENDBRANCH  23  29
ENDBRANCH  18  19
ENDBRANCH   1  18
TORSDOF 12
ENDMDL
MODEL 4
REMARK VINA RESULT:      -6.1      1.289      1.461
REMARK  Name = 
REMARK  16 active torsions:
REMARK  status: ('A' for Active; 'I' for Inactive)
REMARK    1  A    between atoms: C_1  and  O_2
REMARK    2  A    between atoms: O_2  and  C_3
REMARK    3  A    between atoms: C_3  and  C_4
REMARK    4  A    between atoms: C_4  and  C_5
REMARK    5  A    between atoms: C_5  and  N_6
REMARK    6  A    between atoms: N_6  and  C_7
REMARK    7  A    between atoms: N_6  and  C_20
REMARK    8  A    between atoms: C_7  and  C_8
REMARK    9  A    between atoms: C_10  and  O_11
REMARK   10  A    between atoms: O_11  and  C_12
REMARK   11  A    between atoms: C_13  and  O_14
REMARK   12  A    between atoms: O_14  and  C_15
REMARK   13  A    between atoms: C_16  and  O_17
REMARK   14  A    between atoms: O_17  and  C_18
REMARK   15  A    between atoms: C_20  and  N_22
REMARK   16  A    between atoms: N_22  and  C_23
REMARK                            x       y       z     vdW  Elec       q    Type
REMARK                         _______ _______ _______ _____ _____    ______ ____
ROOT
ATOM      1  N   UNL     1       1.983   5.696  19.470  0.00  0.00    +0.000 N 
ENDROOT
BRANCH   1   2
ATOM      2  C   UNL     1       2.253   5.198  18.177  0.00  0.00    +0.000 C 
ATOM      3  S   UNL     1       1.467   3.870  17.503  0.00  0.00    +0.000 S 
BRANCH   2   4
ATOM      4  N   UNL     1       3.327   5.870  17.595  0.00  0.00    +0.000 N 
ATOM      5  H   UNL     1       3.178   6.869  17.548  0.00  0.00    +0.000 HD
BRANCH   4   6
ATOM      6  C   UNL     1       4.660   5.438  17.434  0.00  0.00    +0.000 A 
ATOM      7  C   UNL     1       4.980   4.662  16.316  0.00  0.00    +0.000 A 
ATOM      8  C   UNL     1       6.288   4.225  16.112  0.00  0.00    +0.000 A 
ATOM      9  C   UNL     1       7.282   4.536  17.046  0.00  0.00    +0.000 A 
ATOM     10  C   UNL     1       6.948   5.267  18.181  0.00  0.00    +0.000 A 
ATOM     11 CL   UNL     1       8.158   5.633  19.350  0.00  0.00    +0.000 Cl
ATOM     12  C   UNL     1       5.644   5.703  18.386  0.00  0.00    +0.000 A 
ENDBRANCH   4   6
ENDBRANCH   2   4
ENDBRANCH   1   2
BRANCH   1  13
ATOM     13  C   UNL     1       1.273   4.854  20.456  0.00  0.00    +0.000 C 
BRANCH  13  14
ATOM     14  C   UNL     1       2.206   4.138  21.449  0.00  0.00    +0.000 C 
BRANCH  14  15
ATOM     15  C   UNL     1       2.705   2.769  20.996  0.00  0.00    +0.000 C 
BRANCH  15  17
ATOM     16  C   UNL     1       4.064   1.972  19.238  0.00  0.00    +0.000 C 
ATOM     17  O   UNL     1       3.933   2.923  20.285  0.00  0.00    +0.000 OA
ENDBRANCH  15  17
ENDBRANCH  14  15
ENDBRANCH  13  14
ENDBRANCH   1  13
BRANCH   1  18
ATOM     18  C   UNL     1       2.622   6.922  19.982  0.00  0.00    +0.000 C 
BRANCH  18  19
ATOM     19  C   UNL     1       1.716   8.146  20.000  0.00  0.00    +0.000 A 
ATOM     20  C   UNL     1       1.453   8.769  21.226  0.00  0.00    +0.000 A 
ATOM     21  C   UNL     1       0.590   9.875  21.329  0.00  0.00    +0.000 A 
ATOM     22  C   UNL     1      -0.052  10.385  20.177  0.00  0.00    +0.000 A 
ATOM     23  C   UNL     1       0.279   9.824  18.926  0.00  0.00    +0.000 A 
ATOM     24  C   UNL     1       1.154   8.724  18.858  0.00  0.00    +0.000 A 
BRANCH  21  25
ATOM     25  O   UNL     1       0.292  10.416  22.555  0.00  0.00    +0.000 OA
ATOM     26  C   UNL     1      -0.111   9.510  23.577  0.00  0.00    +0.000 C 
ENDBRANCH  21  25
BRANCH  22  27
ATOM     27  O   UNL     1      -0.985  11.387  20.154  0.00  0.00    +0.000 OA
ATOM     28  C   UNL     1      -0.587  12.742  20.035  0.00  0.00    +0.000 C 
ENDBRANCH  22  27
BRANCH  23  29
ATOM     29  O   UNL     1      -0.177  10.178  17.678  0.00  0.00    +0.000 OA
ATOM     30  C   UNL     1      -1.532   9.928  17.334  0.00  0.00    +0.000 C 
ENDBRANCH  23  29
ENDBRANCH  18  19
ENDBRANCH   1  18
TORSDOF 12
ENDMDL
MODEL 5
REMARK VINA RESULT:      -6.1      3.578      6.205
REMARK  Name = 
REMARK  16 active torsions:
REMARK  status: ('A' for Active; 'I' for Inactive)
REMARK    1  A    between atoms: C_1  and  O_2
REMARK    2  A    between atoms: O_2  and  C_3
REMARK    3  A    between atoms: C_3  and  C_4
REMARK    4  A    between atoms: C_4  and  C_5
REMARK    5  A    between atoms: C_5  and  N_6
REMARK    6  A    between atoms: N_6  and  C_7
REMARK    7  A    between atoms: N_6  and  C_20
REMARK    8  A    between atoms: C_7  and  C_8
REMARK    9  A    between atoms: C_10  and  O_11
REMARK   10  A    between atoms: O_11  and  C_12
REMARK   11  A    between atoms: C_13  and  O_14
REMARK   12  A    between atoms: O_14  and  C_15
REMARK   13  A    between atoms: C_16  and  O_17
REMARK   14  A    between atoms: O_17  and  C_18
REMARK   15  A    between atoms: C_20  and  N_22
REMARK   16  A    between atoms: N_22  and  C_23
REMARK                            x       y       z     vdW  Elec       q    Type
REMARK                         _______ _______ _______ _____ _____    ______ ____
ROOT
ATOM      1  N   UNL     1       3.036   3.231  19.077  0.00  0.00    +0.000 N 
ENDROOT
BRANCH   1   2
ATOM      2  C   UNL     1       2.150   4.060  19.798  0.00  0.00    +0.000 C 
ATOM      3  S   UNL     1       0.557   3.643  20.151  0.00  0.00    +0.000 S 
BRANCH   2   4
ATOM      4  N   UNL     1       2.729   5.300  20.064  0.00  0.00    +0.000 N 
ATOM      5  H   UNL     1       3.701   5.223  20.329  0.00  0.00    +0.000 HD
BRANCH   4   6
ATOM      6  C   UNL     1       2.298   6.583  19.667  0.00  0.00    +0.000 A 
ATOM      7  C   UNL     1       2.488   6.969  18.336  0.00  0.00    +0.000 A 
ATOM      8  C   UNL     1       2.065   8.224  17.899  0.00  0.00    +0.000 A 
ATOM      9  C   UNL     1       1.476   9.115  18.801  0.00  0.00    +0.000 A 
ATOM     10  C   UNL     1       1.334   8.745  20.133  0.00  0.00    +0.000 A 
ATOM     11 CL   UNL     1       0.635   9.846  21.258  0.00  0.00    +0.000 Cl
ATOM     12  C   UNL     1       1.756   7.495  20.571  0.00  0.00    +0.000 A 
ENDBRANCH   4   6
ENDBRANCH   2   4
ENDBRANCH   1   2
BRANCH   1  13
ATOM     13  C   UNL     1       3.442   1.921  19.630  0.00  0.00    +0.000 C 
BRANCH  13  14
ATOM     14  C   UNL     1       4.640   1.996  20.592  0.00  0.00    +0.000 C 
BRANCH  14  15
ATOM     15  C   UNL     1       5.362   0.672  20.831  0.00  0.00    +0.000 C 
BRANCH  15  17
ATOM     16  C   UNL     1       6.672  -0.514  22.395  0.00  0.00    +0.000 C 
ATOM     17  O   UNL     1       6.025   0.715  22.094  0.00  0.00    +0.000 OA
ENDBRANCH  15  17
ENDBRANCH  14  15
ENDBRANCH  13  14
ENDBRANCH   1  13
BRANCH   1  18
ATOM     18  C   UNL     1       3.362   3.483  17.662  0.00  0.00    +0.000 C 
BRANCH  18  19
ATOM     19  C   UNL     1       4.603   4.338  17.443  0.00  0.00    +0.000 A 
ATOM     20  C   UNL     1       5.358   4.724  18.556  0.00  0.00    +0.000 A 
ATOM     21  C   UNL     1       6.490   5.551  18.438  0.00  0.00    +0.000 A 
ATOM     22  C   UNL     1       6.891   6.028  17.168  0.00  0.00    +0.000 A 
ATOM     23  C   UNL     1       6.194   5.569  16.033  0.00  0.00    +0.000 A 
ATOM     24  C   UNL     1       5.071   4.734  16.187  0.00  0.00    +0.000 A 
BRANCH  21  25
ATOM     25  O   UNL     1       7.165   5.975  19.556  0.00  0.00    +0.000 OA
ATOM     26  C   UNL     1       8.380   5.301  19.867  0.00  0.00    +0.000 C 
ENDBRANCH  21  25
BRANCH  22  27
ATOM     27  O   UNL     1       7.908   6.913  16.928  0.00  0.00    +0.000 OA
ATOM     28  C   UNL     1       7.853   8.234  17.439  0.00  0.00    +0.000 C 
ENDBRANCH  22  27
BRANCH  23  29
ATOM     29  O   UNL     1       6.426   5.856  14.708  0.00  0.00    +0.000 OA
ATOM     30  C   UNL     1       7.057   4.888  13.884  0.00  0.00    +0.000 C 
ENDBRANCH  23  29
ENDBRANCH  18  19
ENDBRANCH   1  18
TORSDOF 12
ENDMDL
MODEL 6
REMARK VINA RESULT:      -6.1      1.322      2.675
REMARK  Name = 
REMARK  16 active torsions:
REMARK  status: ('A' for Active; 'I' for Inactive)
REMARK    1  A    between atoms: C_1  and  O_2
REMARK    2  A    between atoms: O_2  and  C_3
REMARK    3  A    between atoms: C_3  and  C_4
REMARK    4  A    between atoms: C_4  and  C_5
REMARK    5  A    between atoms: C_5  and  N_6
REMARK    6  A    between atoms: N_6  and  C_7
REMARK    7  A    between atoms: N_6  and  C_20
REMARK    8  A    between atoms: C_7  and  C_8
REMARK    9  A    between atoms: C_10  and  O_11
REMARK   10  A    between atoms: O_11  and  C_12
REMARK   11  A    between atoms: C_13  and  O_14
REMARK   12  A    between atoms: O_14  and  C_15
REMARK   13  A    between atoms: C_16  and  O_17
REMARK   14  A    between atoms: O_17  and  C_18
REMARK   15  A    between atoms: C_20  and  N_22
REMARK   16  A    between atoms: N_22  and  C_23
REMARK                            x       y       z     vdW  Elec       q    Type
REMARK                         _______ _______ _______ _____ _____    ______ ____
ROOT
ATOM      1  N   UNL     1       1.991   5.218  19.331  0.00  0.00    +0.000 N 
ENDROOT
BRANCH   1   2
ATOM      2  C   UNL     1       2.580   4.710  18.152  0.00  0.00    +0.000 C 
ATOM      3  S   UNL     1       2.219   3.199  17.503  0.00  0.00    +0.000 S 
BRANCH   2   4
ATOM      4  N   UNL     1       3.573   5.567  17.679  0.00  0.00    +0.000 N 
ATOM      5  H   UNL     1       3.411   6.529  17.945  0.00  0.00    +0.000 HD
BRANCH   4   6
ATOM      6  C   UNL     1       4.880   5.257  17.251  0.00  0.00    +0.000 A 
ATOM      7  C   UNL     1       5.901   5.203  18.205  0.00  0.00    +0.000 A 
ATOM      8  C   UNL     1       7.205   4.887  17.826  0.00  0.00    +0.000 A 
ATOM      9  C   UNL     1       7.503   4.654  16.480  0.00  0.00    +0.000 A 
ATOM     10  C   UNL     1       6.494   4.757  15.529  0.00  0.00    +0.000 A 
ATOM     11 CL   UNL     1       6.856   4.499  13.865  0.00  0.00    +0.000 Cl
ATOM     12  C   UNL     1       5.194   5.073  15.904  0.00  0.00    +0.000 A 
ENDBRANCH   4   6
ENDBRANCH   2   4
ENDBRANCH   1   2
BRANCH   1  13
ATOM     13  C   UNL     1       0.908   4.467  20.002  0.00  0.00    +0.000 C 
BRANCH  13  14
ATOM     14  C   UNL     1       1.369   3.142  20.635  0.00  0.00    +0.000 C 
BRANCH  14  15
ATOM     15  C   UNL     1       2.369   3.285  21.778  0.00  0.00    +0.000 C 
BRANCH  15  17
ATOM     16  C   UNL     1       4.085   2.346  20.457  0.00  0.00    +0.000 C 
ATOM     17  O   UNL     1       3.357   2.260  21.674  0.00  0.00    +0.000 OA
ENDBRANCH  15  17
ENDBRANCH  14  15
ENDBRANCH  13  14
ENDBRANCH   1  13
BRANCH   1  18
ATOM     18  C   UNL     1       2.595   6.330  20.087  0.00  0.00    +0.000 C 
BRANCH  18  19
ATOM     19  C   UNL     1       1.748   7.594  20.134  0.00  0.00    +0.000 A 
ATOM     20  C   UNL     1       1.840   8.504  19.074  0.00  0.00    +0.000 A 
ATOM     21  C   UNL     1       1.125   9.716  19.069  0.00  0.00    +0.000 A 
ATOM     22  C   UNL     1       0.290  10.053  20.159  0.00  0.00    +0.000 A 
ATOM     23  C   UNL     1       0.119   9.102  21.186  0.00  0.00    +0.000 A 
ATOM     24  C   UNL     1       0.842   7.895  21.155  0.00  0.00    +0.000 A 
BRANCH  21  25
ATOM     25  O   UNL     1       1.295  10.622  18.051  0.00  0.00    +0.000 OA
ATOM     26  C   UNL     1       2.429  11.479  18.135  0.00  0.00    +0.000 C 
ENDBRANCH  21  25
BRANCH  22  27
ATOM     27  O   UNL     1      -0.379  11.237  20.323  0.00  0.00    +0.000 OA
ATOM     28  C   UNL     1      -1.557  11.508  19.584  0.00  0.00    +0.000 C 
ENDBRANCH  22  27
BRANCH  23  29
ATOM     29  O   UNL     1      -0.667   9.186  22.311  0.00  0.00    +0.000 OA
ATOM     30  C   UNL     1      -0.083   9.591  23.541  0.00  0.00    +0.000 C 
ENDBRANCH  23  29
ENDBRANCH  18  19
ENDBRANCH   1  18
TORSDOF 12
ENDMDL
MODEL 7
REMARK VINA RESULT:      -6.1      3.663      7.300
REMARK  Name = 
REMARK  16 active torsions:
REMARK  status: ('A' for Active; 'I' for Inactive)
REMARK    1  A    between atoms: C_1  and  O_2
REMARK    2  A    between atoms: O_2  and  C_3
REMARK    3  A    between atoms: C_3  and  C_4
REMARK    4  A    between atoms: C_4  and  C_5
REMARK    5  A    between atoms: C_5  and  N_6
REMARK    6  A    between atoms: N_6  and  C_7
REMARK    7  A    between atoms: N_6  and  C_20
REMARK    8  A    between atoms: C_7  and  C_8
REMARK    9  A    between atoms: C_10  and  O_11
REMARK   10  A    between atoms: O_11  and  C_12
REMARK   11  A    between atoms: C_13  and  O_14
REMARK   12  A    between atoms: O_14  and  C_15
REMARK   13  A    between atoms: C_16  and  O_17
REMARK   14  A    between atoms: O_17  and  C_18
REMARK   15  A    between atoms: C_20  and  N_22
REMARK   16  A    between atoms: N_22  and  C_23
REMARK                            x       y       z     vdW  Elec       q    Type
REMARK                         _______ _______ _______ _____ _____    ______ ____
ROOT
ATOM      1  N   UNL     1       1.949   7.213  19.623  0.00  0.00    +0.000 N 
ENDROOT
BRANCH   1   2
ATOM      2  C   UNL     1       1.622   8.508  20.079  0.00  0.00    +0.000 C 
ATOM      3  S   UNL     1       1.169   8.855  21.664  0.00  0.00    +0.000 S 
BRANCH   2   4
ATOM      4  N   UNL     1       1.608   9.422  19.026  0.00  0.00    +0.000 N 
ATOM      5  H   UNL     1       2.060   9.061  18.197  0.00  0.00    +0.000 HD
BRANCH   4   6
ATOM      6  C   UNL     1       0.773  10.541  18.836  0.00  0.00    +0.000 A 
ATOM      7  C   UNL     1       1.290  11.814  19.097  0.00  0.00    +0.000 A 
ATOM      8  C   UNL     1       0.501  12.948  18.909  0.00  0.00    +0.000 A 
ATOM      9  C   UNL     1      -0.826  12.813  18.487  0.00  0.00    +0.000 A 
ATOM     10  C   UNL     1      -1.350  11.543  18.276  0.00  0.00    +0.000 A 
ATOM     11 CL   UNL     1      -2.991  11.365  17.783  0.00  0.00    +0.000 Cl
ATOM     12  C   UNL     1      -0.565  10.411  18.463  0.00  0.00    +0.000 A 
ENDBRANCH   4   6
ENDBRANCH   2   4
ENDBRANCH   1   2
BRANCH   1  13
ATOM     13  C   UNL     1       1.983   6.079  20.572  0.00  0.00    +0.000 C 
BRANCH  13  14
ATOM     14  C   UNL     1       0.823   5.083  20.393  0.00  0.00    +0.000 C 
BRANCH  14  15
ATOM     15  C   UNL     1       1.211   3.611  20.499  0.00  0.00    +0.000 C 
BRANCH  15  17
ATOM     16  C   UNL     1       2.970   2.413  21.520  0.00  0.00    +0.000 C 
ATOM     17  O   UNL     1       1.966   3.404  21.692  0.00  0.00    +0.000 OA
ENDBRANCH  15  17
ENDBRANCH  14  15
ENDBRANCH  13  14
ENDBRANCH   1  13
BRANCH   1  18
ATOM     18  C   UNL     1       1.988   6.879  18.188  0.00  0.00    +0.000 C 
BRANCH  18  19
ATOM     19  C   UNL     1       3.276   6.208  17.730  0.00  0.00    +0.000 A 
ATOM     20  C   UNL     1       4.385   7.012  17.438  0.00  0.00    +0.000 A 
ATOM     21  C   UNL     1       5.594   6.469  16.965  0.00  0.00    +0.000 A 
ATOM     22  C   UNL     1       5.714   5.075  16.761  0.00  0.00    +0.000 A 
ATOM     23  C   UNL     1       4.637   4.250  17.141  0.00  0.00    +0.000 A 
ATOM     24  C   UNL     1       3.445   4.825  17.619  0.00  0.00    +0.000 A 
BRANCH  21  25
ATOM     25  O   UNL     1       6.637   7.289  16.616  0.00  0.00    +0.000 OA
ATOM     26  C   UNL     1       7.627   7.530  17.611  0.00  0.00    +0.000 C 
ENDBRANCH  21  25
BRANCH  22  27
ATOM     27  O   UNL     1       6.795   4.434  16.216  0.00  0.00    +0.000 OA
ATOM     28  C   UNL     1       6.958   4.359  14.810  0.00  0.00    +0.000 C 
ENDBRANCH  22  27
BRANCH  23  29
ATOM     29  O   UNL     1       4.541   2.879  17.078  0.00  0.00    +0.000 OA
ATOM     30  C   UNL     1       3.513   2.218  17.801  0.00  0.00    +0.000 C 
ENDBRANCH  23  29
ENDBRANCH  18  19
ENDBRANCH   1  18
TORSDOF 12
ENDMDL
MODEL 8
REMARK VINA RESULT:      -6.0      3.574      5.859
REMARK  Name = 
REMARK  16 active torsions:
REMARK  status: ('A' for Active; 'I' for Inactive)
REMARK    1  A    between atoms: C_1  and  O_2
REMARK    2  A    between atoms: O_2  and  C_3
REMARK    3  A    between atoms: C_3  and  C_4
REMARK    4  A    between atoms: C_4  and  C_5
REMARK    5  A    between atoms: C_5  and  N_6
REMARK    6  A    between atoms: N_6  and  C_7
REMARK    7  A    between atoms: N_6  and  C_20
REMARK    8  A    between atoms: C_7  and  C_8
REMARK    9  A    between atoms: C_10  and  O_11
REMARK   10  A    between atoms: O_11  and  C_12
REMARK   11  A    between atoms: C_13  and  O_14
REMARK   12  A    between atoms: O_14  and  C_15
REMARK   13  A    between atoms: C_16  and  O_17
REMARK   14  A    between atoms: O_17  and  C_18
REMARK   15  A    between atoms: C_20  and  N_22
REMARK   16  A    between atoms: N_22  and  C_23
REMARK                            x       y       z     vdW  Elec       q    Type
REMARK                         _______ _______ _______ _____ _____    ______ ____
ROOT
ATOM      1  N   UNL     1       1.255   9.415  20.042  0.00  0.00    +0.000 N 
ENDROOT
BRANCH   1   2
ATOM      2  C   UNL     1       1.879   8.362  19.339  0.00  0.00    +0.000 C 
ATOM      3  S   UNL     1       2.213   8.408  17.688  0.00  0.00    +0.000 S 
BRANCH   2   4
ATOM      4  N   UNL     1       2.064   7.251  20.161  0.00  0.00    +0.000 N 
ATOM      5  H   UNL     1       1.607   7.354  21.056  0.00  0.00    +0.000 HD
BRANCH   4   6
ATOM      6  C   UNL     1       2.436   5.938  19.805  0.00  0.00    +0.000 A 
ATOM      7  C   UNL     1       3.794   5.651  19.634  0.00  0.00    +0.000 A 
ATOM      8  C   UNL     1       4.205   4.363  19.295  0.00  0.00    +0.000 A 
ATOM      9  C   UNL     1       3.254   3.357  19.094  0.00  0.00    +0.000 A 
ATOM     10  C   UNL     1       1.903   3.660  19.217  0.00  0.00    +0.000 A 
ATOM     11 CL   UNL     1       0.723   2.435  18.944  0.00  0.00    +0.000 Cl
ATOM     12  C   UNL     1       1.491   4.944  19.554  0.00  0.00    +0.000 A 
ENDBRANCH   4   6
ENDBRANCH   2   4
ENDBRANCH   1   2
BRANCH   1  13
ATOM     13  C   UNL     1       1.165   9.372  21.517  0.00  0.00    +0.000 C 
BRANCH  13  14
ATOM     14  C   UNL     1      -0.266   9.174  22.047  0.00  0.00    +0.000 C 
BRANCH  14  15
ATOM     15  C   UNL     1      -0.651  10.069  23.222  0.00  0.00    +0.000 C 
BRANCH  15  17
ATOM     16  C   UNL     1      -1.354  12.321  23.286  0.00  0.00    +0.000 C 
ATOM     17  O   UNL     1      -1.629  11.017  22.796  0.00  0.00    +0.000 OA
ENDBRANCH  15  17
ENDBRANCH  14  15
ENDBRANCH  13  14
ENDBRANCH   1  13
BRANCH   1  18
ATOM     18  C   UNL     1       0.933  10.700  19.395  0.00  0.00    +0.000 C 
BRANCH  18  19
ATOM     19  C   UNL     1      -0.523  10.850  18.978  0.00  0.00    +0.000 A 
ATOM     20  C   UNL     1      -1.325  11.775  19.658  0.00  0.00    +0.000 A 
ATOM     21  C   UNL     1      -2.691  11.936  19.361  0.00  0.00    +0.000 A 
ATOM     22  C   UNL     1      -3.298  11.145  18.359  0.00  0.00    +0.000 A 
ATOM     23  C   UNL     1      -2.479  10.279  17.606  0.00  0.00    +0.000 A 
ATOM     24  C   UNL     1      -1.114  10.149  17.923  0.00  0.00    +0.000 A 
BRANCH  21  25
ATOM     25  O   UNL     1      -3.468  12.796  20.097  0.00  0.00    +0.000 OA
ATOM     26  C   UNL     1      -2.838  13.979  20.578  0.00  0.00    +0.000 C 
ENDBRANCH  21  25
BRANCH  22  27
ATOM     27  O   UNL     1      -4.631  11.133  18.042  0.00  0.00    +0.000 OA
ATOM     28  C   UNL     1      -5.149  12.017  17.063  0.00  0.00    +0.000 C 
ENDBRANCH  22  27
BRANCH  23  29
ATOM     29  O   UNL     1      -2.832   9.454  16.564  0.00  0.00    +0.000 OA
ATOM     30  C   UNL     1      -2.724   9.929  15.230  0.00  0.00    +0.000 C 
ENDBRANCH  23  29
ENDBRANCH  18  19
ENDBRANCH   1  18
TORSDOF 12
ENDMDL
MODEL 9
REMARK VINA RESULT:      -6.0      4.024      8.146
REMARK  Name = 
REMARK  16 active torsions:
REMARK  status: ('A' for Active; 'I' for Inactive)
REMARK    1  A    between atoms: C_1  and  O_2
REMARK    2  A    between atoms: O_2  and  C_3
REMARK    3  A    between atoms: C_3  and  C_4
REMARK    4  A    between atoms: C_4  and  C_5
REMARK    5  A    between atoms: C_5  and  N_6
REMARK    6  A    between atoms: N_6  and  C_7
REMARK    7  A    between atoms: N_6  and  C_20
REMARK    8  A    between atoms: C_7  and  C_8
REMARK    9  A    between atoms: C_10  and  O_11
REMARK   10  A    between atoms: O_11  and  C_12
REMARK   11  A    between atoms: C_13  and  O_14
REMARK   12  A    between atoms: O_14  and  C_15
REMARK   13  A    between atoms: C_16  and  O_17
REMARK   14  A    between atoms: O_17  and  C_18
REMARK   15  A    between atoms: C_20  and  N_22
REMARK   16  A    between atoms: N_22  and  C_23
REMARK                            x       y       z     vdW  Elec       q    Type
REMARK                         _______ _______ _______ _____ _____    ______ ____
ROOT
ATOM      1  N   UNL     1       1.188   9.399  19.061  0.00  0.00    +0.000 N 
ENDROOT
BRANCH   1   2
ATOM      2  C   UNL     1       0.402  10.570  19.131  0.00  0.00    +0.000 C 
ATOM      3  S   UNL     1       1.045  12.118  19.295  0.00  0.00    +0.000 S 
BRANCH   2   4
ATOM      4  N   UNL     1      -0.957  10.261  19.169  0.00  0.00    +0.000 N 
ATOM      5  H   UNL     1      -1.270  10.017  20.099  0.00  0.00    +0.000 HD
BRANCH   4   6
ATOM      6  C   UNL     1      -1.968  10.595  18.245  0.00  0.00    +0.000 A 
ATOM      7  C   UNL     1      -3.066  11.335  18.695  0.00  0.00    +0.000 A 
ATOM      8  C   UNL     1      -4.082  11.697  17.810  0.00  0.00    +0.000 A 
ATOM      9  C   UNL     1      -4.020  11.293  16.473  0.00  0.00    +0.000 A 
ATOM     10  C   UNL     1      -2.950  10.517  16.043  0.00  0.00    +0.000 A 
ATOM     11 CL   UNL     1      -2.878   9.991  14.404  0.00  0.00    +0.000 Cl
ATOM     12  C   UNL     1      -1.937  10.154  16.922  0.00  0.00    +0.000 A 
ENDBRANCH   4   6
ENDBRANCH   2   4
ENDBRANCH   1   2
BRANCH   1  13
ATOM     13  C   UNL     1       1.560   8.680  20.298  0.00  0.00    +0.000 C 
BRANCH  13  14
ATOM     14  C   UNL     1       0.562   8.873  21.454  0.00  0.00    +0.000 C 
BRANCH  14  15
ATOM     15  C   UNL     1       1.195   9.099  22.824  0.00  0.00    +0.000 C 
BRANCH  15  17
ATOM     16  C   UNL     1      -0.835  10.300  22.925  0.00  0.00    +0.000 C 
ATOM     17  O   UNL     1       0.280   9.809  23.658  0.00  0.00    +0.000 OA
ENDBRANCH  15  17
ENDBRANCH  14  15
ENDBRANCH  13  14
ENDBRANCH   1  13
BRANCH   1  18
ATOM     18  C   UNL     1       1.426   8.696  17.787  0.00  0.00    +0.000 C 
BRANCH  18  19
ATOM     19  C   UNL     1       2.467   7.588  17.863  0.00  0.00    +0.000 A 
ATOM     20  C   UNL     1       3.732   7.816  17.305  0.00  0.00    +0.000 A 
ATOM     21  C   UNL     1       4.730   6.824  17.294  0.00  0.00    +0.000 A 
ATOM     22  C   UNL     1       4.470   5.549  17.848  0.00  0.00    +0.000 A 
ATOM     23  C   UNL     1       3.235   5.342  18.495  0.00  0.00    +0.000 A 
ATOM     24  C   UNL     1       2.262   6.359  18.495  0.00  0.00    +0.000 A 
BRANCH  21  25
ATOM     25  O   UNL     1       5.932   7.052  16.672  0.00  0.00    +0.000 OA
ATOM     26  C   UNL     1       7.063   7.257  17.513  0.00  0.00    +0.000 C 
ENDBRANCH  21  25
BRANCH  22  27
ATOM     27  O   UNL     1       5.316   4.472  17.814  0.00  0.00    +0.000 OA
ATOM     28  C   UNL     1       5.385   3.643  16.667  0.00  0.00    +0.000 C 
ENDBRANCH  22  27
BRANCH  23  29
ATOM     29  O   UNL     1       2.781   4.214  19.137  0.00  0.00    +0.000 OA
ATOM     30  C   UNL     1       2.340   4.308  20.484  0.00  0.00    +0.000 C 
ENDBRANCH  23  29
ENDBRANCH  18  19
ENDBRANCH   1  18
TORSDOF 12
ENDMDL
