MODEL 1
REMARK VINA RESULT:      -7.3      0.000      0.000
REMARK  Name = 
REMARK  4 active torsions:
REMARK  status: ('A' for Active; 'I' for Inactive)
REMARK    1  A    between atoms: C_2  and  C_3
REMARK    2  A    between atoms: C_3  and  O_4
REMARK    3  A    between atoms: O_4  and  C_5
REMARK    4  A    between atoms: C_8  and  C_9
REMARK                            x       y       z     vdW  Elec       q    Type
REMARK                         _______ _______ _______ _____ _____    ______ ____
ROOT
ATOM      1  C   UNL     1       6.147   5.903  16.559  0.00  0.00    +0.000 A 
ATOM      2  C   UNL     1       5.039   6.584  17.069  0.00  0.00    +0.000 A 
ATOM      3  C   UNL     1       3.875   5.890  17.418  0.00  0.00    +0.000 A 
ATOM      4  C   UNL     1       3.791   4.509  17.221  0.00  0.00    +0.000 A 
ATOM      5  C   UNL     1       4.896   3.833  16.689  0.00  0.00    +0.000 A 
ATOM      6  C   UNL     1       6.067   4.525  16.361  0.00  0.00    +0.000 A 
ENDROOT
BRANCH   4   7
ATOM      7  C   UNL     1       2.560   3.786  17.558  0.00  0.00    +0.000 C 
ATOM      8  C   UNL     1       2.143   3.489  18.797  0.00  0.00    +0.000 C 
ATOM      9  S   UNL     1       2.877   3.909  20.301  0.00  0.00    +0.000 S 
ATOM     10  C   UNL     1       1.681   3.019  21.222  0.00  0.00    +0.000 C 
ATOM     11  O   UNL     1       1.689   2.911  22.441  0.00  0.00    +0.000 OA
ATOM     12  N   UNL     1       0.768   2.473  20.386  0.00  0.00    +0.000 N 
ATOM     13  C   UNL     1       0.921   2.678  19.045  0.00  0.00    +0.000 C 
ATOM     14  O   UNL     1       0.172   2.244  18.186  0.00  0.00    +0.000 OA
ATOM     15  H   UNL     1       0.008   1.918  20.745  0.00  0.00    +0.000 HD
ENDBRANCH   4   7
BRANCH   1  16
ATOM     16  O   UNL     1       7.250   6.673  16.303  0.00  0.00    +0.000 OA
BRANCH  16  17
ATOM     17  C   UNL     1       7.742   7.440  17.404  0.00  0.00    +0.000 C 
BRANCH  17  19
ATOM     18  C   UNL     1       8.027   5.739  19.639  0.00  0.00    +0.000 C 
ATOM     19  C   UNL     1       7.895   6.525  18.607  0.00  0.00    +0.000 C 
ENDBRANCH  17  19
ENDBRANCH  16  17
ENDBRANCH   1  16
TORSDOF 4
ENDMDL
MODEL 2
REMARK VINA RESULT:      -7.2      0.307      1.175
REMARK  Name = 
REMARK  4 active torsions:
REMARK  status: ('A' for Active; 'I' for Inactive)
REMARK    1  A    between atoms: C_2  and  C_3
REMARK    2  A    between atoms: C_3  and  O_4
REMARK    3  A    between atoms: O_4  and  C_5
REMARK    4  A    between atoms: C_8  and  C_9
REMARK                            x       y       z     vdW  Elec       q    Type
REMARK                         _______ _______ _______ _____ _____    ______ ____
ROOT
ATOM      1  C   UNL     1       5.851   6.311  16.792  0.00  0.00    +0.000 A 
ATOM      2  C   UNL     1       5.879   4.931  16.579  0.00  0.00    +0.000 A 
ATOM      3  C   UNL     1       4.749   4.146  16.835  0.00  0.00    +0.000 A 
ATOM      4  C   UNL     1       3.587   4.730  17.347  0.00  0.00    +0.000 A 
ATOM      5  C   UNL     1       3.568   6.110  17.580  0.00  0.00    +0.000 A 
ATOM      6  C   UNL     1       4.693   6.897  17.303  0.00  0.00    +0.000 A 
ENDROOT
BRANCH   4   7
ATOM      7  C   UNL     1       2.412   3.903  17.643  0.00  0.00    +0.000 C 
ATOM      8  C   UNL     1       2.003   3.537  18.866  0.00  0.00    +0.000 C 
ATOM      9  S   UNL     1       2.680   3.968  20.393  0.00  0.00    +0.000 S 
ATOM     10  C   UNL     1       1.546   2.959  21.269  0.00  0.00    +0.000 C 
ATOM     11  O   UNL     1       1.545   2.815  22.484  0.00  0.00    +0.000 OA
ATOM     12  N   UNL     1       0.690   2.368  20.402  0.00  0.00    +0.000 N 
ATOM     13  C   UNL     1       0.846   2.624  19.071  0.00  0.00    +0.000 C 
ATOM     14  O   UNL     1       0.146   2.159  18.187  0.00  0.00    +0.000 OA
ATOM     15  H   UNL     1      -0.028   1.744  20.733  0.00  0.00    +0.000 HD
ENDBRANCH   4   7
BRANCH   1  16
ATOM     16  O   UNL     1       6.993   6.986  16.457  0.00  0.00    +0.000 OA
BRANCH  16  17
ATOM     17  C   UNL     1       7.699   7.592  17.542  0.00  0.00    +0.000 C 
BRANCH  17  19
ATOM     18  C   UNL     1       8.033   5.678  19.591  0.00  0.00    +0.000 C 
ATOM     19  C   UNL     1       7.878   6.561  18.645  0.00  0.00    +0.000 C 
ENDBRANCH  17  19
ENDBRANCH  16  17
ENDBRANCH   1  16
TORSDOF 4
ENDMDL
MODEL 3
REMARK VINA RESULT:      -7.1      0.789      1.244
REMARK  Name = 
REMARK  4 active torsions:
REMARK  status: ('A' for Active; 'I' for Inactive)
REMARK    1  A    between atoms: C_2  and  C_3
REMARK    2  A    between atoms: C_3  and  O_4
REMARK    3  A    between atoms: O_4  and  C_5
REMARK    4  A    between atoms: C_8  and  C_9
REMARK                            x       y       z     vdW  Elec       q    Type
REMARK                         _______ _______ _______ _____ _____    ______ ____
ROOT
ATOM      1  C   UNL     1       5.915   6.286  16.731  0.00  0.00    +0.000 A 
ATOM      2  C   UNL     1       4.859   6.855  17.445  0.00  0.00    +0.000 A 
ATOM      3  C   UNL     1       3.721   6.102  17.757  0.00  0.00    +0.000 A 
ATOM      4  C   UNL     1       3.609   4.779  17.322  0.00  0.00    +0.000 A 
ATOM      5  C   UNL     1       4.661   4.217  16.587  0.00  0.00    +0.000 A 
ATOM      6  C   UNL     1       5.807   4.965  16.294  0.00  0.00    +0.000 A 
ENDROOT
BRANCH   4   7
ATOM      7  C   UNL     1       2.404   4.000  17.623  0.00  0.00    +0.000 C 
ATOM      8  C   UNL     1       2.007   3.617  18.844  0.00  0.00    +0.000 C 
ATOM      9  S   UNL     1       2.740   3.969  20.366  0.00  0.00    +0.000 S 
ATOM     10  C   UNL     1       1.580   2.988  21.240  0.00  0.00    +0.000 C 
ATOM     11  O   UNL     1       1.601   2.808  22.450  0.00  0.00    +0.000 OA
ATOM     12  N   UNL     1       0.676   2.465  20.378  0.00  0.00    +0.000 N 
ATOM     13  C   UNL     1       0.812   2.754  19.051  0.00  0.00    +0.000 C 
ATOM     14  O   UNL     1       0.070   2.349  18.173  0.00  0.00    +0.000 OA
ATOM     15  H   UNL     1      -0.063   1.866  20.708  0.00  0.00    +0.000 HD
ENDBRANCH   4   7
BRANCH   1  16
ATOM     16  O   UNL     1       6.999   7.096  16.529  0.00  0.00    +0.000 OA
BRANCH  16  17
ATOM     17  C   UNL     1       7.887   7.236  17.639  0.00  0.00    +0.000 C 
BRANCH  17  19
ATOM     18  C   UNL     1       8.373   9.983  18.075  0.00  0.00    +0.000 C 
ATOM     19  C   UNL     1       8.148   8.714  17.873  0.00  0.00    +0.000 C 
ENDBRANCH  17  19
ENDBRANCH  16  17
ENDBRANCH   1  16
TORSDOF 4
ENDMDL
MODEL 4
REMARK VINA RESULT:      -7.1      0.926      1.729
REMARK  Name = 
REMARK  4 active torsions:
REMARK  status: ('A' for Active; 'I' for Inactive)
REMARK    1  A    between atoms: C_2  and  C_3
REMARK    2  A    between atoms: C_3  and  O_4
REMARK    3  A    between atoms: O_4  and  C_5
REMARK    4  A    between atoms: C_8  and  C_9
REMARK                            x       y       z     vdW  Elec       q    Type
REMARK                         _______ _______ _______ _____ _____    ______ ____
ROOT
ATOM      1  C   UNL     1       6.113   6.341  17.164  0.00  0.00    +0.000 A 
ATOM      2  C   UNL     1       6.201   4.955  17.316  0.00  0.00    +0.000 A 
ATOM      3  C   UNL     1       5.046   4.182  17.482  0.00  0.00    +0.000 A 
ATOM      4  C   UNL     1       3.791   4.793  17.539  0.00  0.00    +0.000 A 
ATOM      5  C   UNL     1       3.708   6.184  17.407  0.00  0.00    +0.000 A 
ATOM      6  C   UNL     1       4.862   6.954  17.220  0.00  0.00    +0.000 A 
ENDROOT
BRANCH   4   7
ATOM      7  C   UNL     1       2.584   3.985  17.743  0.00  0.00    +0.000 C 
ATOM      8  C   UNL     1       2.104   3.583  18.928  0.00  0.00    +0.000 C 
ATOM      9  S   UNL     1       2.712   3.938  20.503  0.00  0.00    +0.000 S 
ATOM     10  C   UNL     1       1.512   2.925  21.280  0.00  0.00    +0.000 C 
ATOM     11  O   UNL     1       1.445   2.735  22.487  0.00  0.00    +0.000 OA
ATOM     12  N   UNL     1       0.688   2.389  20.349  0.00  0.00    +0.000 N 
ATOM     13  C   UNL     1       0.917   2.693  19.038  0.00  0.00    +0.000 C 
ATOM     14  O   UNL     1       0.252   2.280  18.103  0.00  0.00    +0.000 OA
ATOM     15  H   UNL     1      -0.061   1.772  20.618  0.00  0.00    +0.000 HD
ENDBRANCH   4   7
BRANCH   1  16
ATOM     16  O   UNL     1       7.300   6.991  16.954  0.00  0.00    +0.000 OA
BRANCH  16  17
ATOM     17  C   UNL     1       8.033   7.343  18.128  0.00  0.00    +0.000 C 
BRANCH  17  19
ATOM     18  C   UNL     1       8.574  10.114  18.061  0.00  0.00    +0.000 C 
ATOM     19  C   UNL     1       8.325   8.834  18.093  0.00  0.00    +0.000 C 
ENDBRANCH  17  19
ENDBRANCH  16  17
ENDBRANCH   1  16
TORSDOF 4
ENDMDL
MODEL 5
REMARK VINA RESULT:      -6.7      1.393      1.638
REMARK  Name = 
REMARK  4 active torsions:
REMARK  status: ('A' for Active; 'I' for Inactive)
REMARK    1  A    between atoms: C_2  and  C_3
REMARK    2  A    between atoms: C_3  and  O_4
REMARK    3  A    between atoms: O_4  and  C_5
REMARK    4  A    between atoms: C_8  and  C_9
REMARK                            x       y       z     vdW  Elec       q    Type
REMARK                         _______ _______ _______ _____ _____    ______ ____
ROOT
ATOM      1  C   UNL     1       6.798   6.359  17.829  0.00  0.00    +0.000 A 
ATOM      2  C   UNL     1       5.658   6.878  17.211  0.00  0.00    +0.000 A 
ATOM      3  C   UNL     1       4.443   6.184  17.259  0.00  0.00    +0.000 A 
ATOM      4  C   UNL     1       4.366   4.940  17.891  0.00  0.00    +0.000 A 
ATOM      5  C   UNL     1       5.515   4.413  18.491  0.00  0.00    +0.000 A 
ATOM      6  C   UNL     1       6.724   5.118  18.462  0.00  0.00    +0.000 A 
ENDROOT
BRANCH   4   7
ATOM      7  C   UNL     1       3.100   4.200  17.914  0.00  0.00    +0.000 C 
ATOM      8  C   UNL     1       2.466   3.771  19.014  0.00  0.00    +0.000 C 
ATOM      9  S   UNL     1       2.908   4.011  20.665  0.00  0.00    +0.000 S 
ATOM     10  C   UNL     1       1.571   3.037  21.246  0.00  0.00    +0.000 C 
ATOM     11  O   UNL     1       1.356   2.793  22.425  0.00  0.00    +0.000 OA
ATOM     12  N   UNL     1       0.831   2.600  20.200  0.00  0.00    +0.000 N 
ATOM     13  C   UNL     1       1.226   2.951  18.942  0.00  0.00    +0.000 C 
ATOM     14  O   UNL     1       0.651   2.626  17.917  0.00  0.00    +0.000 OA
ATOM     15  H   UNL     1       0.023   2.017  20.350  0.00  0.00    +0.000 HD
ENDBRANCH   4   7
BRANCH   1  16
ATOM     16  O   UNL     1       7.916   7.146  17.768  0.00  0.00    +0.000 OA
BRANCH  16  17
ATOM     17  C   UNL     1       7.690   8.528  17.484  0.00  0.00    +0.000 C 
BRANCH  17  19
ATOM     18  C   UNL     1       9.288  10.083  19.217  0.00  0.00    +0.000 C 
ATOM     19  C   UNL     1       8.551   9.365  18.416  0.00  0.00    +0.000 C 
ENDBRANCH  17  19
ENDBRANCH  16  17
ENDBRANCH   1  16
TORSDOF 4
ENDMDL
MODEL 6
REMARK VINA RESULT:      -6.7      1.724      2.310
REMARK  Name = 
REMARK  4 active torsions:
REMARK  status: ('A' for Active; 'I' for Inactive)
REMARK    1  A    between atoms: C_2  and  C_3
REMARK    2  A    between atoms: C_3  and  O_4
REMARK    3  A    between atoms: O_4  and  C_5
REMARK    4  A    between atoms: C_8  and  C_9
REMARK                            x       y       z     vdW  Elec       q    Type
REMARK                         _______ _______ _______ _____ _____    ______ ____
ROOT
ATOM      1  C   UNL     1       7.165   6.861  17.881  0.00  0.00    +0.000 A 
ATOM      2  C   UNL     1       7.366   5.559  18.344  0.00  0.00    +0.000 A 
ATOM      3  C   UNL     1       6.356   4.598  18.229  0.00  0.00    +0.000 A 
ATOM      4  C   UNL     1       5.115   4.940  17.685  0.00  0.00    +0.000 A 
ATOM      5  C   UNL     1       4.909   6.252  17.241  0.00  0.00    +0.000 A 
ATOM      6  C   UNL     1       5.928   7.207  17.337  0.00  0.00    +0.000 A 
ENDROOT
BRANCH   4   7
ATOM      7  C   UNL     1       4.046   3.940  17.593  0.00  0.00    +0.000 C 
ATOM      8  C   UNL     1       3.271   3.530  18.606  0.00  0.00    +0.000 C 
ATOM      9  S   UNL     1       3.264   4.085  20.240  0.00  0.00    +0.000 S 
ATOM     10  C   UNL     1       2.044   2.919  20.713  0.00  0.00    +0.000 C 
ATOM     11  O   UNL     1       1.614   2.794  21.852  0.00  0.00    +0.000 OA
ATOM     12  N   UNL     1       1.665   2.187  19.640  0.00  0.00    +0.000 N 
ATOM     13  C   UNL     1       2.264   2.446  18.441  0.00  0.00    +0.000 C 
ATOM     14  O   UNL     1       2.016   1.863  17.400  0.00  0.00    +0.000 OA
ATOM     15  H   UNL     1       0.973   1.461  19.731  0.00  0.00    +0.000 HD
ENDBRANCH   4   7
BRANCH   1  16
ATOM     16  O   UNL     1       8.238   7.704  17.993  0.00  0.00    +0.000 OA
BRANCH  16  17
ATOM     17  C   UNL     1       7.978   9.083  17.724  0.00  0.00    +0.000 C 
BRANCH  17  19
ATOM     18  C   UNL     1       9.599  10.660  19.414  0.00  0.00    +0.000 C 
ATOM     19  C   UNL     1       8.850   9.931  18.634  0.00  0.00    +0.000 C 
ENDBRANCH  17  19
ENDBRANCH  16  17
ENDBRANCH   1  16
TORSDOF 4
ENDMDL
MODEL 7
REMARK VINA RESULT:      -6.7      2.145      3.474
REMARK  Name = 
REMARK  4 active torsions:
REMARK  status: ('A' for Active; 'I' for Inactive)
REMARK    1  A    between atoms: C_2  and  C_3
REMARK    2  A    between atoms: C_3  and  O_4
REMARK    3  A    between atoms: O_4  and  C_5
REMARK    4  A    between atoms: C_8  and  C_9
REMARK                            x       y       z     vdW  Elec       q    Type
REMARK                         _______ _______ _______ _____ _____    ______ ____
ROOT
ATOM      1  C   UNL     1       6.763   4.983  15.907  0.00  0.00    +0.000 A 
ATOM      2  C   UNL     1       7.024   4.525  17.200  0.00  0.00    +0.000 A 
ATOM      3  C   UNL     1       6.059   4.646  18.207  0.00  0.00    +0.000 A 
ATOM      4  C   UNL     1       4.834   5.264  17.940  0.00  0.00    +0.000 A 
ATOM      5  C   UNL     1       4.584   5.741  16.648  0.00  0.00    +0.000 A 
ATOM      6  C   UNL     1       5.541   5.601  15.636  0.00  0.00    +0.000 A 
ENDROOT
BRANCH   4   7
ATOM      7  C   UNL     1       3.836   5.417  19.003  0.00  0.00    +0.000 C 
ATOM      8  C   UNL     1       2.792   4.604  19.217  0.00  0.00    +0.000 C 
ATOM      9  S   UNL     1       2.370   3.161  18.371  0.00  0.00    +0.000 S 
ATOM     10  C   UNL     1       0.901   2.950  19.303  0.00  0.00    +0.000 C 
ATOM     11  O   UNL     1       0.097   2.044  19.130  0.00  0.00    +0.000 OA
ATOM     12  N   UNL     1       0.795   3.936  20.225  0.00  0.00    +0.000 N 
ATOM     13  C   UNL     1       1.777   4.882  20.269  0.00  0.00    +0.000 C 
ATOM     14  O   UNL     1       1.804   5.820  21.048  0.00  0.00    +0.000 OA
ATOM     15  H   UNL     1       0.004   3.975  20.847  0.00  0.00    +0.000 HD
ENDBRANCH   4   7
BRANCH   1  16
ATOM     16  O   UNL     1       7.755   4.765  14.989  0.00  0.00    +0.000 OA
BRANCH  16  17
ATOM     17  C   UNL     1       7.474   5.195  13.655  0.00  0.00    +0.000 C 
BRANCH  17  19
ATOM     18  C   UNL     1       6.053   3.151  12.324  0.00  0.00    +0.000 C 
ATOM     19  C   UNL     1       6.708   4.095  12.938  0.00  0.00    +0.000 C 
ENDBRANCH  17  19
ENDBRANCH  16  17
ENDBRANCH   1  16
TORSDOF 4
ENDMDL
MODEL 8
REMARK VINA RESULT:      -6.6      2.170      2.791
REMARK  Name = 
REMARK  4 active torsions:
REMARK  status: ('A' for Active; 'I' for Inactive)
REMARK    1  A    between atoms: C_2  and  C_3
REMARK    2  A    between atoms: C_3  and  O_4
REMARK    3  A    between atoms: O_4  and  C_5
REMARK    4  A    between atoms: C_8  and  C_9
REMARK                            x       y       z     vdW  Elec       q    Type
REMARK                         _______ _______ _______ _____ _____    ______ ____
ROOT
ATOM      1  C   UNL     1       7.786   7.177  18.301  0.00  0.00    +0.000 A 
ATOM      2  C   UNL     1       6.859   7.563  17.331  0.00  0.00    +0.000 A 
ATOM      3  C   UNL     1       5.771   6.741  17.017  0.00  0.00    +0.000 A 
ATOM      4  C   UNL     1       5.621   5.500  17.644  0.00  0.00    +0.000 A 
ATOM      5  C   UNL     1       6.564   5.107  18.601  0.00  0.00    +0.000 A 
ATOM      6  C   UNL     1       7.640   5.940  18.929  0.00  0.00    +0.000 A 
ENDROOT
BRANCH   4   7
ATOM      7  C   UNL     1       4.497   4.626  17.293  0.00  0.00    +0.000 C 
ATOM      8  C   UNL     1       3.396   4.434  18.033  0.00  0.00    +0.000 C 
ATOM      9  S   UNL     1       2.970   5.180  19.529  0.00  0.00    +0.000 S 
ATOM     10  C   UNL     1       1.506   4.228  19.677  0.00  0.00    +0.000 C 
ATOM     11  O   UNL     1       0.733   4.293  20.623  0.00  0.00    +0.000 OA
ATOM     12  N   UNL     1       1.371   3.419  18.599  0.00  0.00    +0.000 N 
ATOM     13  C   UNL     1       2.341   3.461  17.640  0.00  0.00    +0.000 C 
ATOM     14  O   UNL     1       2.341   2.788  16.623  0.00  0.00    +0.000 OA
ATOM     15  H   UNL     1       0.586   2.794  18.521  0.00  0.00    +0.000 HD
ENDBRANCH   4   7
BRANCH   1  16
ATOM     16  O   UNL     1       8.779   8.081  18.566  0.00  0.00    +0.000 OA
BRANCH  16  17
ATOM     17  C   UNL     1       8.486   9.441  18.239  0.00  0.00    +0.000 C 
BRANCH  17  19
ATOM     18  C   UNL     1       9.894  11.127  20.013  0.00  0.00    +0.000 C 
ATOM     19  C   UNL     1       9.244  10.348  19.194  0.00  0.00    +0.000 C 
ENDBRANCH  17  19
ENDBRANCH  16  17
ENDBRANCH   1  16
TORSDOF 4
ENDMDL
MODEL 9
REMARK VINA RESULT:      -6.6      2.049      3.449
REMARK  Name = 
REMARK  4 active torsions:
REMARK  status: ('A' for Active; 'I' for Inactive)
REMARK    1  A    between atoms: C_2  and  C_3
REMARK    2  A    between atoms: C_3  and  O_4
REMARK    3  A    between atoms: O_4  and  C_5
REMARK    4  A    between atoms: C_8  and  C_9
REMARK                            x       y       z     vdW  Elec       q    Type
REMARK                         _______ _______ _______ _____ _____    ______ ____
ROOT
ATOM      1  C   UNL     1       6.317   5.375  15.422  0.00  0.00    +0.000 A 
ATOM      2  C   UNL     1       5.285   6.293  15.630  0.00  0.00    +0.000 A 
ATOM      3  C   UNL     1       4.502   6.234  16.788  0.00  0.00    +0.000 A 
ATOM      4  C   UNL     1       4.717   5.229  17.735  0.00  0.00    +0.000 A 
ATOM      5  C   UNL     1       5.739   4.297  17.513  0.00  0.00    +0.000 A 
ATOM      6  C   UNL     1       6.535   4.370  16.365  0.00  0.00    +0.000 A 
ENDROOT
BRANCH   4   7
ATOM      7  C   UNL     1       3.877   5.150  18.934  0.00  0.00    +0.000 C 
ATOM      8  C   UNL     1       2.830   4.330  19.102  0.00  0.00    +0.000 C 
ATOM      9  S   UNL     1       2.227   3.131  18.018  0.00  0.00    +0.000 S 
ATOM     10  C   UNL     1       0.885   2.738  19.074  0.00  0.00    +0.000 C 
ATOM     11  O   UNL     1       0.021   1.912  18.814  0.00  0.00    +0.000 OA
ATOM     12  N   UNL     1       0.953   3.484  20.202  0.00  0.00    +0.000 N 
ATOM     13  C   UNL     1       1.979   4.376  20.322  0.00  0.00    +0.000 C 
ATOM     14  O   UNL     1       2.156   5.106  21.282  0.00  0.00    +0.000 OA
ATOM     15  H   UNL     1       0.253   3.394  20.921  0.00  0.00    +0.000 HD
ENDBRANCH   4   7
BRANCH   1  16
ATOM     16  O   UNL     1       7.053   5.559  14.282  0.00  0.00    +0.000 OA
BRANCH  16  17
ATOM     17  C   UNL     1       7.442   4.369  13.594  0.00  0.00    +0.000 C 
BRANCH  17  19
ATOM     18  C   UNL     1       5.218   3.380  12.162  0.00  0.00    +0.000 C 
ATOM     19  C   UNL     1       6.245   3.837  12.822  0.00  0.00    +0.000 C 
ENDBRANCH  17  19
ENDBRANCH  16  17
ENDBRANCH   1  16
TORSDOF 4
ENDMDL
