MODEL 1
REMARK VINA RESULT:      -7.0      0.000      0.000
REMARK  Name = 
REMARK  9 active torsions:
REMARK  status: ('A' for Active; 'I' for Inactive)
REMARK    1  A    between atoms: C_1  and  C_2
REMARK    2  A    between atoms: C_2  and  C_3
REMARK    3  A    between atoms: C_3  and  N_4
REMARK    4  A    between atoms: C_9  and  N_10
REMARK    5  A    between atoms: N_10  and  C_11
REMARK    6  A    between atoms: C_11  and  C_12
REMARK    7  A    between atoms: C_16  and  O_17
REMARK    8  A    between atoms: O_17  and  C_18
REMARK    9  A    between atoms: C_19  and  O_20
REMARK                            x       y       z     vdW  Elec       q    Type
REMARK                         _______ _______ _______ _____ _____    ______ ____
ROOT
ATOM      1  N   UNL     1       6.842   4.610  18.407  0.00  0.00    +0.000 N 
ATOM      2  H   UNL     1       7.825   4.828  18.553  0.00  0.00    +0.000 HD
ENDROOT
BRANCH   1   8
ATOM      3  N   UNL     1       6.417   4.011  12.922  0.00  0.00    +0.000 N 
ATOM      4  C   UNL     1       7.400   4.908  12.608  0.00  0.00    +0.000 A 
ATOM      5  N   UNL     1       7.919   5.460  13.680  0.00  0.00    +0.000 NA
ATOM      6  C   UNL     1       7.254   4.884  14.736  0.00  0.00    +0.000 A 
ATOM      7  C   UNL     1       7.416   5.094  16.115  0.00  0.00    +0.000 A 
ATOM      8  C   UNL     1       6.598   4.414  17.035  0.00  0.00    +0.000 A 
ATOM      9  C   UNL     1       5.685   3.469  16.543  0.00  0.00    +0.000 A 
ATOM     10  C   UNL     1       5.511   3.232  15.170  0.00  0.00    +0.000 A 
ATOM     11  C   UNL     1       6.308   3.968  14.290  0.00  0.00    +0.000 A 
BRANCH   3  12
ATOM     12  C   UNL     1       5.684   3.205  11.967  0.00  0.00    +0.000 C 
BRANCH  12  14
ATOM     13  C   UNL     1       3.451   2.903  10.848  0.00  0.00    +0.000 C 
ATOM     14  C   UNL     1       4.448   3.906  11.407  0.00  0.00    +0.000 C 
ENDBRANCH  12  14
ENDBRANCH   3  12
ENDBRANCH   1   8
BRANCH   1  15
ATOM     15  C   UNL     1       5.986   5.557  19.126  0.00  0.00    +0.000 C 
BRANCH  15  16
ATOM     16  C   UNL     1       4.509   5.251  18.973  0.00  0.00    +0.000 A 
ATOM     17  C   UNL     1       3.609   6.100  18.309  0.00  0.00    +0.000 A 
ATOM     18  C   UNL     1       2.266   5.752  18.173  0.00  0.00    +0.000 A 
ATOM     19  C   UNL     1       1.792   4.559  18.722  0.00  0.00    +0.000 A 
ATOM     20  C   UNL     1       2.653   3.717  19.425  0.00  0.00    +0.000 A 
ATOM     21  C   UNL     1       4.007   4.057  19.522  0.00  0.00    +0.000 A 
BRANCH  20  22
ATOM     22  O   UNL     1       2.088   2.559  19.888  0.00  0.00    +0.000 OA
ATOM     23  C   UNL     1       1.344   2.664  21.100  0.00  0.00    +0.000 C 
ENDBRANCH  20  22
BRANCH  21  24
ATOM     24  O   UNL     1       4.912   3.199  20.091  0.00  0.00    +0.000 OA
ATOM     25  H   UNL     1       5.436   3.738  20.703  0.00  0.00    +0.000 HD
ENDBRANCH  21  24
ENDBRANCH  15  16
ENDBRANCH   1  15
TORSDOF 7
ENDMDL
MODEL 2
REMARK VINA RESULT:      -6.8      3.284      4.078
REMARK  Name = 
REMARK  9 active torsions:
REMARK  status: ('A' for Active; 'I' for Inactive)
REMARK    1  A    between atoms: C_1  and  C_2
REMARK    2  A    between atoms: C_2  and  C_3
REMARK    3  A    between atoms: C_3  and  N_4
REMARK    4  A    between atoms: C_9  and  N_10
REMARK    5  A    between atoms: N_10  and  C_11
REMARK    6  A    between atoms: C_11  and  C_12
REMARK    7  A    between atoms: C_16  and  O_17
REMARK    8  A    between atoms: O_17  and  C_18
REMARK    9  A    between atoms: C_19  and  O_20
REMARK                            x       y       z     vdW  Elec       q    Type
REMARK                         _______ _______ _______ _____ _____    ______ ____
ROOT
ATOM      1  N   UNL     1       4.033   5.853  19.657  0.00  0.00    +0.000 N 
ATOM      2  H   UNL     1       4.555   6.688  19.911  0.00  0.00    +0.000 HD
ENDROOT
BRANCH   1   8
ATOM      3  N   UNL     1       6.241   4.210  14.855  0.00  0.00    +0.000 N 
ATOM      4  C   UNL     1       7.297   5.078  14.885  0.00  0.00    +0.000 A 
ATOM      5  N   UNL     1       7.269   5.846  15.948  0.00  0.00    +0.000 NA
ATOM      6  C   UNL     1       6.155   5.449  16.648  0.00  0.00    +0.000 A 
ATOM      7  C   UNL     1       5.651   5.923  17.870  0.00  0.00    +0.000 A 
ATOM      8  C   UNL     1       4.462   5.390  18.399  0.00  0.00    +0.000 A 
ATOM      9  C   UNL     1       3.848   4.327  17.719  0.00  0.00    +0.000 A 
ATOM     10  C   UNL     1       4.338   3.827  16.503  0.00  0.00    +0.000 A 
ATOM     11  C   UNL     1       5.492   4.420  15.987  0.00  0.00    +0.000 A 
BRANCH   3  12
ATOM     12  C   UNL     1       6.013   3.204  13.839  0.00  0.00    +0.000 C 
BRANCH  12  14
ATOM     13  C   UNL     1       4.665   3.300  11.716  0.00  0.00    +0.000 C 
ATOM     14  C   UNL     1       5.920   3.782  12.428  0.00  0.00    +0.000 C 
ENDBRANCH  12  14
ENDBRANCH   3  12
ENDBRANCH   1   8
BRANCH   1  15
ATOM     15  C   UNL     1       2.596   6.055  19.858  0.00  0.00    +0.000 C 
BRANCH  15  16
ATOM     16  C   UNL     1       2.124   7.427  19.420  0.00  0.00    +0.000 A 
ATOM     17  C   UNL     1       2.199   7.882  18.093  0.00  0.00    +0.000 A 
ATOM     18  C   UNL     1       1.721   9.143  17.742  0.00  0.00    +0.000 A 
ATOM     19  C   UNL     1       1.182   9.985  18.717  0.00  0.00    +0.000 A 
ATOM     20  C   UNL     1       1.133   9.577  20.049  0.00  0.00    +0.000 A 
ATOM     21  C   UNL     1       1.580   8.293  20.385  0.00  0.00    +0.000 A 
BRANCH  20  22
ATOM     22  O   UNL     1       0.552  10.468  20.912  0.00  0.00    +0.000 OA
ATOM     23  C   UNL     1      -0.136  11.564  20.314  0.00  0.00    +0.000 C 
ENDBRANCH  20  22
BRANCH  21  24
ATOM     24  O   UNL     1       1.434   7.804  21.656  0.00  0.00    +0.000 OA
ATOM     25  H   UNL     1       0.778   8.377  22.084  0.00  0.00    +0.000 HD
ENDBRANCH  21  24
ENDBRANCH  15  16
ENDBRANCH   1  15
TORSDOF 7
ENDMDL
MODEL 3
REMARK VINA RESULT:      -6.8      1.196      1.402
REMARK  Name = 
REMARK  9 active torsions:
REMARK  status: ('A' for Active; 'I' for Inactive)
REMARK    1  A    between atoms: C_1  and  C_2
REMARK    2  A    between atoms: C_2  and  C_3
REMARK    3  A    between atoms: C_3  and  N_4
REMARK    4  A    between atoms: C_9  and  N_10
REMARK    5  A    between atoms: N_10  and  C_11
REMARK    6  A    between atoms: C_11  and  C_12
REMARK    7  A    between atoms: C_16  and  O_17
REMARK    8  A    between atoms: O_17  and  C_18
REMARK    9  A    between atoms: C_19  and  O_20
REMARK                            x       y       z     vdW  Elec       q    Type
REMARK                         _______ _______ _______ _____ _____    ______ ____
ROOT
ATOM      1  N   UNL     1       6.221   5.499  18.082  0.00  0.00    +0.000 N 
ATOM      2  H   UNL     1       5.721   6.380  18.173  0.00  0.00    +0.000 HD
ENDROOT
BRANCH   1   8
ATOM      3  N   UNL     1       6.516   3.899  12.793  0.00  0.00    +0.000 N 
ATOM      4  C   UNL     1       7.554   4.722  12.456  0.00  0.00    +0.000 A 
ATOM      5  N   UNL     1       7.939   5.462  13.470  0.00  0.00    +0.000 NA
ATOM      6  C   UNL     1       7.125   5.091  14.513  0.00  0.00    +0.000 A 
ATOM      7  C   UNL     1       7.107   5.552  15.840  0.00  0.00    +0.000 A 
ATOM      8  C   UNL     1       6.157   5.053  16.749  0.00  0.00    +0.000 A 
ATOM      9  C   UNL     1       5.294   4.034  16.318  0.00  0.00    +0.000 A 
ATOM     10  C   UNL     1       5.299   3.547  15.001  0.00  0.00    +0.000 A 
ATOM     11  C   UNL     1       6.224   4.108  14.118  0.00  0.00    +0.000 A 
BRANCH   3  12
ATOM     12  C   UNL     1       5.897   2.930  11.911  0.00  0.00    +0.000 C 
BRANCH  12  14
ATOM     13  C   UNL     1       6.273   0.581  11.092  0.00  0.00    +0.000 C 
ATOM     14  C   UNL     1       6.896   1.953  11.292  0.00  0.00    +0.000 C 
ENDBRANCH  12  14
ENDBRANCH   3  12
ENDBRANCH   1   8
BRANCH   1  15
ATOM     15  C   UNL     1       5.826   4.563  19.137  0.00  0.00    +0.000 C 
BRANCH  15  16
ATOM     16  C   UNL     1       4.350   4.639  19.473  0.00  0.00    +0.000 A 
ATOM     17  C   UNL     1       3.672   5.848  19.704  0.00  0.00    +0.000 A 
ATOM     18  C   UNL     1       2.305   5.858  19.980  0.00  0.00    +0.000 A 
ATOM     19  C   UNL     1       1.596   4.658  20.056  0.00  0.00    +0.000 A 
ATOM     20  C   UNL     1       2.251   3.441  19.874  0.00  0.00    +0.000 A 
ATOM     21  C   UNL     1       3.615   3.443  19.559  0.00  0.00    +0.000 A 
BRANCH  20  22
ATOM     22  O   UNL     1       1.451   2.331  19.935  0.00  0.00    +0.000 OA
ATOM     23  C   UNL     1       0.723   2.016  18.750  0.00  0.00    +0.000 C 
ENDBRANCH  20  22
BRANCH  21  24
ATOM     24  O   UNL     1       4.270   2.281  19.247  0.00  0.00    +0.000 OA
ATOM     25  H   UNL     1       4.125   2.144  18.298  0.00  0.00    +0.000 HD
ENDBRANCH  21  24
ENDBRANCH  15  16
ENDBRANCH   1  15
TORSDOF 7
ENDMDL
MODEL 4
REMARK VINA RESULT:      -6.8      4.041      7.657
REMARK  Name = 
REMARK  9 active torsions:
REMARK  status: ('A' for Active; 'I' for Inactive)
REMARK    1  A    between atoms: C_1  and  C_2
REMARK    2  A    between atoms: C_2  and  C_3
REMARK    3  A    between atoms: C_3  and  N_4
REMARK    4  A    between atoms: C_9  and  N_10
REMARK    5  A    between atoms: N_10  and  C_11
REMARK    6  A    between atoms: C_11  and  C_12
REMARK    7  A    between atoms: C_16  and  O_17
REMARK    8  A    between atoms: O_17  and  C_18
REMARK    9  A    between atoms: C_19  and  O_20
REMARK                            x       y       z     vdW  Elec       q    Type
REMARK                         _______ _______ _______ _____ _____    ______ ____
ROOT
ATOM      1  N   UNL     1       3.075   4.963  19.137  0.00  0.00    +0.000 N 
ATOM      2  H   UNL     1       2.861   4.500  18.258  0.00  0.00    +0.000 HD
ENDROOT
BRANCH   1   8
ATOM      3  N   UNL     1       0.981  10.053  19.716  0.00  0.00    +0.000 N 
ATOM      4  C   UNL     1       0.727   9.948  21.056  0.00  0.00    +0.000 A 
ATOM      5  N   UNL     1       1.055   8.766  21.523  0.00  0.00    +0.000 NA
ATOM      6  C   UNL     1       1.558   8.081  20.443  0.00  0.00    +0.000 A 
ATOM      7  C   UNL     1       2.071   6.775  20.373  0.00  0.00    +0.000 A 
ATOM      8  C   UNL     1       2.511   6.253  19.143  0.00  0.00    +0.000 A 
ATOM      9  C   UNL     1       2.499   7.094  18.020  0.00  0.00    +0.000 A 
ATOM     10  C   UNL     1       2.002   8.406  18.065  0.00  0.00    +0.000 A 
ATOM     11  C   UNL     1       1.528   8.866  19.296  0.00  0.00    +0.000 A 
BRANCH   3  12
ATOM     12  C   UNL     1       0.773  11.244  18.917  0.00  0.00    +0.000 C 
BRANCH  12  14
ATOM     13  C   UNL     1       2.573  12.837  18.176  0.00  0.00    +0.000 C 
ATOM     14  C   UNL     1       1.673  12.409  19.324  0.00  0.00    +0.000 C 
ENDBRANCH  12  14
ENDBRANCH   3  12
ENDBRANCH   1   8
BRANCH   1  15
ATOM     15  C   UNL     1       4.497   4.836  19.462  0.00  0.00    +0.000 C 
BRANCH  15  16
ATOM     16  C   UNL     1       5.400   5.058  18.265  0.00  0.00    +0.000 A 
ATOM     17  C   UNL     1       6.299   6.133  18.164  0.00  0.00    +0.000 A 
ATOM     18  C   UNL     1       7.127   6.269  17.050  0.00  0.00    +0.000 A 
ATOM     19  C   UNL     1       7.052   5.347  16.004  0.00  0.00    +0.000 A 
ATOM     20  C   UNL     1       6.139   4.295  16.057  0.00  0.00    +0.000 A 
ATOM     21  C   UNL     1       5.340   4.145  17.197  0.00  0.00    +0.000 A 
BRANCH  20  22
ATOM     22  O   UNL     1       6.178   3.433  14.994  0.00  0.00    +0.000 OA
ATOM     23  C   UNL     1       6.305   4.030  13.706  0.00  0.00    +0.000 C 
ENDBRANCH  20  22
BRANCH  21  24
ATOM     24  O   UNL     1       4.522   3.056  17.347  0.00  0.00    +0.000 OA
ATOM     25  H   UNL     1       5.110   2.312  17.548  0.00  0.00    +0.000 HD
ENDBRANCH  21  24
ENDBRANCH  15  16
ENDBRANCH   1  15
TORSDOF 7
ENDMDL
MODEL 5
REMARK VINA RESULT:      -6.7      3.762      7.509
REMARK  Name = 
REMARK  9 active torsions:
REMARK  status: ('A' for Active; 'I' for Inactive)
REMARK    1  A    between atoms: C_1  and  C_2
REMARK    2  A    between atoms: C_2  and  C_3
REMARK    3  A    between atoms: C_3  and  N_4
REMARK    4  A    between atoms: C_9  and  N_10
REMARK    5  A    between atoms: N_10  and  C_11
REMARK    6  A    between atoms: C_11  and  C_12
REMARK    7  A    between atoms: C_16  and  O_17
REMARK    8  A    between atoms: O_17  and  C_18
REMARK    9  A    between atoms: C_19  and  O_20
REMARK                            x       y       z     vdW  Elec       q    Type
REMARK                         _______ _______ _______ _____ _____    ______ ____
ROOT
ATOM      1  N   UNL     1       3.903   3.971  17.328  0.00  0.00    +0.000 N 
ATOM      2  H   UNL     1       3.160   3.619  16.730  0.00  0.00    +0.000 HD
ENDROOT
BRANCH   1   8
ATOM      3  N   UNL     1       1.675   8.140  20.205  0.00  0.00    +0.000 N 
ATOM      4  C   UNL     1       1.596   9.009  19.152  0.00  0.00    +0.000 A 
ATOM      5  N   UNL     1       2.075   8.483  18.049  0.00  0.00    +0.000 NA
ATOM      6  C   UNL     1       2.467   7.213  18.397  0.00  0.00    +0.000 A 
ATOM      7  C   UNL     1       3.036   6.204  17.604  0.00  0.00    +0.000 A 
ATOM      8  C   UNL     1       3.396   4.971  18.178  0.00  0.00    +0.000 A 
ATOM      9  C   UNL     1       3.096   4.754  19.531  0.00  0.00    +0.000 A 
ATOM     10  C   UNL     1       2.518   5.742  20.344  0.00  0.00    +0.000 A 
ATOM     11  C   UNL     1       2.225   6.969  19.745  0.00  0.00    +0.000 A 
BRANCH   3  12
ATOM     12  C   UNL     1       1.190   8.403  21.544  0.00  0.00    +0.000 C 
BRANCH  12  14
ATOM     13  C   UNL     1      -0.509  10.210  21.969  0.00  0.00    +0.000 C 
ATOM     14  C   UNL     1      -0.297   8.753  21.589  0.00  0.00    +0.000 C 
ENDBRANCH  12  14
ENDBRANCH   3  12
ENDBRANCH   1   8
BRANCH   1  15
ATOM     15  C   UNL     1       5.102   4.280  16.545  0.00  0.00    +0.000 C 
BRANCH  15  16
ATOM     16  C   UNL     1       6.118   5.098  17.318  0.00  0.00    +0.000 A 
ATOM     17  C   UNL     1       6.781   4.625  18.462  0.00  0.00    +0.000 A 
ATOM     18  C   UNL     1       7.729   5.411  19.115  0.00  0.00    +0.000 A 
ATOM     19  C   UNL     1       8.014   6.697  18.650  0.00  0.00    +0.000 A 
ATOM     20  C   UNL     1       7.341   7.209  17.542  0.00  0.00    +0.000 A 
ATOM     21  C   UNL     1       6.419   6.397  16.870  0.00  0.00    +0.000 A 
BRANCH  20  22
ATOM     22  O   UNL     1       7.726   8.464  17.153  0.00  0.00    +0.000 OA
ATOM     23  C   UNL     1       8.385   9.253  18.141  0.00  0.00    +0.000 C 
ENDBRANCH  20  22
BRANCH  21  24
ATOM     24  O   UNL     1       5.830   6.811  15.705  0.00  0.00    +0.000 OA
ATOM     25  H   UNL     1       6.008   7.763  15.644  0.00  0.00    +0.000 HD
ENDBRANCH  21  24
ENDBRANCH  15  16
ENDBRANCH   1  15
TORSDOF 7
ENDMDL
MODEL 6
REMARK VINA RESULT:      -6.7      3.821      7.401
REMARK  Name = 
REMARK  9 active torsions:
REMARK  status: ('A' for Active; 'I' for Inactive)
REMARK    1  A    between atoms: C_1  and  C_2
REMARK    2  A    between atoms: C_2  and  C_3
REMARK    3  A    between atoms: C_3  and  N_4
REMARK    4  A    between atoms: C_9  and  N_10
REMARK    5  A    between atoms: N_10  and  C_11
REMARK    6  A    between atoms: C_11  and  C_12
REMARK    7  A    between atoms: C_16  and  O_17
REMARK    8  A    between atoms: O_17  and  C_18
REMARK    9  A    between atoms: C_19  and  O_20
REMARK                            x       y       z     vdW  Elec       q    Type
REMARK                         _______ _______ _______ _____ _____    ______ ____
ROOT
ATOM      1  N   UNL     1       2.904   4.394  19.299  0.00  0.00    +0.000 N 
ATOM      2  H   UNL     1       2.742   4.099  18.340  0.00  0.00    +0.000 HD
ENDROOT
BRANCH   1   8
ATOM      3  N   UNL     1       1.312   9.694  19.346  0.00  0.00    +0.000 N 
ATOM      4  C   UNL     1       1.670   9.958  18.053  0.00  0.00    +0.000 A 
ATOM      5  N   UNL     1       2.204   8.910  17.471  0.00  0.00    +0.000 NA
ATOM      6  C   UNL     1       2.177   7.918  18.422  0.00  0.00    +0.000 A 
ATOM      7  C   UNL     1       2.609   6.585  18.336  0.00  0.00    +0.000 A 
ATOM      8  C   UNL     1       2.516   5.738  19.454  0.00  0.00    +0.000 A 
ATOM      9  C   UNL     1       1.910   6.235  20.618  0.00  0.00    +0.000 A 
ATOM     10  C   UNL     1       1.459   7.560  20.726  0.00  0.00    +0.000 A 
ATOM     11  C   UNL     1       1.618   8.381  19.608  0.00  0.00    +0.000 A 
BRANCH   3  12
ATOM     12  C   UNL     1       0.657  10.627  20.239  0.00  0.00    +0.000 C 
BRANCH  12  14
ATOM     13  C   UNL     1      -1.549  11.790  19.908  0.00  0.00    +0.000 C 
ATOM     14  C   UNL     1      -0.083  11.745  19.507  0.00  0.00    +0.000 C 
ENDBRANCH  12  14
ENDBRANCH   3  12
ENDBRANCH   1   8
BRANCH   1  15
ATOM     15  C   UNL     1       4.247   4.013  19.743  0.00  0.00    +0.000 C 
BRANCH  15  16
ATOM     16  C   UNL     1       5.336   4.474  18.795  0.00  0.00    +0.000 A 
ATOM     17  C   UNL     1       6.353   5.370  19.164  0.00  0.00    +0.000 A 
ATOM     18  C   UNL     1       7.347   5.736  18.257  0.00  0.00    +0.000 A 
ATOM     19  C   UNL     1       7.327   5.233  16.955  0.00  0.00    +0.000 A 
ATOM     20  C   UNL     1       6.306   4.375  16.547  0.00  0.00    +0.000 A 
ATOM     21  C   UNL     1       5.335   3.983  17.477  0.00  0.00    +0.000 A 
BRANCH  20  22
ATOM     22  O   UNL     1       6.408   3.915  15.261  0.00  0.00    +0.000 OA
ATOM     23  C   UNL     1       6.982   4.815  14.316  0.00  0.00    +0.000 C 
ENDBRANCH  20  22
BRANCH  21  24
ATOM     24  O   UNL     1       4.390   3.045  17.157  0.00  0.00    +0.000 OA
ATOM     25  H   UNL     1       3.612   3.263  17.694  0.00  0.00    +0.000 HD
ENDBRANCH  21  24
ENDBRANCH  15  16
ENDBRANCH   1  15
TORSDOF 7
ENDMDL
MODEL 7
REMARK VINA RESULT:      -6.7      3.025      4.987
REMARK  Name = 
REMARK  9 active torsions:
REMARK  status: ('A' for Active; 'I' for Inactive)
REMARK    1  A    between atoms: C_1  and  C_2
REMARK    2  A    between atoms: C_2  and  C_3
REMARK    3  A    between atoms: C_3  and  N_4
REMARK    4  A    between atoms: C_9  and  N_10
REMARK    5  A    between atoms: N_10  and  C_11
REMARK    6  A    between atoms: C_11  and  C_12
REMARK    7  A    between atoms: C_16  and  O_17
REMARK    8  A    between atoms: O_17  and  C_18
REMARK    9  A    between atoms: C_19  and  O_20
REMARK                            x       y       z     vdW  Elec       q    Type
REMARK                         _______ _______ _______ _____ _____    ______ ____
ROOT
ATOM      1  N   UNL     1       4.153   3.455  16.693  0.00  0.00    +0.000 N 
ATOM      2  H   UNL     1       4.558   2.606  17.079  0.00  0.00    +0.000 HD
ENDROOT
BRANCH   1   8
ATOM      3  N   UNL     1       7.750   7.411  18.120  0.00  0.00    +0.000 N 
ATOM      4  C   UNL     1       8.368   6.689  19.103  0.00  0.00    +0.000 A 
ATOM      5  N   UNL     1       7.833   5.498  19.244  0.00  0.00    +0.000 NA
ATOM      6  C   UNL     1       6.836   5.440  18.300  0.00  0.00    +0.000 A 
ATOM      7  C   UNL     1       5.952   4.391  17.998  0.00  0.00    +0.000 A 
ATOM      8  C   UNL     1       4.973   4.556  17.002  0.00  0.00    +0.000 A 
ATOM      9  C   UNL     1       4.962   5.754  16.271  0.00  0.00    +0.000 A 
ATOM     10  C   UNL     1       5.842   6.813  16.544  0.00  0.00    +0.000 A 
ATOM     11  C   UNL     1       6.763   6.626  17.577  0.00  0.00    +0.000 A 
BRANCH   3  12
ATOM     12  C   UNL     1       8.134   8.741  17.692  0.00  0.00    +0.000 C 
BRANCH  12  14
ATOM     13  C   UNL     1       9.205  10.937  18.292  0.00  0.00    +0.000 C 
ATOM     14  C   UNL     1       8.859   9.538  18.776  0.00  0.00    +0.000 C 
ENDBRANCH  12  14
ENDBRANCH   3  12
ENDBRANCH   1   8
BRANCH   1  15
ATOM     15  C   UNL     1       2.728   3.549  17.021  0.00  0.00    +0.000 C 
BRANCH  15  16
ATOM     16  C   UNL     1       2.477   4.091  18.414  0.00  0.00    +0.000 A 
ATOM     17  C   UNL     1       2.135   5.429  18.672  0.00  0.00    +0.000 A 
ATOM     18  C   UNL     1       1.885   5.864  19.973  0.00  0.00    +0.000 A 
ATOM     19  C   UNL     1       1.999   4.975  21.044  0.00  0.00    +0.000 A 
ATOM     20  C   UNL     1       2.379   3.652  20.822  0.00  0.00    +0.000 A 
ATOM     21  C   UNL     1       2.589   3.215  19.509  0.00  0.00    +0.000 A 
BRANCH  20  22
ATOM     22  O   UNL     1       2.422   2.862  21.940  0.00  0.00    +0.000 OA
ATOM     23  C   UNL     1       1.180   2.305  22.365  0.00  0.00    +0.000 C 
ENDBRANCH  20  22
BRANCH  21  24
ATOM     24  O   UNL     1       2.838   1.896  19.234  0.00  0.00    +0.000 OA
ATOM     25  H   UNL     1       2.678   1.420  20.064  0.00  0.00    +0.000 HD
ENDBRANCH  21  24
ENDBRANCH  15  16
ENDBRANCH   1  15
TORSDOF 7
ENDMDL
MODEL 8
REMARK VINA RESULT:      -6.7      5.972      9.406
REMARK  Name = 
REMARK  9 active torsions:
REMARK  status: ('A' for Active; 'I' for Inactive)
REMARK    1  A    between atoms: C_1  and  C_2
REMARK    2  A    between atoms: C_2  and  C_3
REMARK    3  A    between atoms: C_3  and  N_4
REMARK    4  A    between atoms: C_9  and  N_10
REMARK    5  A    between atoms: N_10  and  C_11
REMARK    6  A    between atoms: C_11  and  C_12
REMARK    7  A    between atoms: C_16  and  O_17
REMARK    8  A    between atoms: O_17  and  C_18
REMARK    9  A    between atoms: C_19  and  O_20
REMARK                            x       y       z     vdW  Elec       q    Type
REMARK                         _______ _______ _______ _____ _____    ______ ____
ROOT
ATOM      1  N   UNL     1       2.131   7.479  20.875  0.00  0.00    +0.000 N 
ATOM      2  H   UNL     1       1.877   6.822  21.609  0.00  0.00    +0.000 HD
ENDROOT
BRANCH   1   8
ATOM      3  N   UNL     1      -1.182  11.869  21.489  0.00  0.00    +0.000 N 
ATOM      4  C   UNL     1      -1.298  11.766  22.848  0.00  0.00    +0.000 A 
ATOM      5  N   UNL     1      -0.636  10.735  23.318  0.00  0.00    +0.000 NA
ATOM      6  C   UNL     1      -0.052  10.153  22.219  0.00  0.00    +0.000 A 
ATOM      7  C   UNL     1       0.780   9.024  22.142  0.00  0.00    +0.000 A 
ATOM      8  C   UNL     1       1.249   8.575  20.894  0.00  0.00    +0.000 A 
ATOM      9  C   UNL     1       0.931   9.328  19.753  0.00  0.00    +0.000 A 
ATOM     10  C   UNL     1       0.111  10.466  19.804  0.00  0.00    +0.000 A 
ATOM     11  C   UNL     1      -0.375  10.846  21.057  0.00  0.00    +0.000 A 
BRANCH   3  12
ATOM     12  C   UNL     1      -1.757  12.923  20.678  0.00  0.00    +0.000 C 
BRANCH  12  14
ATOM     13  C   UNL     1      -4.251  13.225  20.550  0.00  0.00    +0.000 C 
ATOM     14  C   UNL     1      -3.043  12.506  19.969  0.00  0.00    +0.000 C 
ENDBRANCH  12  14
ENDBRANCH   3  12
ENDBRANCH   1   8
BRANCH   1  15
ATOM     15  C   UNL     1       2.335   6.786  19.601  0.00  0.00    +0.000 C 
BRANCH  15  16
ATOM     16  C   UNL     1       2.052   5.298  19.685  0.00  0.00    +0.000 A 
ATOM     17  C   UNL     1       1.339   4.706  20.741  0.00  0.00    +0.000 A 
ATOM     18  C   UNL     1       1.083   3.336  20.750  0.00  0.00    +0.000 A 
ATOM     19  C   UNL     1       1.559   2.527  19.715  0.00  0.00    +0.000 A 
ATOM     20  C   UNL     1       2.306   3.080  18.677  0.00  0.00    +0.000 A 
ATOM     21  C   UNL     1       2.524   4.463  18.657  0.00  0.00    +0.000 A 
BRANCH  20  22
ATOM     22  O   UNL     1       2.689   2.201  17.700  0.00  0.00    +0.000 OA
ATOM     23  C   UNL     1       3.764   1.324  18.030  0.00  0.00    +0.000 C 
ENDBRANCH  20  22
BRANCH  21  24
ATOM     24  O   UNL     1       3.142   5.066  17.593  0.00  0.00    +0.000 OA
ATOM     25  H   UNL     1       4.092   4.930  17.730  0.00  0.00    +0.000 HD
ENDBRANCH  21  24
ENDBRANCH  15  16
ENDBRANCH   1  15
TORSDOF 7
ENDMDL
MODEL 9
REMARK VINA RESULT:      -6.7      4.037      7.705
REMARK  Name = 
REMARK  9 active torsions:
REMARK  status: ('A' for Active; 'I' for Inactive)
REMARK    1  A    between atoms: C_1  and  C_2
REMARK    2  A    between atoms: C_2  and  C_3
REMARK    3  A    between atoms: C_3  and  N_4
REMARK    4  A    between atoms: C_9  and  N_10
REMARK    5  A    between atoms: N_10  and  C_11
REMARK    6  A    between atoms: C_11  and  C_12
REMARK    7  A    between atoms: C_16  and  O_17
REMARK    8  A    between atoms: O_17  and  C_18
REMARK    9  A    between atoms: C_19  and  O_20
REMARK                            x       y       z     vdW  Elec       q    Type
REMARK                         _______ _______ _______ _____ _____    ______ ____
ROOT
ATOM      1  N   UNL     1       3.223   4.874  19.217  0.00  0.00    +0.000 N 
ATOM      2  H   UNL     1       2.998   4.384  18.355  0.00  0.00    +0.000 HD
ENDROOT
BRANCH   1   8
ATOM      3  N   UNL     1       0.911   9.870  19.784  0.00  0.00    +0.000 N 
ATOM      4  C   UNL     1       0.637   9.745  21.118  0.00  0.00    +0.000 A 
ATOM      5  N   UNL     1       1.004   8.575  21.584  0.00  0.00    +0.000 NA
ATOM      6  C   UNL     1       1.555   7.918  20.511  0.00  0.00    +0.000 A 
ATOM      7  C   UNL     1       2.123   6.635  20.443  0.00  0.00    +0.000 A 
ATOM      8  C   UNL     1       2.607   6.139  19.219  0.00  0.00    +0.000 A 
ATOM      9  C   UNL     1       2.581   6.985  18.101  0.00  0.00    +0.000 A 
ATOM     10  C   UNL     1       2.030   8.276  18.144  0.00  0.00    +0.000 A 
ATOM     11  C   UNL     1       1.514   8.708  19.367  0.00  0.00    +0.000 A 
BRANCH   3  12
ATOM     12  C   UNL     1       0.669  11.055  18.987  0.00  0.00    +0.000 C 
BRANCH  12  14
ATOM     13  C   UNL     1      -1.498  12.295  19.297  0.00  0.00    +0.000 C 
ATOM     14  C   UNL     1      -0.784  11.191  18.534  0.00  0.00    +0.000 C 
ENDBRANCH  12  14
ENDBRANCH   3  12
ENDBRANCH   1   8
BRANCH   1  15
ATOM     15  C   UNL     1       4.660   4.812  19.492  0.00  0.00    +0.000 C 
BRANCH  15  16
ATOM     16  C   UNL     1       5.509   5.021  18.254  0.00  0.00    +0.000 A 
ATOM     17  C   UNL     1       6.449   6.057  18.127  0.00  0.00    +0.000 A 
ATOM     18  C   UNL     1       7.224   6.182  16.975  0.00  0.00    +0.000 A 
ATOM     19  C   UNL     1       7.055   5.288  15.917  0.00  0.00    +0.000 A 
ATOM     20  C   UNL     1       6.101   4.275  15.996  0.00  0.00    +0.000 A 
ATOM     21  C   UNL     1       5.355   4.134  17.173  0.00  0.00    +0.000 A 
BRANCH  20  22
ATOM     22  O   UNL     1       6.048   3.435  14.916  0.00  0.00    +0.000 OA
ATOM     23  C   UNL     1       6.350   4.019  13.651  0.00  0.00    +0.000 C 
ENDBRANCH  20  22
BRANCH  21  24
ATOM     24  O   UNL     1       4.499   3.079  17.345  0.00  0.00    +0.000 OA
ATOM     25  H   UNL     1       3.630   3.472  17.525  0.00  0.00    +0.000 HD
ENDBRANCH  21  24
ENDBRANCH  15  16
ENDBRANCH   1  15
TORSDOF 7
ENDMDL
