MODEL 1
REMARK VINA RESULT:      -7.6      0.000      0.000
REMARK  Name = 
REMARK  4 active torsions:
REMARK  status: ('A' for Active; 'I' for Inactive)
REMARK    1  A    between atoms: C_1  and  C_2
REMARK    2  A    between atoms: C_5  and  C_6
REMARK    3  A    between atoms: C_9  and  C_11
REMARK    4  A    between atoms: C_17  and  C_18
REMARK                            x       y       z     vdW  Elec       q    Type
REMARK                         _______ _______ _______ _____ _____    ______ ____
ROOT
ATOM      1  C   UNL     1       5.625   5.484  17.074  0.00  0.00    +0.000 C 
ATOM      2  C   UNL     1       4.965   4.757  18.238  0.00  0.00    +0.000 C 
ATOM      3  N   UNL     1       4.468   3.535  17.634  0.00  0.00    +0.000 N 
ATOM      4  C   UNL     1       3.361   2.787  18.003  0.00  0.00    +0.000 C 
ATOM      5  O   UNL     1       2.972   1.841  17.319  0.00  0.00    +0.000 OA
ATOM      6  C   UNL     1       5.247   3.188  16.459  0.00  0.00    +0.000 C 
ATOM      7  C   UNL     1       6.242   4.335  16.266  0.00  0.00    +0.000 C 
ENDROOT
BRANCH   1  12
ATOM      8  C   UNL     1       8.451   9.456  17.831  0.00  0.00    +0.000 C 
ATOM      9  C   UNL     1       7.866   8.106  17.915  0.00  0.00    +0.000 A 
ATOM     10  N   UNL     1       8.319   7.172  18.759  0.00  0.00    +0.000 NA
ATOM     11  O   UNL     1       7.476   6.085  18.513  0.00  0.00    +0.000 OA
ATOM     12  C   UNL     1       6.607   6.484  17.537  0.00  0.00    +0.000 A 
ATOM     13  N   UNL     1       6.808   7.717  17.132  0.00  0.00    +0.000 NA
ENDBRANCH   1  12
BRANCH   4  14
ATOM     14  C   UNL     1       2.637   3.188  19.224  0.00  0.00    +0.000 A 
ATOM     15  C   UNL     1       2.951   2.696  20.480  0.00  0.00    +0.000 A 
ATOM     16  S   UNL     1       1.904   3.354  21.667  0.00  0.00    +0.000 S 
ATOM     17  C   UNL     1       1.122   4.265  20.443  0.00  0.00    +0.000 A 
ATOM     18  N   UNL     1       1.586   4.110  19.223  0.00  0.00    +0.000 NA
ENDBRANCH   4  14
BRANCH   7  19
ATOM     19  C   UNL     1       6.392   4.701  14.806  0.00  0.00    +0.000 C 
ATOM     20  N   UNL     1       7.475   5.466  14.494  0.00  0.00    +0.000 N 
ATOM     21  O   UNL     1       5.593   4.377  13.935  0.00  0.00    +0.000 OA
ATOM     22  H   UNL     1       7.592   5.726  13.522  0.00  0.00    +0.000 HD
ATOM     23  H   UNL     1       8.184   5.754  15.154  0.00  0.00    +0.000 HD
ENDBRANCH   7  19
TORSDOF 3
ENDMDL
MODEL 2
REMARK VINA RESULT:      -7.5      1.087      1.177
REMARK  Name = 
REMARK  4 active torsions:
REMARK  status: ('A' for Active; 'I' for Inactive)
REMARK    1  A    between atoms: C_1  and  C_2
REMARK    2  A    between atoms: C_5  and  C_6
REMARK    3  A    between atoms: C_9  and  C_11
REMARK    4  A    between atoms: C_17  and  C_18
REMARK                            x       y       z     vdW  Elec       q    Type
REMARK                         _______ _______ _______ _____ _____    ______ ____
ROOT
ATOM      1  C   UNL     1       5.923   5.652  17.045  0.00  0.00    +0.000 C 
ATOM      2  C   UNL     1       5.222   4.941  18.195  0.00  0.00    +0.000 C 
ATOM      3  N   UNL     1       4.801   3.684  17.605  0.00  0.00    +0.000 N 
ATOM      4  C   UNL     1       3.699   2.910  17.937  0.00  0.00    +0.000 C 
ATOM      5  O   UNL     1       3.381   1.929  17.266  0.00  0.00    +0.000 OA
ATOM      6  C   UNL     1       5.657   3.326  16.489  0.00  0.00    +0.000 C 
ATOM      7  C   UNL     1       6.623   4.500  16.313  0.00  0.00    +0.000 C 
ENDROOT
BRANCH   1  12
ATOM      8  C   UNL     1       8.530   9.760  17.858  0.00  0.00    +0.000 C 
ATOM      9  C   UNL     1       8.012   8.383  17.931  0.00  0.00    +0.000 A 
ATOM     10  N   UNL     1       8.492   7.473  18.787  0.00  0.00    +0.000 NA
ATOM     11  O   UNL     1       7.710   6.346  18.524  0.00  0.00    +0.000 OA
ATOM     12  C   UNL     1       6.844   6.700  17.529  0.00  0.00    +0.000 A 
ATOM     13  N   UNL     1       6.992   7.942  17.125  0.00  0.00    +0.000 NA
ENDBRANCH   1  12
BRANCH   4  14
ATOM     14  C   UNL     1       2.894   3.324  19.102  0.00  0.00    +0.000 A 
ATOM     15  C   UNL     1       1.783   4.144  18.994  0.00  0.00    +0.000 A 
ATOM     16  S   UNL     1       1.098   4.439  20.537  0.00  0.00    +0.000 S 
ATOM     17  C   UNL     1       2.302   3.443  21.241  0.00  0.00    +0.000 A 
ATOM     18  N   UNL     1       3.171   2.912  20.409  0.00  0.00    +0.000 NA
ENDBRANCH   4  14
BRANCH   7  19
ATOM     19  C   UNL     1       6.845   4.823  14.852  0.00  0.00    +0.000 C 
ATOM     20  N   UNL     1       5.980   4.238  13.977  0.00  0.00    +0.000 N 
ATOM     21  O   UNL     1       7.754   5.533  14.440  0.00  0.00    +0.000 OA
ATOM     22  H   UNL     1       6.114   4.438  12.993  0.00  0.00    +0.000 HD
ATOM     23  H   UNL     1       5.198   3.658  14.244  0.00  0.00    +0.000 HD
ENDBRANCH   7  19
TORSDOF 3
ENDMDL
MODEL 3
REMARK VINA RESULT:      -7.1      2.074      3.991
REMARK  Name = 
REMARK  4 active torsions:
REMARK  status: ('A' for Active; 'I' for Inactive)
REMARK    1  A    between atoms: C_1  and  C_2
REMARK    2  A    between atoms: C_5  and  C_6
REMARK    3  A    between atoms: C_9  and  C_11
REMARK    4  A    between atoms: C_17  and  C_18
REMARK                            x       y       z     vdW  Elec       q    Type
REMARK                         _______ _______ _______ _____ _____    ______ ____
ROOT
ATOM      1  C   UNL     1       6.010   5.269  16.826  0.00  0.00    +0.000 C 
ATOM      2  C   UNL     1       4.593   4.793  17.113  0.00  0.00    +0.000 C 
ATOM      3  N   UNL     1       4.195   5.590  18.259  0.00  0.00    +0.000 N 
ATOM      4  C   UNL     1       3.312   5.251  19.272  0.00  0.00    +0.000 C 
ATOM      5  O   UNL     1       3.166   5.970  20.260  0.00  0.00    +0.000 OA
ATOM      6  C   UNL     1       4.932   6.841  18.296  0.00  0.00    +0.000 C 
ATOM      7  C   UNL     1       5.931   6.769  17.139  0.00  0.00    +0.000 C 
ENDROOT
BRANCH   1  12
ATOM      8  C   UNL     1       6.528   3.553  12.230  0.00  0.00    +0.000 C 
ATOM      9  C   UNL     1       6.733   4.286  13.492  0.00  0.00    +0.000 A 
ATOM     10  N   UNL     1       7.745   5.141  13.677  0.00  0.00    +0.000 NA
ATOM     11  O   UNL     1       7.537   5.604  14.978  0.00  0.00    +0.000 OA
ATOM     12  C   UNL     1       6.420   4.968  15.440  0.00  0.00    +0.000 A 
ATOM     13  N   UNL     1       5.890   4.143  14.566  0.00  0.00    +0.000 NA
ENDBRANCH   1  12
BRANCH   4  14
ATOM     14  C   UNL     1       2.581   3.976  19.149  0.00  0.00    +0.000 A 
ATOM     15  C   UNL     1       1.304   3.889  18.621  0.00  0.00    +0.000 A 
ATOM     16  S   UNL     1       0.749   2.268  18.642  0.00  0.00    +0.000 S 
ATOM     17  C   UNL     1       2.246   1.785  19.325  0.00  0.00    +0.000 A 
ATOM     18  N   UNL     1       3.120   2.744  19.536  0.00  0.00    +0.000 NA
ENDBRANCH   4  14
BRANCH   7  19
ATOM     19  C   UNL     1       7.281   7.326  17.535  0.00  0.00    +0.000 C 
ATOM     20  N   UNL     1       7.943   6.641  18.508  0.00  0.00    +0.000 N 
ATOM     21  O   UNL     1       7.765   8.345  17.059  0.00  0.00    +0.000 OA
ATOM     22  H   UNL     1       8.847   7.000  18.791  0.00  0.00    +0.000 HD
ATOM     23  H   UNL     1       7.615   5.785  18.932  0.00  0.00    +0.000 HD
ENDBRANCH   7  19
TORSDOF 3
ENDMDL
MODEL 4
REMARK VINA RESULT:      -6.8      3.340      4.797
REMARK  Name = 
REMARK  4 active torsions:
REMARK  status: ('A' for Active; 'I' for Inactive)
REMARK    1  A    between atoms: C_1  and  C_2
REMARK    2  A    between atoms: C_5  and  C_6
REMARK    3  A    between atoms: C_9  and  C_11
REMARK    4  A    between atoms: C_17  and  C_18
REMARK                            x       y       z     vdW  Elec       q    Type
REMARK                         _______ _______ _______ _____ _____    ______ ____
ROOT
ATOM      1  C   UNL     1       4.180   4.788  17.720  0.00  0.00    +0.000 C 
ATOM      2  C   UNL     1       3.865   6.194  18.211  0.00  0.00    +0.000 C 
ATOM      3  N   UNL     1       3.120   5.965  19.434  0.00  0.00    +0.000 N 
ATOM      4  C   UNL     1       2.133   6.759  19.996  0.00  0.00    +0.000 C 
ATOM      5  O   UNL     1       1.485   6.379  20.971  0.00  0.00    +0.000 OA
ATOM      6  C   UNL     1       3.470   4.682  20.017  0.00  0.00    +0.000 C 
ATOM      7  C   UNL     1       4.434   4.024  19.027  0.00  0.00    +0.000 C 
ENDROOT
BRANCH   1  12
ATOM      8  C   UNL     1       7.215   4.771  13.831  0.00  0.00    +0.000 C 
ATOM      9  C   UNL     1       6.687   4.741  15.206  0.00  0.00    +0.000 A 
ATOM     10  N   UNL     1       7.476   4.643  16.283  0.00  0.00    +0.000 NA
ATOM     11  O   UNL     1       6.569   4.670  17.345  0.00  0.00    +0.000 OA
ATOM     12  C   UNL     1       5.326   4.775  16.788  0.00  0.00    +0.000 A 
ATOM     13  N   UNL     1       5.343   4.818  15.475  0.00  0.00    +0.000 NA
ENDBRANCH   1  12
BRANCH   4  14
ATOM     14  C   UNL     1       1.854   8.061  19.362  0.00  0.00    +0.000 A 
ATOM     15  C   UNL     1       1.179   9.083  20.008  0.00  0.00    +0.000 A 
ATOM     16  S   UNL     1       1.013  10.443  18.978  0.00  0.00    +0.000 S 
ATOM     17  C   UNL     1       1.867   9.598  17.756  0.00  0.00    +0.000 A 
ATOM     18  N   UNL     1       2.261   8.382  18.063  0.00  0.00    +0.000 NA
ENDBRANCH   4  14
BRANCH   7  19
ATOM     19  C   UNL     1       4.149   2.547  18.871  0.00  0.00    +0.000 C 
ATOM     20  N   UNL     1       4.886   1.714  19.658  0.00  0.00    +0.000 N 
ATOM     21  O   UNL     1       3.340   2.087  18.074  0.00  0.00    +0.000 OA
ATOM     22  H   UNL     1       4.714   0.720  19.566  0.00  0.00    +0.000 HD
ATOM     23  H   UNL     1       5.556   2.021  20.349  0.00  0.00    +0.000 HD
ENDBRANCH   7  19
TORSDOF 3
ENDMDL
MODEL 5
REMARK VINA RESULT:      -6.4      1.925      3.811
REMARK  Name = 
REMARK  4 active torsions:
REMARK  status: ('A' for Active; 'I' for Inactive)
REMARK    1  A    between atoms: C_1  and  C_2
REMARK    2  A    between atoms: C_5  and  C_6
REMARK    3  A    between atoms: C_9  and  C_11
REMARK    4  A    between atoms: C_17  and  C_18
REMARK                            x       y       z     vdW  Elec       q    Type
REMARK                         _______ _______ _______ _____ _____    ______ ____
ROOT
ATOM      1  C   UNL     1       5.969   5.245  16.852  0.00  0.00    +0.000 C 
ATOM      2  C   UNL     1       4.539   4.806  17.133  0.00  0.00    +0.000 C 
ATOM      3  N   UNL     1       4.150   5.629  18.263  0.00  0.00    +0.000 N 
ATOM      4  C   UNL     1       3.251   5.324  19.274  0.00  0.00    +0.000 C 
ATOM      5  O   UNL     1       3.113   6.061  20.249  0.00  0.00    +0.000 OA
ATOM      6  C   UNL     1       4.915   6.862  18.290  0.00  0.00    +0.000 C 
ATOM      7  C   UNL     1       5.923   6.751  17.143  0.00  0.00    +0.000 C 
ENDROOT
BRANCH   1  12
ATOM      8  C   UNL     1       7.946   5.079  12.335  0.00  0.00    +0.000 C 
ATOM      9  C   UNL     1       7.151   4.772  13.537  0.00  0.00    +0.000 A 
ATOM     10  N   UNL     1       6.322   3.724  13.610  0.00  0.00    +0.000 NA
ATOM     11  O   UNL     1       5.810   3.814  14.907  0.00  0.00    +0.000 OA
ATOM     12  C   UNL     1       6.384   4.915  15.474  0.00  0.00    +0.000 A 
ATOM     13  N   UNL     1       7.214   5.543  14.672  0.00  0.00    +0.000 NA
ENDBRANCH   1  12
BRANCH   4  14
ATOM     14  C   UNL     1       2.491   4.065  19.161  0.00  0.00    +0.000 A 
ATOM     15  C   UNL     1       2.918   2.876  19.729  0.00  0.00    +0.000 A 
ATOM     16  S   UNL     1       1.810   1.613  19.391  0.00  0.00    +0.000 S 
ATOM     17  C   UNL     1       0.828   2.728  18.536  0.00  0.00    +0.000 A 
ATOM     18  N   UNL     1       1.269   3.966  18.488  0.00  0.00    +0.000 NA
ENDBRANCH   4  14
BRANCH   7  19
ATOM     19  C   UNL     1       7.281   7.282  17.543  0.00  0.00    +0.000 C 
ATOM     20  N   UNL     1       7.904   6.617  18.556  0.00  0.00    +0.000 N 
ATOM     21  O   UNL     1       7.807   8.266  17.036  0.00  0.00    +0.000 OA
ATOM     22  H   UNL     1       8.813   6.959  18.843  0.00  0.00    +0.000 HD
ATOM     23  H   UNL     1       7.541   5.789  19.008  0.00  0.00    +0.000 HD
ENDBRANCH   7  19
TORSDOF 3
ENDMDL
MODEL 6
REMARK VINA RESULT:      -6.2      3.207      6.308
REMARK  Name = 
REMARK  4 active torsions:
REMARK  status: ('A' for Active; 'I' for Inactive)
REMARK    1  A    between atoms: C_1  and  C_2
REMARK    2  A    between atoms: C_5  and  C_6
REMARK    3  A    between atoms: C_9  and  C_11
REMARK    4  A    between atoms: C_17  and  C_18
REMARK                            x       y       z     vdW  Elec       q    Type
REMARK                         _______ _______ _______ _____ _____    ______ ____
ROOT
ATOM      1  C   UNL     1       5.593   4.642  16.554  0.00  0.00    +0.000 C 
ATOM      2  C   UNL     1       5.720   3.750  15.327  0.00  0.00    +0.000 C 
ATOM      3  N   UNL     1       6.789   4.371  14.568  0.00  0.00    +0.000 N 
ATOM      4  C   UNL     1       6.970   4.377  13.193  0.00  0.00    +0.000 C 
ATOM      5  O   UNL     1       7.850   5.058  12.668  0.00  0.00    +0.000 OA
ATOM      6  C   UNL     1       7.674   5.120  15.442  0.00  0.00    +0.000 C 
ATOM      7  C   UNL     1       7.050   5.035  16.837  0.00  0.00    +0.000 C 
ENDROOT
BRANCH   1  12
ATOM      8  C   UNL     1       2.506   2.329  19.629  0.00  0.00    +0.000 C 
ATOM      9  C   UNL     1       3.695   2.981  19.052  0.00  0.00    +0.000 A 
ATOM     10  N   UNL     1       4.843   3.118  19.726  0.00  0.00    +0.000 NA
ATOM     11  O   UNL     1       5.677   3.759  18.806  0.00  0.00    +0.000 OA
ATOM     12  C   UNL     1       4.934   3.944  17.675  0.00  0.00    +0.000 A 
ATOM     13  N   UNL     1       3.706   3.487  17.776  0.00  0.00    +0.000 NA
ENDBRANCH   1  12
BRANCH   4  14
ATOM     14  C   UNL     1       6.046   3.570  12.374  0.00  0.00    +0.000 A 
ATOM     15  C   UNL     1       4.784   4.009  12.012  0.00  0.00    +0.000 A 
ATOM     16  S   UNL     1       3.975   2.819  11.080  0.00  0.00    +0.000 S 
ATOM     17  C   UNL     1       5.359   1.814  11.197  0.00  0.00    +0.000 A 
ATOM     18  N   UNL     1       6.371   2.303  11.879  0.00  0.00    +0.000 NA
ENDBRANCH   4  14
BRANCH   7  19
ATOM     19  C   UNL     1       7.137   6.356  17.566  0.00  0.00    +0.000 C 
ATOM     20  N   UNL     1       7.596   6.298  18.848  0.00  0.00    +0.000 N 
ATOM     21  O   UNL     1       6.793   7.428  17.082  0.00  0.00    +0.000 OA
ATOM     22  H   UNL     1       7.658   7.172  19.356  0.00  0.00    +0.000 HD
ATOM     23  H   UNL     1       7.914   5.455  19.305  0.00  0.00    +0.000 HD
ENDBRANCH   7  19
TORSDOF 3
ENDMDL
MODEL 7
REMARK VINA RESULT:      -6.2      3.800      5.930
REMARK  Name = 
REMARK  4 active torsions:
REMARK  status: ('A' for Active; 'I' for Inactive)
REMARK    1  A    between atoms: C_1  and  C_2
REMARK    2  A    between atoms: C_5  and  C_6
REMARK    3  A    between atoms: C_9  and  C_11
REMARK    4  A    between atoms: C_17  and  C_18
REMARK                            x       y       z     vdW  Elec       q    Type
REMARK                         _______ _______ _______ _____ _____    ______ ____
ROOT
ATOM      1  C   UNL     1       2.976   6.204  18.691  0.00  0.00    +0.000 C 
ATOM      2  C   UNL     1       3.659   5.801  17.392  0.00  0.00    +0.000 C 
ATOM      3  N   UNL     1       3.662   4.351  17.448  0.00  0.00    +0.000 N 
ATOM      4  C   UNL     1       4.581   3.475  16.892  0.00  0.00    +0.000 C 
ATOM      5  O   UNL     1       4.538   2.268  17.129  0.00  0.00    +0.000 OA
ATOM      6  C   UNL     1       2.576   3.866  18.281  0.00  0.00    +0.000 C 
ATOM      7  C   UNL     1       1.908   5.115  18.862  0.00  0.00    +0.000 C 
ENDROOT
BRANCH   1  12
ATOM      8  C   UNL     1       0.790  10.554  19.486  0.00  0.00    +0.000 C 
ATOM      9  C   UNL     1       1.510   9.433  18.857  0.00  0.00    +0.000 A 
ATOM     10  N   UNL     1       1.962   9.478  17.598  0.00  0.00    +0.000 NA
ATOM     11  O   UNL     1       2.581   8.236  17.438  0.00  0.00    +0.000 OA
ATOM     12  C   UNL     1       2.428   7.573  18.622  0.00  0.00    +0.000 A 
ATOM     13  N   UNL     1       1.772   8.264  19.527  0.00  0.00    +0.000 NA
ENDBRANCH   1  12
BRANCH   4  14
ATOM     14  C   UNL     1       5.640   4.041  16.035  0.00  0.00    +0.000 A 
ATOM     15  C   UNL     1       5.533   4.113  14.657  0.00  0.00    +0.000 A 
ATOM     16  S   UNL     1       6.945   4.808  13.977  0.00  0.00    +0.000 S 
ATOM     17  C   UNL     1       7.591   4.990  15.554  0.00  0.00    +0.000 A 
ATOM     18  N   UNL     1       6.831   4.570  16.541  0.00  0.00    +0.000 NA
ENDBRANCH   4  14
BRANCH   7  19
ATOM     19  C   UNL     1       1.539   4.922  20.316  0.00  0.00    +0.000 C 
ATOM     20  N   UNL     1       2.267   5.643  21.214  0.00  0.00    +0.000 N 
ATOM     21  O   UNL     1       0.671   4.150  20.704  0.00  0.00    +0.000 OA
ATOM     22  H   UNL     1       2.040   5.525  22.194  0.00  0.00    +0.000 HD
ATOM     23  H   UNL     1       2.984   6.311  20.968  0.00  0.00    +0.000 HD
ENDBRANCH   7  19
TORSDOF 3
ENDMDL
MODEL 8
REMARK VINA RESULT:      -6.2      3.594      6.783
REMARK  Name = 
REMARK  4 active torsions:
REMARK  status: ('A' for Active; 'I' for Inactive)
REMARK    1  A    between atoms: C_1  and  C_2
REMARK    2  A    between atoms: C_5  and  C_6
REMARK    3  A    between atoms: C_9  and  C_11
REMARK    4  A    between atoms: C_17  and  C_18
REMARK                            x       y       z     vdW  Elec       q    Type
REMARK                         _______ _______ _______ _____ _____    ______ ____
ROOT
ATOM      1  C   UNL     1       4.058   2.370  19.758  0.00  0.00    +0.000 C 
ATOM      2  C   UNL     1       4.917   3.324  18.940  0.00  0.00    +0.000 C 
ATOM      3  N   UNL     1       4.060   4.481  18.762  0.00  0.00    +0.000 N 
ATOM      4  C   UNL     1       4.041   5.377  17.705  0.00  0.00    +0.000 C 
ATOM      5  O   UNL     1       3.169   6.241  17.614  0.00  0.00    +0.000 OA
ATOM      6  C   UNL     1       3.087   4.572  19.836  0.00  0.00    +0.000 C 
ATOM      7  C   UNL     1       3.297   3.320  20.693  0.00  0.00    +0.000 C 
ENDROOT
BRANCH   1  12
ATOM      8  C   UNL     1       6.556  -1.619  21.236  0.00  0.00    +0.000 C 
ATOM      9  C   UNL     1       5.938  -0.282  21.185  0.00  0.00    +0.000 A 
ATOM     10  N   UNL     1       6.043   0.603  22.184  0.00  0.00    +0.000 NA
ATOM     11  O   UNL     1       5.336   1.708  21.704  0.00  0.00    +0.000 OA
ATOM     12  C   UNL     1       4.875   1.364  20.465  0.00  0.00    +0.000 A 
ATOM     13  N   UNL     1       5.214   0.148  20.101  0.00  0.00    +0.000 NA
ENDBRANCH   1  12
BRANCH   4  14
ATOM     14  C   UNL     1       5.079   5.237  16.666  0.00  0.00    +0.000 A 
ATOM     15  C   UNL     1       4.905   4.467  15.528  0.00  0.00    +0.000 A 
ATOM     16  S   UNL     1       6.310   4.511  14.548  0.00  0.00    +0.000 S 
ATOM     17  C   UNL     1       7.045   5.566  15.682  0.00  0.00    +0.000 A 
ATOM     18  N   UNL     1       6.319   5.881  16.731  0.00  0.00    +0.000 NA
ENDBRANCH   4  14
BRANCH   7  19
ATOM     19  C   UNL     1       1.979   2.724  21.137  0.00  0.00    +0.000 C 
ATOM     20  N   UNL     1       0.939   2.870  20.270  0.00  0.00    +0.000 N 
ATOM     21  O   UNL     1       1.810   2.170  22.217  0.00  0.00    +0.000 OA
ATOM     22  H   UNL     1       0.046   2.482  20.550  0.00  0.00    +0.000 HD
ATOM     23  H   UNL     1       1.008   3.298  19.357  0.00  0.00    +0.000 HD
ENDBRANCH   7  19
TORSDOF 3
ENDMDL
MODEL 9
REMARK VINA RESULT:      -6.1      4.504      6.208
REMARK  Name = 
REMARK  4 active torsions:
REMARK  status: ('A' for Active; 'I' for Inactive)
REMARK    1  A    between atoms: C_1  and  C_2
REMARK    2  A    between atoms: C_5  and  C_6
REMARK    3  A    between atoms: C_9  and  C_11
REMARK    4  A    between atoms: C_17  and  C_18
REMARK                            x       y       z     vdW  Elec       q    Type
REMARK                         _______ _______ _______ _____ _____    ______ ____
ROOT
ATOM      1  C   UNL     1       2.543   6.310  19.011  0.00  0.00    +0.000 C 
ATOM      2  C   UNL     1       2.360   7.685  19.638  0.00  0.00    +0.000 C 
ATOM      3  N   UNL     1       1.316   7.470  20.622  0.00  0.00    +0.000 N 
ATOM      4  C   UNL     1       0.369   8.375  21.078  0.00  0.00    +0.000 C 
ATOM      5  O   UNL     1      -0.547   8.023  21.820  0.00  0.00    +0.000 OA
ATOM      6  C   UNL     1       1.296   6.085  21.058  0.00  0.00    +0.000 C 
ATOM      7  C   UNL     1       2.345   5.367  20.206  0.00  0.00    +0.000 C 
ENDROOT
BRANCH   1  12
ATOM      8  C   UNL     1       7.208   5.317  17.750  0.00  0.00    +0.000 C 
ATOM      9  C   UNL     1       5.825   5.825  17.746  0.00  0.00    +0.000 A 
ATOM     10  N   UNL     1       5.329   6.566  16.748  0.00  0.00    +0.000 NA
ATOM     11  O   UNL     1       4.012   6.799  17.151  0.00  0.00    +0.000 OA
ATOM     12  C   UNL     1       3.860   6.176  18.356  0.00  0.00    +0.000 A 
ATOM     13  N   UNL     1       4.947   5.566  18.770  0.00  0.00    +0.000 NA
ENDBRANCH   1  12
BRANCH   4  14
ATOM     14  C   UNL     1       0.473   9.770  20.611  0.00  0.00    +0.000 A 
ATOM     15  C   UNL     1      -0.081  10.208  19.420  0.00  0.00    +0.000 A 
ATOM     16  S   UNL     1       0.241  11.873  19.178  0.00  0.00    +0.000 S 
ATOM     17  C   UNL     1       1.070  11.910  20.678  0.00  0.00    +0.000 A 
ATOM     18  N   UNL     1       1.121  10.774  21.337  0.00  0.00    +0.000 NA
ENDBRANCH   4  14
BRANCH   7  19
ATOM     19  C   UNL     1       1.863   4.003  19.763  0.00  0.00    +0.000 C 
ATOM     20  N   UNL     1       0.619   3.647  20.188  0.00  0.00    +0.000 N 
ATOM     21  O   UNL     1       2.533   3.226  19.094  0.00  0.00    +0.000 OA
ATOM     22  H   UNL     1       0.278   2.735  19.906  0.00  0.00    +0.000 HD
ATOM     23  H   UNL     1       0.003   4.242  20.725  0.00  0.00    +0.000 HD
ENDBRANCH   7  19
TORSDOF 3
ENDMDL
