MODEL 1
REMARK VINA RESULT:      -8.8      0.000      0.000
REMARK  Name = 
REMARK  9 active torsions:
REMARK  status: ('A' for Active; 'I' for Inactive)
REMARK    1  A    between atoms: C_2  and  C_3
REMARK    2  A    between atoms: C_6  and  N_7
REMARK    3  A    between atoms: N_7  and  C_8
REMARK    4  A    between atoms: N_7  and  C_20
REMARK    5  A    between atoms: C_8  and  C_9
REMARK    6  A    between atoms: N_11  and  C_12
REMARK    7  A    between atoms: C_12  and  C_13
REMARK    8  A    between atoms: C_13  and  C_14
REMARK    9  A    between atoms: C_20  and  C_21
REMARK                            x       y       z     vdW  Elec       q    Type
REMARK                         _______ _______ _______ _____ _____    ______ ____
ROOT
ATOM      1  N   UNL     1       6.439   5.019  17.873  0.00  0.00    +0.000 N 
ENDROOT
BRANCH   1   5
ATOM      2  C   UNL     1       3.219   3.522  20.213  0.00  0.00    +0.000 A 
ATOM      3  C   UNL     1       4.254   2.711  19.776  0.00  0.00    +0.000 A 
ATOM      4  C   UNL     1       5.252   3.215  18.953  0.00  0.00    +0.000 A 
ATOM      5  C   UNL     1       5.279   4.555  18.526  0.00  0.00    +0.000 A 
ATOM      6  C   UNL     1       4.085   5.346  18.828  0.00  0.00    +0.000 A 
ATOM      7  C   UNL     1       3.769   6.638  18.337  0.00  0.00    +0.000 A 
ATOM      8  C   UNL     1       2.689   7.409  18.807  0.00  0.00    +0.000 A 
ATOM      9  C   UNL     1       1.773   6.872  19.682  0.00  0.00    +0.000 A 
ATOM     10  C   UNL     1       1.929   5.556  20.050  0.00  0.00    +0.000 A 
ATOM     11  C   UNL     1       3.078   4.806  19.689  0.00  0.00    +0.000 A 
BRANCH   2  13
ATOM     12  N   UNL     1       1.521   2.763  22.033  0.00  0.00    +0.000 NA
ATOM     13  C   UNL     1       2.324   3.086  21.242  0.00  0.00    +0.000 C 
ENDBRANCH   2  13
ENDBRANCH   1   5
BRANCH   1  14
ATOM     14  C   UNL     1       7.445   5.876  18.552  0.00  0.00    +0.000 C 
BRANCH  14  15
ATOM     15  C   UNL     1       7.647   7.301  17.992  0.00  0.00    +0.000 C 
ATOM     16  O   UNL     1       7.001   7.724  17.035  0.00  0.00    +0.000 OA
ATOM     17  N   UNL     1       8.512   8.097  18.729  0.00  0.00    +0.000 N 
ATOM     18  H   UNL     1       9.277   7.589  19.161  0.00  0.00    +0.000 HD
BRANCH  17  19
ATOM     19  C   UNL     1       8.770   9.508  18.422  0.00  0.00    +0.000 C 
BRANCH  19  20
ATOM     20  C   UNL     1       9.376  10.346  19.564  0.00  0.00    +0.000 C 
BRANCH  20  21
ATOM     21  C   UNL     1      10.422  11.329  19.065  0.00  0.00    +0.000 A 
ATOM     22  C   UNL     1      10.482  11.676  17.708  0.00  0.00    +0.000 A 
ATOM     23  C   UNL     1      11.431  12.595  17.245  0.00  0.00    +0.000 A 
ATOM     24  C   UNL     1      12.333  13.176  18.133  0.00  0.00    +0.000 A 
ATOM     25  C   UNL     1      12.296  12.827  19.481  0.00  0.00    +0.000 A 
ATOM     26  C   UNL     1      11.349  11.906  19.944  0.00  0.00    +0.000 A 
ENDBRANCH  20  21
ENDBRANCH  19  20
ENDBRANCH  17  19
ENDBRANCH  14  15
ENDBRANCH   1  14
BRANCH   1  27
ATOM     27  C   UNL     1       6.983   4.323  16.664  0.00  0.00    +0.000 C 
BRANCH  27  28
ATOM     28  C   UNL     1       5.910   4.137  15.612  0.00  0.00    +0.000 C 
ATOM     29  C   UNL     1       5.463   5.337  14.817  0.00  0.00    +0.000 C 
ATOM     30  C   UNL     1       6.155   4.205  14.118  0.00  0.00    +0.000 C 
ENDBRANCH  27  28
ENDBRANCH   1  27
TORSDOF 9
ENDMDL
MODEL 2
REMARK VINA RESULT:      -8.4      0.692      1.148
REMARK  Name = 
REMARK  9 active torsions:
REMARK  status: ('A' for Active; 'I' for Inactive)
REMARK    1  A    between atoms: C_2  and  C_3
REMARK    2  A    between atoms: C_6  and  N_7
REMARK    3  A    between atoms: N_7  and  C_8
REMARK    4  A    between atoms: N_7  and  C_20
REMARK    5  A    between atoms: C_8  and  C_9
REMARK    6  A    between atoms: N_11  and  C_12
REMARK    7  A    between atoms: C_12  and  C_13
REMARK    8  A    between atoms: C_13  and  C_14
REMARK    9  A    between atoms: C_20  and  C_21
REMARK                            x       y       z     vdW  Elec       q    Type
REMARK                         _______ _______ _______ _____ _____    ______ ____
ROOT
ATOM      1  N   UNL     1       6.118   4.579  17.367  0.00  0.00    +0.000 N 
ENDROOT
BRANCH   1   5
ATOM      2  C   UNL     1       3.096   3.453  20.140  0.00  0.00    +0.000 A 
ATOM      3  C   UNL     1       3.983   2.535  19.600  0.00  0.00    +0.000 A 
ATOM      4  C   UNL     1       4.910   2.923  18.642  0.00  0.00    +0.000 A 
ATOM      5  C   UNL     1       5.012   4.245  18.176  0.00  0.00    +0.000 A 
ATOM      6  C   UNL     1       3.950   5.157  18.603  0.00  0.00    +0.000 A 
ATOM      7  C   UNL     1       3.700   6.465  18.117  0.00  0.00    +0.000 A 
ATOM      8  C   UNL     1       2.769   7.348  18.698  0.00  0.00    +0.000 A 
ATOM      9  C   UNL     1       1.926   6.920  19.698  0.00  0.00    +0.000 A 
ATOM     10  C   UNL     1       2.000   5.602  20.081  0.00  0.00    +0.000 A 
ATOM     11  C   UNL     1       3.015   4.735  19.600  0.00  0.00    +0.000 A 
BRANCH   2  13
ATOM     12  N   UNL     1       1.645   2.948  22.240  0.00  0.00    +0.000 NA
ATOM     13  C   UNL     1       2.303   3.125  21.286  0.00  0.00    +0.000 C 
ENDBRANCH   2  13
ENDBRANCH   1   5
BRANCH   1  14
ATOM     14  C   UNL     1       7.278   5.350  17.886  0.00  0.00    +0.000 C 
BRANCH  14  15
ATOM     15  C   UNL     1       7.345   6.849  17.520  0.00  0.00    +0.000 C 
ATOM     16  O   UNL     1       6.595   7.352  16.687  0.00  0.00    +0.000 OA
ATOM     17  N   UNL     1       8.223   7.596  18.292  0.00  0.00    +0.000 N 
ATOM     18  H   UNL     1       9.052   7.088  18.586  0.00  0.00    +0.000 HD
BRANCH  17  19
ATOM     19  C   UNL     1       8.371   9.050  18.171  0.00  0.00    +0.000 C 
BRANCH  19  20
ATOM     20  C   UNL     1       9.024   9.764  19.369  0.00  0.00    +0.000 C 
BRANCH  20  21
ATOM     21  C   UNL     1       9.775  11.018  18.953  0.00  0.00    +0.000 A 
ATOM     22  C   UNL     1      10.881  11.463  19.693  0.00  0.00    +0.000 A 
ATOM     23  C   UNL     1      11.588  12.607  19.304  0.00  0.00    +0.000 A 
ATOM     24  C   UNL     1      11.197  13.320  18.173  0.00  0.00    +0.000 A 
ATOM     25  C   UNL     1      10.091  12.899  17.440  0.00  0.00    +0.000 A 
ATOM     26  C   UNL     1       9.381  11.757  17.829  0.00  0.00    +0.000 A 
ENDBRANCH  20  21
ENDBRANCH  19  20
ENDBRANCH  17  19
ENDBRANCH  14  15
ENDBRANCH   1  14
BRANCH   1  27
ATOM     27  C   UNL     1       6.435   3.807  16.125  0.00  0.00    +0.000 C 
BRANCH  27  28
ATOM     28  C   UNL     1       6.017   4.569  14.885  0.00  0.00    +0.000 C 
ATOM     29  C   UNL     1       7.062   4.887  13.846  0.00  0.00    +0.000 C 
ATOM     30  C   UNL     1       5.930   3.967  13.497  0.00  0.00    +0.000 C 
ENDBRANCH  27  28
ENDBRANCH   1  27
TORSDOF 9
ENDMDL
MODEL 3
REMARK VINA RESULT:      -8.3      1.109      1.678
REMARK  Name = 
REMARK  9 active torsions:
REMARK  status: ('A' for Active; 'I' for Inactive)
REMARK    1  A    between atoms: C_2  and  C_3
REMARK    2  A    between atoms: C_6  and  N_7
REMARK    3  A    between atoms: N_7  and  C_8
REMARK    4  A    between atoms: N_7  and  C_20
REMARK    5  A    between atoms: C_8  and  C_9
REMARK    6  A    between atoms: N_11  and  C_12
REMARK    7  A    between atoms: C_12  and  C_13
REMARK    8  A    between atoms: C_13  and  C_14
REMARK    9  A    between atoms: C_20  and  C_21
REMARK                            x       y       z     vdW  Elec       q    Type
REMARK                         _______ _______ _______ _____ _____    ______ ____
ROOT
ATOM      1  N   UNL     1       5.862   5.623  16.409  0.00  0.00    +0.000 N 
ENDROOT
BRANCH   1   5
ATOM      2  C   UNL     1       3.357   4.298  19.581  0.00  0.00    +0.000 A 
ATOM      3  C   UNL     1       4.200   3.437  18.895  0.00  0.00    +0.000 A 
ATOM      4  C   UNL     1       4.950   3.887  17.818  0.00  0.00    +0.000 A 
ATOM      5  C   UNL     1       4.910   5.218  17.368  0.00  0.00    +0.000 A 
ATOM      6  C   UNL     1       3.878   6.065  17.967  0.00  0.00    +0.000 A 
ATOM      7  C   UNL     1       3.488   7.363  17.551  0.00  0.00    +0.000 A 
ATOM      8  C   UNL     1       2.610   8.186  18.281  0.00  0.00    +0.000 A 
ATOM      9  C   UNL     1       1.951   7.700  19.388  0.00  0.00    +0.000 A 
ATOM     10  C   UNL     1       2.152   6.384  19.730  0.00  0.00    +0.000 A 
ATOM     11  C   UNL     1       3.127   5.580  19.084  0.00  0.00    +0.000 A 
BRANCH   2  13
ATOM     12  N   UNL     1       2.206   3.569  21.797  0.00  0.00    +0.000 NA
ATOM     13  C   UNL     1       2.765   3.913  20.826  0.00  0.00    +0.000 C 
ENDBRANCH   2  13
ENDBRANCH   1   5
BRANCH   1  14
ATOM     14  C   UNL     1       7.312   5.718  16.720  0.00  0.00    +0.000 C 
BRANCH  14  15
ATOM     15  C   UNL     1       7.731   6.719  17.819  0.00  0.00    +0.000 C 
ATOM     16  O   UNL     1       8.139   6.349  18.918  0.00  0.00    +0.000 OA
ATOM     17  N   UNL     1       7.728   8.049  17.424  0.00  0.00    +0.000 N 
ATOM     18  H   UNL     1       7.006   8.280  16.749  0.00  0.00    +0.000 HD
BRANCH  17  19
ATOM     19  C   UNL     1       8.179   9.149  18.284  0.00  0.00    +0.000 C 
BRANCH  19  20
ATOM     20  C   UNL     1       8.862  10.328  17.567  0.00  0.00    +0.000 C 
BRANCH  20  21
ATOM     21  C   UNL     1       9.859  11.047  18.462  0.00  0.00    +0.000 A 
ATOM     22  C   UNL     1       9.643  11.129  19.846  0.00  0.00    +0.000 A 
ATOM     23  C   UNL     1      10.567  11.773  20.678  0.00  0.00    +0.000 A 
ATOM     24  C   UNL     1      11.716  12.345  20.136  0.00  0.00    +0.000 A 
ATOM     25  C   UNL     1      11.933  12.286  18.762  0.00  0.00    +0.000 A 
ATOM     26  C   UNL     1      11.009  11.645  17.928  0.00  0.00    +0.000 A 
ENDBRANCH  20  21
ENDBRANCH  19  20
ENDBRANCH  17  19
ENDBRANCH  14  15
ENDBRANCH   1  14
BRANCH   1  27
ATOM     27  C   UNL     1       5.582   5.518  14.942  0.00  0.00    +0.000 C 
BRANCH  27  28
ATOM     28  C   UNL     1       6.560   4.581  14.265  0.00  0.00    +0.000 C 
ATOM     29  C   UNL     1       6.021   3.536  13.321  0.00  0.00    +0.000 C 
ATOM     30  C   UNL     1       6.906   4.624  12.790  0.00  0.00    +0.000 C 
ENDBRANCH  27  28
ENDBRANCH   1  27
TORSDOF 9
ENDMDL
MODEL 4
REMARK VINA RESULT:      -8.2      1.218      1.386
REMARK  Name = 
REMARK  9 active torsions:
REMARK  status: ('A' for Active; 'I' for Inactive)
REMARK    1  A    between atoms: C_2  and  C_3
REMARK    2  A    between atoms: C_6  and  N_7
REMARK    3  A    between atoms: N_7  and  C_8
REMARK    4  A    between atoms: N_7  and  C_20
REMARK    5  A    between atoms: C_8  and  C_9
REMARK    6  A    between atoms: N_11  and  C_12
REMARK    7  A    between atoms: C_12  and  C_13
REMARK    8  A    between atoms: C_13  and  C_14
REMARK    9  A    between atoms: C_20  and  C_21
REMARK                            x       y       z     vdW  Elec       q    Type
REMARK                         _______ _______ _______ _____ _____    ______ ____
ROOT
ATOM      1  N   UNL     1       5.010   4.965  16.886  0.00  0.00    +0.000 N 
ENDROOT
BRANCH   1   5
ATOM      2  C   UNL     1       2.592   3.414  20.024  0.00  0.00    +0.000 A 
ATOM      3  C   UNL     1       3.257   2.592  19.127  0.00  0.00    +0.000 A 
ATOM      4  C   UNL     1       3.979   3.131  18.071  0.00  0.00    +0.000 A 
ATOM      5  C   UNL     1       4.086   4.515  17.853  0.00  0.00    +0.000 A 
ATOM      6  C   UNL     1       3.226   5.362  18.681  0.00  0.00    +0.000 A 
ATOM      7  C   UNL     1       2.985   6.750  18.524  0.00  0.00    +0.000 A 
ATOM      8  C   UNL     1       2.285   7.532  19.461  0.00  0.00    +0.000 A 
ATOM      9  C   UNL     1       1.651   6.942  20.531  0.00  0.00    +0.000 A 
ATOM     10  C   UNL     1       1.696   5.572  20.631  0.00  0.00    +0.000 A 
ATOM     11  C   UNL     1       2.502   4.783  19.770  0.00  0.00    +0.000 A 
BRANCH   2  13
ATOM     12  N   UNL     1       1.685   2.424  22.252  0.00  0.00    +0.000 NA
ATOM     13  C   UNL     1       2.048   2.891  21.240  0.00  0.00    +0.000 C 
ENDBRANCH   2  13
ENDBRANCH   1   5
BRANCH   1  14
ATOM     14  C   UNL     1       6.365   5.453  17.249  0.00  0.00    +0.000 C 
BRANCH  14  15
ATOM     15  C   UNL     1       6.624   6.970  17.116  0.00  0.00    +0.000 C 
ATOM     16  O   UNL     1       5.845   7.716  16.526  0.00  0.00    +0.000 OA
ATOM     17  N   UNL     1       7.728   7.434  17.817  0.00  0.00    +0.000 N 
ATOM     18  H   UNL     1       8.495   6.772  17.868  0.00  0.00    +0.000 HD
BRANCH  17  19
ATOM     19  C   UNL     1       8.096   8.852  17.898  0.00  0.00    +0.000 C 
BRANCH  19  20
ATOM     20  C   UNL     1       9.004   9.245  19.078  0.00  0.00    +0.000 C 
BRANCH  20  21
ATOM     21  C   UNL     1       9.458  10.693  18.998  0.00  0.00    +0.000 A 
ATOM     22  C   UNL     1       9.925  11.227  17.788  0.00  0.00    +0.000 A 
ATOM     23  C   UNL     1      10.327  12.566  17.703  0.00  0.00    +0.000 A 
ATOM     24  C   UNL     1      10.267  13.386  18.827  0.00  0.00    +0.000 A 
ATOM     25  C   UNL     1       9.821  12.865  20.039  0.00  0.00    +0.000 A 
ATOM     26  C   UNL     1       9.422  11.525  20.126  0.00  0.00    +0.000 A 
ENDBRANCH  20  21
ENDBRANCH  19  20
ENDBRANCH  17  19
ENDBRANCH  14  15
ENDBRANCH   1  14
BRANCH   1  27
ATOM     27  C   UNL     1       4.901   4.547  15.453  0.00  0.00    +0.000 C 
BRANCH  27  28
ATOM     28  C   UNL     1       6.246   4.116  14.905  0.00  0.00    +0.000 C 
ATOM     29  C   UNL     1       6.344   3.735  13.450  0.00  0.00    +0.000 C 
ATOM     30  C   UNL     1       7.085   4.940  13.949  0.00  0.00    +0.000 C 
ENDBRANCH  27  28
ENDBRANCH   1  27
TORSDOF 9
ENDMDL
MODEL 5
REMARK VINA RESULT:      -8.1      1.605      2.046
REMARK  Name = 
REMARK  9 active torsions:
REMARK  status: ('A' for Active; 'I' for Inactive)
REMARK    1  A    between atoms: C_2  and  C_3
REMARK    2  A    between atoms: C_6  and  N_7
REMARK    3  A    between atoms: N_7  and  C_8
REMARK    4  A    between atoms: N_7  and  C_20
REMARK    5  A    between atoms: C_8  and  C_9
REMARK    6  A    between atoms: N_11  and  C_12
REMARK    7  A    between atoms: C_12  and  C_13
REMARK    8  A    between atoms: C_13  and  C_14
REMARK    9  A    between atoms: C_20  and  C_21
REMARK                            x       y       z     vdW  Elec       q    Type
REMARK                         _______ _______ _______ _____ _____    ______ ____
ROOT
ATOM      1  N   UNL     1       6.557   4.449  16.827  0.00  0.00    +0.000 N 
ENDROOT
BRANCH   1   5
ATOM      2  C   UNL     1       2.630   3.537  18.183  0.00  0.00    +0.000 A 
ATOM      3  C   UNL     1       3.509   2.556  17.751  0.00  0.00    +0.000 A 
ATOM      4  C   UNL     1       4.757   2.895  17.246  0.00  0.00    +0.000 A 
ATOM      5  C   UNL     1       5.203   4.225  17.151  0.00  0.00    +0.000 A 
ATOM      6  C   UNL     1       4.200   5.256  17.423  0.00  0.00    +0.000 A 
ATOM      7  C   UNL     1       4.324   6.650  17.198  0.00  0.00    +0.000 A 
ATOM      8  C   UNL     1       3.386   7.599  17.645  0.00  0.00    +0.000 A 
ATOM      9  C   UNL     1       2.195   7.197  18.206  0.00  0.00    +0.000 A 
ATOM     10  C   UNL     1       1.942   5.848  18.280  0.00  0.00    +0.000 A 
ATOM     11  C   UNL     1       2.926   4.880  17.954  0.00  0.00    +0.000 A 
BRANCH   2  13
ATOM     12  N   UNL     1       0.439   2.986  19.473  0.00  0.00    +0.000 NA
ATOM     13  C   UNL     1       1.450   3.196  18.917  0.00  0.00    +0.000 C 
ENDBRANCH   2  13
ENDBRANCH   1   5
BRANCH   1  14
ATOM     14  C   UNL     1       7.622   4.508  17.861  0.00  0.00    +0.000 C 
BRANCH  14  15
ATOM     15  C   UNL     1       7.667   5.770  18.752  0.00  0.00    +0.000 C 
ATOM     16  O   UNL     1       7.576   5.708  19.976  0.00  0.00    +0.000 OA
ATOM     17  N   UNL     1       7.944   6.948  18.075  0.00  0.00    +0.000 N 
ATOM     18  H   UNL     1       7.569   6.983  17.132  0.00  0.00    +0.000 HD
BRANCH  17  19
ATOM     19  C   UNL     1       8.121   8.242  18.743  0.00  0.00    +0.000 C 
BRANCH  19  20
ATOM     20  C   UNL     1       8.499   9.425  17.832  0.00  0.00    +0.000 C 
BRANCH  20  21
ATOM     21  C   UNL     1       9.310  10.481  18.565  0.00  0.00    +0.000 A 
ATOM     22  C   UNL     1       9.372  10.484  19.967  0.00  0.00    +0.000 A 
ATOM     23  C   UNL     1      10.132  11.443  20.647  0.00  0.00    +0.000 A 
ATOM     24  C   UNL     1      10.838  12.410  19.935  0.00  0.00    +0.000 A 
ATOM     25  C   UNL     1      10.771  12.428  18.544  0.00  0.00    +0.000 A 
ATOM     26  C   UNL     1      10.009  11.472  17.863  0.00  0.00    +0.000 A 
ENDBRANCH  20  21
ENDBRANCH  19  20
ENDBRANCH  17  19
ENDBRANCH  14  15
ENDBRANCH   1  14
BRANCH   1  27
ATOM     27  C   UNL     1       7.086   4.166  15.456  0.00  0.00    +0.000 C 
BRANCH  27  28
ATOM     28  C   UNL     1       6.134   4.665  14.389  0.00  0.00    +0.000 C 
ATOM     29  C   UNL     1       6.550   4.557  12.943  0.00  0.00    +0.000 C 
ATOM     30  C   UNL     1       5.372   3.769  13.434  0.00  0.00    +0.000 C 
ENDBRANCH  27  28
ENDBRANCH   1  27
TORSDOF 9
ENDMDL
MODEL 6
REMARK VINA RESULT:      -8.1      1.403      1.733
REMARK  Name = 
REMARK  9 active torsions:
REMARK  status: ('A' for Active; 'I' for Inactive)
REMARK    1  A    between atoms: C_2  and  C_3
REMARK    2  A    between atoms: C_6  and  N_7
REMARK    3  A    between atoms: N_7  and  C_8
REMARK    4  A    between atoms: N_7  and  C_20
REMARK    5  A    between atoms: C_8  and  C_9
REMARK    6  A    between atoms: N_11  and  C_12
REMARK    7  A    between atoms: C_12  and  C_13
REMARK    8  A    between atoms: C_13  and  C_14
REMARK    9  A    between atoms: C_20  and  C_21
REMARK                            x       y       z     vdW  Elec       q    Type
REMARK                         _______ _______ _______ _____ _____    ______ ____
ROOT
ATOM      1  N   UNL     1       5.508   5.181  16.310  0.00  0.00    +0.000 N 
ENDROOT
BRANCH   1   5
ATOM      2  C   UNL     1       3.164   3.815  19.585  0.00  0.00    +0.000 A 
ATOM      3  C   UNL     1       3.871   2.946  18.768  0.00  0.00    +0.000 A 
ATOM      4  C   UNL     1       4.567   3.418  17.664  0.00  0.00    +0.000 A 
ATOM      5  C   UNL     1       4.606   4.780  17.316  0.00  0.00    +0.000 A 
ATOM      6  C   UNL     1       3.702   5.656  18.063  0.00  0.00    +0.000 A 
ATOM      7  C   UNL     1       3.393   7.010  17.776  0.00  0.00    +0.000 A 
ATOM      8  C   UNL     1       2.652   7.840  18.637  0.00  0.00    +0.000 A 
ATOM      9  C   UNL     1       2.045   7.323  19.759  0.00  0.00    +0.000 A 
ATOM     10  C   UNL     1       2.159   5.972  19.987  0.00  0.00    +0.000 A 
ATOM     11  C   UNL     1       3.005   5.147  19.203  0.00  0.00    +0.000 A 
BRANCH   2  13
ATOM     12  N   UNL     1       2.135   3.016  21.837  0.00  0.00    +0.000 NA
ATOM     13  C   UNL     1       2.643   3.382  20.846  0.00  0.00    +0.000 C 
ENDBRANCH   2  13
ENDBRANCH   1   5
BRANCH   1  14
ATOM     14  C   UNL     1       6.950   5.415  16.582  0.00  0.00    +0.000 C 
BRANCH  14  15
ATOM     15  C   UNL     1       7.300   6.484  17.642  0.00  0.00    +0.000 C 
ATOM     16  O   UNL     1       7.705   6.184  18.763  0.00  0.00    +0.000 OA
ATOM     17  N   UNL     1       7.242   7.793  17.186  0.00  0.00    +0.000 N 
ATOM     18  H   UNL     1       6.522   7.959  16.490  0.00  0.00    +0.000 HD
BRANCH  17  19
ATOM     19  C   UNL     1       7.624   8.950  18.003  0.00  0.00    +0.000 C 
BRANCH  19  20
ATOM     20  C   UNL     1       8.906   9.686  17.571  0.00  0.00    +0.000 C 
BRANCH  20  21
ATOM     21  C   UNL     1       9.244  10.845  18.494  0.00  0.00    +0.000 A 
ATOM     22  C   UNL     1       9.086  12.170  18.060  0.00  0.00    +0.000 A 
ATOM     23  C   UNL     1       9.378  13.242  18.912  0.00  0.00    +0.000 A 
ATOM     24  C   UNL     1       9.833  13.002  20.207  0.00  0.00    +0.000 A 
ATOM     25  C   UNL     1      10.012  11.692  20.644  0.00  0.00    +0.000 A 
ATOM     26  C   UNL     1       9.723  10.619  19.792  0.00  0.00    +0.000 A 
ENDBRANCH  20  21
ENDBRANCH  19  20
ENDBRANCH  17  19
ENDBRANCH  14  15
ENDBRANCH   1  14
BRANCH   1  27
ATOM     27  C   UNL     1       5.217   4.939  14.861  0.00  0.00    +0.000 C 
BRANCH  27  28
ATOM     28  C   UNL     1       6.289   4.079  14.224  0.00  0.00    +0.000 C 
ATOM     29  C   UNL     1       6.032   3.501  12.856  0.00  0.00    +0.000 C 
ATOM     30  C   UNL     1       7.134   4.501  13.039  0.00  0.00    +0.000 C 
ENDBRANCH  27  28
ENDBRANCH   1  27
TORSDOF 9
ENDMDL
MODEL 7
REMARK VINA RESULT:      -7.9      1.902      3.192
REMARK  Name = 
REMARK  9 active torsions:
REMARK  status: ('A' for Active; 'I' for Inactive)
REMARK    1  A    between atoms: C_2  and  C_3
REMARK    2  A    between atoms: C_6  and  N_7
REMARK    3  A    between atoms: N_7  and  C_8
REMARK    4  A    between atoms: N_7  and  C_20
REMARK    5  A    between atoms: C_8  and  C_9
REMARK    6  A    between atoms: N_11  and  C_12
REMARK    7  A    between atoms: C_12  and  C_13
REMARK    8  A    between atoms: C_13  and  C_14
REMARK    9  A    between atoms: C_20  and  C_21
REMARK                            x       y       z     vdW  Elec       q    Type
REMARK                         _______ _______ _______ _____ _____    ______ ____
ROOT
ATOM      1  N   UNL     1       5.489   5.017  17.190  0.00  0.00    +0.000 N 
ENDROOT
BRANCH   1   5
ATOM      2  C   UNL     1       2.586   7.936  18.257  0.00  0.00    +0.000 A 
ATOM      3  C   UNL     1       3.585   8.191  17.330  0.00  0.00    +0.000 A 
ATOM      4  C   UNL     1       4.560   7.241  17.059  0.00  0.00    +0.000 A 
ATOM      5  C   UNL     1       4.592   5.984  17.687  0.00  0.00    +0.000 A 
ATOM      6  C   UNL     1       3.657   5.802  18.799  0.00  0.00    +0.000 A 
ATOM      7  C   UNL     1       3.628   4.727  19.724  0.00  0.00    +0.000 A 
ATOM      8  C   UNL     1       2.594   4.531  20.658  0.00  0.00    +0.000 A 
ATOM      9  C   UNL     1       1.612   5.480  20.828  0.00  0.00    +0.000 A 
ATOM     10  C   UNL     1       1.697   6.633  20.084  0.00  0.00    +0.000 A 
ATOM     11  C   UNL     1       2.655   6.791  19.050  0.00  0.00    +0.000 A 
BRANCH   2  13
ATOM     12  N   UNL     1       0.502   9.489  18.380  0.00  0.00    +0.000 NA
ATOM     13  C   UNL     1       1.451   8.800  18.374  0.00  0.00    +0.000 C 
ENDBRANCH   2  13
ENDBRANCH   1   5
BRANCH   1  14
ATOM     14  C   UNL     1       6.718   4.620  17.926  0.00  0.00    +0.000 C 
BRANCH  14  15
ATOM     15  C   UNL     1       7.436   5.721  18.739  0.00  0.00    +0.000 C 
ATOM     16  O   UNL     1       7.841   5.528  19.883  0.00  0.00    +0.000 OA
ATOM     17  N   UNL     1       7.695   6.887  18.033  0.00  0.00    +0.000 N 
ATOM     18  H   UNL     1       6.988   7.119  17.342  0.00  0.00    +0.000 HD
BRANCH  17  19
ATOM     19  C   UNL     1       8.446   8.018  18.589  0.00  0.00    +0.000 C 
BRANCH  19  20
ATOM     20  C   UNL     1       8.283   9.361  17.853  0.00  0.00    +0.000 C 
BRANCH  20  21
ATOM     21  C   UNL     1       9.026  10.491  18.547  0.00  0.00    +0.000 A 
ATOM     22  C   UNL     1       9.430  10.362  19.884  0.00  0.00    +0.000 A 
ATOM     23  C   UNL     1      10.132  11.392  20.522  0.00  0.00    +0.000 A 
ATOM     24  C   UNL     1      10.435  12.564  19.833  0.00  0.00    +0.000 A 
ATOM     25  C   UNL     1      10.025  12.712  18.510  0.00  0.00    +0.000 A 
ATOM     26  C   UNL     1       9.321  11.684  17.872  0.00  0.00    +0.000 A 
ENDBRANCH  20  21
ENDBRANCH  19  20
ENDBRANCH  17  19
ENDBRANCH  14  15
ENDBRANCH   1  14
BRANCH   1  27
ATOM     27  C   UNL     1       5.057   4.000  16.181  0.00  0.00    +0.000 C 
BRANCH  27  28
ATOM     28  C   UNL     1       5.332   4.478  14.770  0.00  0.00    +0.000 C 
ATOM     29  C   UNL     1       6.711   4.989  14.437  0.00  0.00    +0.000 C 
ATOM     30  C   UNL     1       6.204   3.744  13.771  0.00  0.00    +0.000 C 
ENDBRANCH  27  28
ENDBRANCH   1  27
TORSDOF 9
ENDMDL
MODEL 8
REMARK VINA RESULT:      -7.9      1.070      1.534
REMARK  Name = 
REMARK  9 active torsions:
REMARK  status: ('A' for Active; 'I' for Inactive)
REMARK    1  A    between atoms: C_2  and  C_3
REMARK    2  A    between atoms: C_6  and  N_7
REMARK    3  A    between atoms: N_7  and  C_8
REMARK    4  A    between atoms: N_7  and  C_20
REMARK    5  A    between atoms: C_8  and  C_9
REMARK    6  A    between atoms: N_11  and  C_12
REMARK    7  A    between atoms: C_12  and  C_13
REMARK    8  A    between atoms: C_13  and  C_14
REMARK    9  A    between atoms: C_20  and  C_21
REMARK                            x       y       z     vdW  Elec       q    Type
REMARK                         _______ _______ _______ _____ _____    ______ ____
ROOT
ATOM      1  N   UNL     1       5.562   5.596  17.123  0.00  0.00    +0.000 N 
ENDROOT
BRANCH   1   5
ATOM      2  C   UNL     1       3.090   3.719  20.031  0.00  0.00    +0.000 A 
ATOM      3  C   UNL     1       3.965   3.002  19.231  0.00  0.00    +0.000 A 
ATOM      4  C   UNL     1       4.704   3.636  18.242  0.00  0.00    +0.000 A 
ATOM      5  C   UNL     1       4.620   5.018  17.999  0.00  0.00    +0.000 A 
ATOM      6  C   UNL     1       3.555   5.728  18.710  0.00  0.00    +0.000 A 
ATOM      7  C   UNL     1       3.122   7.060  18.491  0.00  0.00    +0.000 A 
ATOM      8  C   UNL     1       2.213   7.732  19.329  0.00  0.00    +0.000 A 
ATOM      9  C   UNL     1       1.566   7.062  20.342  0.00  0.00    +0.000 A 
ATOM     10  C   UNL     1       1.811   5.716  20.483  0.00  0.00    +0.000 A 
ATOM     11  C   UNL     1       2.817   5.054  19.733  0.00  0.00    +0.000 A 
BRANCH   2  13
ATOM     12  N   UNL     1       1.946   2.646  22.106  0.00  0.00    +0.000 NA
ATOM     13  C   UNL     1       2.505   3.130  21.197  0.00  0.00    +0.000 C 
ENDBRANCH   2  13
ENDBRANCH   1   5
BRANCH   1  14
ATOM     14  C   UNL     1       7.019   5.598  17.411  0.00  0.00    +0.000 C 
BRANCH  14  15
ATOM     15  C   UNL     1       7.613   6.890  18.017  0.00  0.00    +0.000 C 
ATOM     16  O   UNL     1       8.297   6.878  19.038  0.00  0.00    +0.000 OA
ATOM     17  N   UNL     1       7.419   8.031  17.252  0.00  0.00    +0.000 N 
ATOM     18  H   UNL     1       6.542   8.044  16.741  0.00  0.00    +0.000 HD
BRANCH  17  19
ATOM     19  C   UNL     1       7.980   9.341  17.600  0.00  0.00    +0.000 C 
BRANCH  19  20
ATOM     20  C   UNL     1       8.818   9.394  18.891  0.00  0.00    +0.000 C 
BRANCH  20  21
ATOM     21  C   UNL     1       9.543  10.719  19.053  0.00  0.00    +0.000 A 
ATOM     22  C   UNL     1      10.161  11.049  20.269  0.00  0.00    +0.000 A 
ATOM     23  C   UNL     1      10.847  12.260  20.419  0.00  0.00    +0.000 A 
ATOM     24  C   UNL     1      10.923  13.157  19.356  0.00  0.00    +0.000 A 
ATOM     25  C   UNL     1      10.299  12.850  18.149  0.00  0.00    +0.000 A 
ATOM     26  C   UNL     1       9.610  11.641  17.999  0.00  0.00    +0.000 A 
ENDBRANCH  20  21
ENDBRANCH  19  20
ENDBRANCH  17  19
ENDBRANCH  14  15
ENDBRANCH   1  14
BRANCH   1  27
ATOM     27  C   UNL     1       5.251   5.803  15.673  0.00  0.00    +0.000 C 
BRANCH  27  28
ATOM     28  C   UNL     1       6.182   4.996  14.793  0.00  0.00    +0.000 C 
ATOM     29  C   UNL     1       6.114   3.491  14.859  0.00  0.00    +0.000 C 
ATOM     30  C   UNL     1       5.740   4.192  13.587  0.00  0.00    +0.000 C 
ENDBRANCH  27  28
ENDBRANCH   1  27
TORSDOF 9
ENDMDL
MODEL 9
REMARK VINA RESULT:      -7.9      1.517      1.930
REMARK  Name = 
REMARK  9 active torsions:
REMARK  status: ('A' for Active; 'I' for Inactive)
REMARK    1  A    between atoms: C_2  and  C_3
REMARK    2  A    between atoms: C_6  and  N_7
REMARK    3  A    between atoms: N_7  and  C_8
REMARK    4  A    between atoms: N_7  and  C_20
REMARK    5  A    between atoms: C_8  and  C_9
REMARK    6  A    between atoms: N_11  and  C_12
REMARK    7  A    between atoms: C_12  and  C_13
REMARK    8  A    between atoms: C_13  and  C_14
REMARK    9  A    between atoms: C_20  and  C_21
REMARK                            x       y       z     vdW  Elec       q    Type
REMARK                         _______ _______ _______ _____ _____    ______ ____
ROOT
ATOM      1  N   UNL     1       5.048   5.052  16.413  0.00  0.00    +0.000 N 
ENDROOT
BRANCH   1   5
ATOM      2  C   UNL     1       2.958   3.703  19.862  0.00  0.00    +0.000 A 
ATOM      3  C   UNL     1       3.601   2.830  18.999  0.00  0.00    +0.000 A 
ATOM      4  C   UNL     1       4.212   3.296  17.844  0.00  0.00    +0.000 A 
ATOM      5  C   UNL     1       4.225   4.656  17.486  0.00  0.00    +0.000 A 
ATOM      6  C   UNL     1       3.379   5.536  18.295  0.00  0.00    +0.000 A 
ATOM      7  C   UNL     1       3.050   6.888  18.025  0.00  0.00    +0.000 A 
ATOM      8  C   UNL     1       2.375   7.723  18.936  0.00  0.00    +0.000 A 
ATOM      9  C   UNL     1       1.855   7.212  20.103  0.00  0.00    +0.000 A 
ATOM     10  C   UNL     1       1.986   5.863  20.329  0.00  0.00    +0.000 A 
ATOM     11  C   UNL     1       2.771   5.033  19.487  0.00  0.00    +0.000 A 
BRANCH   2  13
ATOM     12  N   UNL     1       2.106   2.904  22.187  0.00  0.00    +0.000 NA
ATOM     13  C   UNL     1       2.534   3.277  21.162  0.00  0.00    +0.000 C 
ENDBRANCH   2  13
ENDBRANCH   1   5
BRANCH   1  14
ATOM     14  C   UNL     1       5.643   6.411  16.327  0.00  0.00    +0.000 C 
BRANCH  14  15
ATOM     15  C   UNL     1       6.790   6.739  17.308  0.00  0.00    +0.000 C 
ATOM     16  O   UNL     1       7.435   5.860  17.876  0.00  0.00    +0.000 OA
ATOM     17  N   UNL     1       7.111   8.086  17.396  0.00  0.00    +0.000 N 
ATOM     18  H   UNL     1       6.317   8.709  17.287  0.00  0.00    +0.000 HD
BRANCH  17  19
ATOM     19  C   UNL     1       8.226   8.600  18.198  0.00  0.00    +0.000 C 
BRANCH  19  20
ATOM     20  C   UNL     1       8.951   9.835  17.630  0.00  0.00    +0.000 C 
BRANCH  20  21
ATOM     21  C   UNL     1       9.141  10.922  18.674  0.00  0.00    +0.000 A 
ATOM     22  C   UNL     1       9.470  10.590  19.997  0.00  0.00    +0.000 A 
ATOM     23  C   UNL     1       9.665  11.588  20.959  0.00  0.00    +0.000 A 
ATOM     24  C   UNL     1       9.532  12.930  20.611  0.00  0.00    +0.000 A 
ATOM     25  C   UNL     1       9.189  13.274  19.306  0.00  0.00    +0.000 A 
ATOM     26  C   UNL     1       8.991  12.276  18.344  0.00  0.00    +0.000 A 
ENDBRANCH  20  21
ENDBRANCH  19  20
ENDBRANCH  17  19
ENDBRANCH  14  15
ENDBRANCH   1  14
BRANCH   1  27
ATOM     27  C   UNL     1       5.764   4.045  15.568  0.00  0.00    +0.000 C 
BRANCH  27  28
ATOM     28  C   UNL     1       5.816   4.482  14.120  0.00  0.00    +0.000 C 
ATOM     29  C   UNL     1       7.153   4.520  13.424  0.00  0.00    +0.000 C 
ATOM     30  C   UNL     1       6.102   3.557  12.954  0.00  0.00    +0.000 C 
ENDBRANCH  27  28
ENDBRANCH   1  27
TORSDOF 9
ENDMDL
