MODEL 1
REMARK VINA RESULT:      -7.8      0.000      0.000
REMARK  Name = 
REMARK  8 active torsions:
REMARK  status: ('A' for Active; 'I' for Inactive)
REMARK    1  A    between atoms: C_2  and  C_3
REMARK    2  A    between atoms: C_2  and  C_15
REMARK    3  A    between atoms: C_5  and  O_6
REMARK    4  A    between atoms: O_6  and  C_7
REMARK    5  A    between atoms: C_8  and  O_9
REMARK    6  A    between atoms: O_9  and  C_10
REMARK    7  A    between atoms: C_11  and  O_12
REMARK    8  A    between atoms: O_12  and  C_13
REMARK                            x       y       z     vdW  Elec       q    Type
REMARK                         _______ _______ _______ _____ _____    ______ ____
ROOT
ATOM      1  C   UNL     1       2.152   4.886  18.150  0.00  0.00    +0.000 C 
ATOM      2  C   UNL     1       2.995   5.906  17.913  0.00  0.00    +0.000 C 
ENDROOT
BRANCH   2   3
ATOM      3  C   UNL     1       2.611   7.216  18.490  0.00  0.00    +0.000 A 
ATOM      4  C   UNL     1       2.272   7.290  19.848  0.00  0.00    +0.000 A 
ATOM      5  C   UNL     1       1.438   8.313  20.317  0.00  0.00    +0.000 A 
ATOM      6  C   UNL     1       1.095   9.287  19.382  0.00  0.00    +0.000 A 
ATOM      7  C   UNL     1       1.871   9.468  18.238  0.00  0.00    +0.000 A 
ATOM      8  C   UNL     1       2.478   8.344  17.667  0.00  0.00    +0.000 A 
ATOM      9  C   UNL     1       1.925  10.883  18.081  0.00  0.00    +0.000 A 
ATOM     10  C   UNL     1       0.954  11.420  18.913  0.00  0.00    +0.000 A 
ATOM     11  N   UNL     1       0.203  10.337  19.338  0.00  0.00    +0.000 N 
ATOM     12  C   UNL     1      -1.125  10.295  18.690  0.00  0.00    +0.000 C 
ATOM     13  C   UNL     1      -1.738  11.710  18.598  0.00  0.00    +0.000 C 
ATOM     14  O   UNL     1      -0.799  12.733  18.212  0.00  0.00    +0.000 OA
ATOM     15  C   UNL     1       0.351  12.754  19.067  0.00  0.00    +0.000 C 
ENDBRANCH   2   3
BRANCH   2  16
ATOM     16  C   UNL     1       4.278   5.728  17.152  0.00  0.00    +0.000 A 
ATOM     17  C   UNL     1       5.376   6.576  17.308  0.00  0.00    +0.000 A 
ATOM     18  C   UNL     1       6.566   6.363  16.600  0.00  0.00    +0.000 A 
ATOM     19  C   UNL     1       6.683   5.269  15.710  0.00  0.00    +0.000 A 
ATOM     20  C   UNL     1       5.592   4.406  15.536  0.00  0.00    +0.000 A 
ATOM     21  C   UNL     1       4.420   4.637  16.266  0.00  0.00    +0.000 A 
BRANCH  18  22
ATOM     22  O   UNL     1       7.669   7.178  16.706  0.00  0.00    +0.000 OA
ATOM     23  C   UNL     1       7.990   7.662  18.005  0.00  0.00    +0.000 C 
ENDBRANCH  18  22
BRANCH  19  24
ATOM     24  O   UNL     1       7.869   5.194  15.018  0.00  0.00    +0.000 OA
ATOM     25  C   UNL     1       7.819   5.535  13.638  0.00  0.00    +0.000 C 
ENDBRANCH  19  24
BRANCH  20  26
ATOM     26  O   UNL     1       5.718   3.380  14.629  0.00  0.00    +0.000 OA
ATOM     27  C   UNL     1       5.261   3.597  13.304  0.00  0.00    +0.000 C 
ENDBRANCH  20  26
ENDBRANCH   2  16
TORSDOF 5
ENDMDL
MODEL 2
REMARK VINA RESULT:      -7.7      0.155      2.444
REMARK  Name = 
REMARK  8 active torsions:
REMARK  status: ('A' for Active; 'I' for Inactive)
REMARK    1  A    between atoms: C_2  and  C_3
REMARK    2  A    between atoms: C_2  and  C_15
REMARK    3  A    between atoms: C_5  and  O_6
REMARK    4  A    between atoms: O_6  and  C_7
REMARK    5  A    between atoms: C_8  and  O_9
REMARK    6  A    between atoms: O_9  and  C_10
REMARK    7  A    between atoms: C_11  and  O_12
REMARK    8  A    between atoms: O_12  and  C_13
REMARK                            x       y       z     vdW  Elec       q    Type
REMARK                         _______ _______ _______ _____ _____    ______ ____
ROOT
ATOM      1  C   UNL     1       2.128   4.788  18.185  0.00  0.00    +0.000 C 
ATOM      2  C   UNL     1       2.970   5.809  17.951  0.00  0.00    +0.000 C 
ENDROOT
BRANCH   2   3
ATOM      3  C   UNL     1       2.592   7.114  18.542  0.00  0.00    +0.000 A 
ATOM      4  C   UNL     1       2.287   7.182  19.908  0.00  0.00    +0.000 A 
ATOM      5  C   UNL     1       1.458   8.197  20.402  0.00  0.00    +0.000 A 
ATOM      6  C   UNL     1       1.084   9.172  19.479  0.00  0.00    +0.000 A 
ATOM      7  C   UNL     1       1.829   9.362  18.317  0.00  0.00    +0.000 A 
ATOM      8  C   UNL     1       2.429   8.244  17.726  0.00  0.00    +0.000 A 
ATOM      9  C   UNL     1       1.868  10.777  18.163  0.00  0.00    +0.000 A 
ATOM     10  C   UNL     1       0.916  11.305  19.021  0.00  0.00    +0.000 A 
ATOM     11  N   UNL     1       0.183  10.216  19.462  0.00  0.00    +0.000 N 
ATOM     12  C   UNL     1      -1.161  10.166  18.848  0.00  0.00    +0.000 C 
ATOM     13  C   UNL     1      -1.786  11.576  18.776  0.00  0.00    +0.000 C 
ATOM     14  O   UNL     1      -0.865  12.607  18.369  0.00  0.00    +0.000 OA
ATOM     15  C   UNL     1       0.306  12.635  19.194  0.00  0.00    +0.000 C 
ENDBRANCH   2   3
BRANCH   2  16
ATOM     16  C   UNL     1       4.247   5.636  17.180  0.00  0.00    +0.000 A 
ATOM     17  C   UNL     1       4.435   4.620  16.242  0.00  0.00    +0.000 A 
ATOM     18  C   UNL     1       5.632   4.505  15.522  0.00  0.00    +0.000 A 
ATOM     19  C   UNL     1       6.683   5.432  15.729  0.00  0.00    +0.000 A 
ATOM     20  C   UNL     1       6.516   6.460  16.668  0.00  0.00    +0.000 A 
ATOM     21  C   UNL     1       5.304   6.556  17.363  0.00  0.00    +0.000 A 
BRANCH  18  22
ATOM     22  O   UNL     1       5.873   3.513  14.601  0.00  0.00    +0.000 OA
ATOM     23  C   UNL     1       5.219   3.630  13.343  0.00  0.00    +0.000 C 
ENDBRANCH  18  22
BRANCH  19  24
ATOM     24  O   UNL     1       7.835   5.187  15.021  0.00  0.00    +0.000 OA
ATOM     25  C   UNL     1       7.823   5.553  13.646  0.00  0.00    +0.000 C 
ENDBRANCH  19  24
BRANCH  20  26
ATOM     26  O   UNL     1       7.570   7.316  16.881  0.00  0.00    +0.000 OA
ATOM     27  C   UNL     1       8.056   7.465  18.206  0.00  0.00    +0.000 C 
ENDBRANCH  20  26
ENDBRANCH   2  16
TORSDOF 5
ENDMDL
MODEL 3
REMARK VINA RESULT:      -7.6      1.420      1.956
REMARK  Name = 
REMARK  8 active torsions:
REMARK  status: ('A' for Active; 'I' for Inactive)
REMARK    1  A    between atoms: C_2  and  C_3
REMARK    2  A    between atoms: C_2  and  C_15
REMARK    3  A    between atoms: C_5  and  O_6
REMARK    4  A    between atoms: O_6  and  C_7
REMARK    5  A    between atoms: C_8  and  O_9
REMARK    6  A    between atoms: O_9  and  C_10
REMARK    7  A    between atoms: C_11  and  O_12
REMARK    8  A    between atoms: O_12  and  C_13
REMARK                            x       y       z     vdW  Elec       q    Type
REMARK                         _______ _______ _______ _____ _____    ______ ____
ROOT
ATOM      1  C   UNL     1       1.643   5.256  20.605  0.00  0.00    +0.000 C 
ATOM      2  C   UNL     1       2.293   6.079  19.764  0.00  0.00    +0.000 C 
ENDROOT
BRANCH   2   3
ATOM      3  C   UNL     1       1.988   7.522  19.899  0.00  0.00    +0.000 A 
ATOM      4  C   UNL     1       1.597   8.023  21.149  0.00  0.00    +0.000 A 
ATOM      5  C   UNL     1       0.826   9.189  21.238  0.00  0.00    +0.000 A 
ATOM      6  C   UNL     1       0.602   9.856  20.035  0.00  0.00    +0.000 A 
ATOM      7  C   UNL     1       1.438   9.636  18.942  0.00  0.00    +0.000 A 
ATOM      8  C   UNL     1       1.979   8.356  18.771  0.00  0.00    +0.000 A 
ATOM      9  C   UNL     1       1.609  10.931  18.376  0.00  0.00    +0.000 A 
ATOM     10  C   UNL     1       0.648  11.752  18.946  0.00  0.00    +0.000 A 
ATOM     11  N   UNL     1      -0.203  10.897  19.624  0.00  0.00    +0.000 N 
ATOM     12  C   UNL     1      -1.501  10.744  18.933  0.00  0.00    +0.000 C 
ATOM     13  C   UNL     1      -1.997  12.100  18.385  0.00  0.00    +0.000 C 
ATOM     14  O   UNL     1      -0.965  12.899  17.774  0.00  0.00    +0.000 OA
ATOM     15  C   UNL     1       0.145  13.106  18.656  0.00  0.00    +0.000 C 
ENDBRANCH   2   3
BRANCH   2  16
ATOM     16  C   UNL     1       3.307   5.579  18.775  0.00  0.00    +0.000 A 
ATOM     17  C   UNL     1       4.252   6.411  18.173  0.00  0.00    +0.000 A 
ATOM     18  C   UNL     1       5.201   5.904  17.274  0.00  0.00    +0.000 A 
ATOM     19  C   UNL     1       5.225   4.523  16.962  0.00  0.00    +0.000 A 
ATOM     20  C   UNL     1       4.283   3.670  17.555  0.00  0.00    +0.000 A 
ATOM     21  C   UNL     1       3.356   4.204  18.458  0.00  0.00    +0.000 A 
BRANCH  18  22
ATOM     22  O   UNL     1       6.141   6.684  16.642  0.00  0.00    +0.000 OA
ATOM     23  C   UNL     1       7.213   7.173  17.438  0.00  0.00    +0.000 C 
ENDBRANCH  18  22
BRANCH  19  24
ATOM     24  O   UNL     1       6.151   4.147  16.020  0.00  0.00    +0.000 OA
ATOM     25  C   UNL     1       5.730   4.198  14.661  0.00  0.00    +0.000 C 
ENDBRANCH  19  24
BRANCH  20  26
ATOM     26  O   UNL     1       4.300   2.343  17.196  0.00  0.00    +0.000 OA
ATOM     27  C   UNL     1       3.644   1.411  18.041  0.00  0.00    +0.000 C 
ENDBRANCH  20  26
ENDBRANCH   2  16
TORSDOF 5
ENDMDL
MODEL 4
REMARK VINA RESULT:      -7.6      2.791      4.447
REMARK  Name = 
REMARK  8 active torsions:
REMARK  status: ('A' for Active; 'I' for Inactive)
REMARK    1  A    between atoms: C_2  and  C_3
REMARK    2  A    between atoms: C_2  and  C_15
REMARK    3  A    between atoms: C_5  and  O_6
REMARK    4  A    between atoms: O_6  and  C_7
REMARK    5  A    between atoms: C_8  and  O_9
REMARK    6  A    between atoms: O_9  and  C_10
REMARK    7  A    between atoms: C_11  and  O_12
REMARK    8  A    between atoms: O_12  and  C_13
REMARK                            x       y       z     vdW  Elec       q    Type
REMARK                         _______ _______ _______ _____ _____    ______ ____
ROOT
ATOM      1  C   UNL     1       3.603   8.391  17.218  0.00  0.00    +0.000 C 
ATOM      2  C   UNL     1       2.896   7.674  18.109  0.00  0.00    +0.000 C 
ENDROOT
BRANCH   2   3
ATOM      3  C   UNL     1       1.751   8.369  18.742  0.00  0.00    +0.000 A 
ATOM      4  C   UNL     1       0.775   8.959  17.926  0.00  0.00    +0.000 A 
ATOM      5  C   UNL     1      -0.001  10.023  18.402  0.00  0.00    +0.000 A 
ATOM      6  C   UNL     1       0.178  10.345  19.746  0.00  0.00    +0.000 A 
ATOM      7  C   UNL     1       0.727   9.413  20.625  0.00  0.00    +0.000 A 
ATOM      8  C   UNL     1       1.699   8.535  20.134  0.00  0.00    +0.000 A 
ATOM      9  C   UNL     1      -0.044   9.567  21.812  0.00  0.00    +0.000 A 
ATOM     10  C   UNL     1      -0.757  10.749  21.682  0.00  0.00    +0.000 A 
ATOM     11  N   UNL     1      -0.219  11.376  20.571  0.00  0.00    +0.000 N 
ATOM     12  C   UNL     1       0.619  12.537  20.941  0.00  0.00    +0.000 C 
ATOM     13  C   UNL     1      -0.036  13.348  22.080  0.00  0.00    +0.000 C 
ATOM     14  O   UNL     1      -0.614  12.537  23.122  0.00  0.00    +0.000 OA
ATOM     15  C   UNL     1      -1.548  11.583  22.603  0.00  0.00    +0.000 C 
ENDBRANCH   2   3
BRANCH   2  16
ATOM     16  C   UNL     1       3.211   6.238  18.416  0.00  0.00    +0.000 A 
ATOM     17  C   UNL     1       2.224   5.285  18.677  0.00  0.00    +0.000 A 
ATOM     18  C   UNL     1       2.555   3.947  18.933  0.00  0.00    +0.000 A 
ATOM     19  C   UNL     1       3.908   3.530  18.926  0.00  0.00    +0.000 A 
ATOM     20  C   UNL     1       4.915   4.472  18.668  0.00  0.00    +0.000 A 
ATOM     21  C   UNL     1       4.553   5.798  18.403  0.00  0.00    +0.000 A 
BRANCH  18  22
ATOM     22  O   UNL     1       1.623   2.975  19.212  0.00  0.00    +0.000 OA
ATOM     23  C   UNL     1       0.967   3.054  20.472  0.00  0.00    +0.000 C 
ENDBRANCH  18  22
BRANCH  19  24
ATOM     24  O   UNL     1       4.122   2.213  19.256  0.00  0.00    +0.000 OA
ATOM     25  C   UNL     1       4.565   1.957  20.584  0.00  0.00    +0.000 C 
ENDBRANCH  19  24
BRANCH  20  26
ATOM     26  O   UNL     1       6.221   4.047  18.715  0.00  0.00    +0.000 OA
ATOM     27  C   UNL     1       7.177   4.728  17.916  0.00  0.00    +0.000 C 
ENDBRANCH  20  26
ENDBRANCH   2  16
TORSDOF 5
ENDMDL
MODEL 5
REMARK VINA RESULT:      -7.5      2.931      4.362
REMARK  Name = 
REMARK  8 active torsions:
REMARK  status: ('A' for Active; 'I' for Inactive)
REMARK    1  A    between atoms: C_2  and  C_3
REMARK    2  A    between atoms: C_2  and  C_15
REMARK    3  A    between atoms: C_5  and  O_6
REMARK    4  A    between atoms: O_6  and  C_7
REMARK    5  A    between atoms: C_8  and  O_9
REMARK    6  A    between atoms: O_9  and  C_10
REMARK    7  A    between atoms: C_11  and  O_12
REMARK    8  A    between atoms: O_12  and  C_13
REMARK                            x       y       z     vdW  Elec       q    Type
REMARK                         _______ _______ _______ _____ _____    ______ ____
ROOT
ATOM      1  C   UNL     1       3.323   8.476  17.280  0.00  0.00    +0.000 C 
ATOM      2  C   UNL     1       2.684   7.795  18.247  0.00  0.00    +0.000 C 
ENDROOT
BRANCH   2   3
ATOM      3  C   UNL     1       1.572   8.507  18.920  0.00  0.00    +0.000 A 
ATOM      4  C   UNL     1       0.549   9.065  18.141  0.00  0.00    +0.000 A 
ATOM      5  C   UNL     1      -0.205  10.142  18.624  0.00  0.00    +0.000 A 
ATOM      6  C   UNL     1       0.048  10.510  19.944  0.00  0.00    +0.000 A 
ATOM      7  C   UNL     1       0.651   9.611  20.821  0.00  0.00    +0.000 A 
ATOM      8  C   UNL     1       1.598   8.719  20.306  0.00  0.00    +0.000 A 
ATOM      9  C   UNL     1      -0.053   9.802  22.044  0.00  0.00    +0.000 A 
ATOM     10  C   UNL     1      -0.778  10.976  21.915  0.00  0.00    +0.000 A 
ATOM     11  N   UNL     1      -0.307  11.567  20.755  0.00  0.00    +0.000 N 
ATOM     12  C   UNL     1       0.544  12.743  21.037  0.00  0.00    +0.000 C 
ATOM     13  C   UNL     1      -0.051  13.590  22.183  0.00  0.00    +0.000 C 
ATOM     14  O   UNL     1      -0.564  12.813  23.283  0.00  0.00    +0.000 OA
ATOM     15  C   UNL     1      -1.521  11.839  22.850  0.00  0.00    +0.000 C 
ENDBRANCH   2   3
BRANCH   2  16
ATOM     16  C   UNL     1       3.036   6.377  18.598  0.00  0.00    +0.000 A 
ATOM     17  C   UNL     1       4.341   5.884  18.541  0.00  0.00    +0.000 A 
ATOM     18  C   UNL     1       4.635   4.562  18.902  0.00  0.00    +0.000 A 
ATOM     19  C   UNL     1       3.606   3.694  19.342  0.00  0.00    +0.000 A 
ATOM     20  C   UNL     1       2.288   4.169  19.405  0.00  0.00    +0.000 A 
ATOM     21  C   UNL     1       2.027   5.498  19.050  0.00  0.00    +0.000 A 
BRANCH  18  22
ATOM     22  O   UNL     1       5.899   4.023  18.847  0.00  0.00    +0.000 OA
ATOM     23  C   UNL     1       6.832   4.657  17.980  0.00  0.00    +0.000 C 
ENDBRANCH  18  22
BRANCH  19  24
ATOM     24  O   UNL     1       3.995   2.402  19.605  0.00  0.00    +0.000 OA
ATOM     25  C   UNL     1       3.682   1.432  18.613  0.00  0.00    +0.000 C 
ENDBRANCH  19  24
BRANCH  20  26
ATOM     26  O   UNL     1       1.304   3.290  19.791  0.00  0.00    +0.000 OA
ATOM     27  C   UNL     1       1.190   2.974  21.170  0.00  0.00    +0.000 C 
ENDBRANCH  20  26
ENDBRANCH   2  16
TORSDOF 5
ENDMDL
MODEL 6
REMARK VINA RESULT:      -7.5      1.430      2.892
REMARK  Name = 
REMARK  8 active torsions:
REMARK  status: ('A' for Active; 'I' for Inactive)
REMARK    1  A    between atoms: C_2  and  C_3
REMARK    2  A    between atoms: C_2  and  C_15
REMARK    3  A    between atoms: C_5  and  O_6
REMARK    4  A    between atoms: O_6  and  C_7
REMARK    5  A    between atoms: C_8  and  O_9
REMARK    6  A    between atoms: O_9  and  C_10
REMARK    7  A    between atoms: C_11  and  O_12
REMARK    8  A    between atoms: O_12  and  C_13
REMARK                            x       y       z     vdW  Elec       q    Type
REMARK                         _______ _______ _______ _____ _____    ______ ____
ROOT
ATOM      1  C   UNL     1       1.612   5.297  20.770  0.00  0.00    +0.000 C 
ATOM      2  C   UNL     1       2.239   6.082  19.876  0.00  0.00    +0.000 C 
ENDROOT
BRANCH   2   3
ATOM      3  C   UNL     1       1.955   7.533  19.971  0.00  0.00    +0.000 A 
ATOM      4  C   UNL     1       1.586   8.077  21.210  0.00  0.00    +0.000 A 
ATOM      5  C   UNL     1       0.832   9.255  21.273  0.00  0.00    +0.000 A 
ATOM      6  C   UNL     1       0.601   9.888  20.053  0.00  0.00    +0.000 A 
ATOM      7  C   UNL     1       1.421   9.624  18.958  0.00  0.00    +0.000 A 
ATOM      8  C   UNL     1       1.942   8.333  18.819  0.00  0.00    +0.000 A 
ATOM      9  C   UNL     1       1.602  10.899  18.350  0.00  0.00    +0.000 A 
ATOM     10  C   UNL     1       0.659  11.750  18.906  0.00  0.00    +0.000 A 
ATOM     11  N   UNL     1      -0.195  10.927  19.621  0.00  0.00    +0.000 N 
ATOM     12  C   UNL     1      -1.504  10.771  18.950  0.00  0.00    +0.000 C 
ATOM     13  C   UNL     1      -1.988  12.116  18.368  0.00  0.00    +0.000 C 
ATOM     14  O   UNL     1      -0.953  12.883  17.720  0.00  0.00    +0.000 OA
ATOM     15  C   UNL     1       0.170  13.101  18.582  0.00  0.00    +0.000 C 
ENDBRANCH   2   3
BRANCH   2  16
ATOM     16  C   UNL     1       3.210   5.536  18.869  0.00  0.00    +0.000 A 
ATOM     17  C   UNL     1       3.256   4.186  18.516  0.00  0.00    +0.000 A 
ATOM     18  C   UNL     1       4.160   3.717  17.552  0.00  0.00    +0.000 A 
ATOM     19  C   UNL     1       5.046   4.612  16.906  0.00  0.00    +0.000 A 
ATOM     20  C   UNL     1       5.018   5.972  17.248  0.00  0.00    +0.000 A 
ATOM     21  C   UNL     1       4.096   6.412  18.206  0.00  0.00    +0.000 A 
BRANCH  18  22
ATOM     22  O   UNL     1       4.256   2.396  17.181  0.00  0.00    +0.000 OA
ATOM     23  C   UNL     1       3.657   1.439  18.046  0.00  0.00    +0.000 C 
ENDBRANCH  18  22
BRANCH  19  24
ATOM     24  O   UNL     1       5.934   4.035  16.029  0.00  0.00    +0.000 OA
ATOM     25  C   UNL     1       5.705   4.278  14.646  0.00  0.00    +0.000 C 
ENDBRANCH  19  24
BRANCH  20  26
ATOM     26  O   UNL     1       5.923   6.809  16.640  0.00  0.00    +0.000 OA
ATOM     27  C   UNL     1       7.105   7.148  17.348  0.00  0.00    +0.000 C 
ENDBRANCH  20  26
ENDBRANCH   2  16
TORSDOF 5
ENDMDL
MODEL 7
REMARK VINA RESULT:      -7.4      2.494      4.197
REMARK  Name = 
REMARK  8 active torsions:
REMARK  status: ('A' for Active; 'I' for Inactive)
REMARK    1  A    between atoms: C_2  and  C_3
REMARK    2  A    between atoms: C_2  and  C_15
REMARK    3  A    between atoms: C_5  and  O_6
REMARK    4  A    between atoms: O_6  and  C_7
REMARK    5  A    between atoms: C_8  and  O_9
REMARK    6  A    between atoms: O_9  and  C_10
REMARK    7  A    between atoms: C_11  and  O_12
REMARK    8  A    between atoms: O_12  and  C_13
REMARK                            x       y       z     vdW  Elec       q    Type
REMARK                         _______ _______ _______ _____ _____    ______ ____
ROOT
ATOM      1  C   UNL     1       3.981   8.312  17.431  0.00  0.00    +0.000 C 
ATOM      2  C   UNL     1       2.999   7.552  17.946  0.00  0.00    +0.000 C 
ENDROOT
BRANCH   2   3
ATOM      3  C   UNL     1       1.863   8.282  18.556  0.00  0.00    +0.000 A 
ATOM      4  C   UNL     1       0.936   8.921  17.722  0.00  0.00    +0.000 A 
ATOM      5  C   UNL     1       0.187  10.007  18.192  0.00  0.00    +0.000 A 
ATOM      6  C   UNL     1       0.339  10.303  19.545  0.00  0.00    +0.000 A 
ATOM      7  C   UNL     1       0.827   9.339  20.425  0.00  0.00    +0.000 A 
ATOM      8  C   UNL     1       1.778   8.430  19.949  0.00  0.00    +0.000 A 
ATOM      9  C   UNL     1       0.028   9.505  21.592  0.00  0.00    +0.000 A 
ATOM     10  C   UNL     1      -0.635  10.716  21.460  0.00  0.00    +0.000 A 
ATOM     11  N   UNL     1      -0.041  11.337  20.374  0.00  0.00    +0.000 N 
ATOM     12  C   UNL     1       0.829  12.459  20.785  0.00  0.00    +0.000 C 
ATOM     13  C   UNL     1       0.173  13.280  21.917  0.00  0.00    +0.000 C 
ATOM     14  O   UNL     1      -0.465  12.477  22.930  0.00  0.00    +0.000 OA
ATOM     15  C   UNL     1      -1.420  11.568  22.370  0.00  0.00    +0.000 C 
ENDBRANCH   2   3
BRANCH   2  16
ATOM     16  C   UNL     1       3.019   6.052  17.869  0.00  0.00    +0.000 A 
ATOM     17  C   UNL     1       2.006   5.252  18.401  0.00  0.00    +0.000 A 
ATOM     18  C   UNL     1       2.046   3.856  18.286  0.00  0.00    +0.000 A 
ATOM     19  C   UNL     1       3.120   3.223  17.615  0.00  0.00    +0.000 A 
ATOM     20  C   UNL     1       4.149   4.008  17.075  0.00  0.00    +0.000 A 
ATOM     21  C   UNL     1       4.076   5.400  17.195  0.00  0.00    +0.000 A 
BRANCH  18  22
ATOM     22  O   UNL     1       1.082   3.024  18.807  0.00  0.00    +0.000 OA
ATOM     23  C   UNL     1       0.764   3.190  20.183  0.00  0.00    +0.000 C 
ENDBRANCH  18  22
BRANCH  19  24
ATOM     24  O   UNL     1       3.092   1.849  17.620  0.00  0.00    +0.000 OA
ATOM     25  C   UNL     1       3.811   1.205  18.666  0.00  0.00    +0.000 C 
ENDBRANCH  19  24
BRANCH  20  26
ATOM     26  O   UNL     1       5.202   3.363  16.472  0.00  0.00    +0.000 OA
ATOM     27  C   UNL     1       6.222   4.152  15.879  0.00  0.00    +0.000 C 
ENDBRANCH  20  26
ENDBRANCH   2  16
TORSDOF 5
ENDMDL
MODEL 8
REMARK VINA RESULT:      -7.3      2.533      4.216
REMARK  Name = 
REMARK  8 active torsions:
REMARK  status: ('A' for Active; 'I' for Inactive)
REMARK    1  A    between atoms: C_2  and  C_3
REMARK    2  A    between atoms: C_2  and  C_15
REMARK    3  A    between atoms: C_5  and  O_6
REMARK    4  A    between atoms: O_6  and  C_7
REMARK    5  A    between atoms: C_8  and  O_9
REMARK    6  A    between atoms: O_9  and  C_10
REMARK    7  A    between atoms: C_11  and  O_12
REMARK    8  A    between atoms: O_12  and  C_13
REMARK                            x       y       z     vdW  Elec       q    Type
REMARK                         _______ _______ _______ _____ _____    ______ ____
ROOT
ATOM      1  C   UNL     1       3.938   8.395  17.437  0.00  0.00    +0.000 C 
ATOM      2  C   UNL     1       2.981   7.611  17.963  0.00  0.00    +0.000 C 
ENDROOT
BRANCH   2   3
ATOM      3  C   UNL     1       1.840   8.312  18.597  0.00  0.00    +0.000 A 
ATOM      4  C   UNL     1       0.868   8.908  17.783  0.00  0.00    +0.000 A 
ATOM      5  C   UNL     1       0.098   9.976  18.260  0.00  0.00    +0.000 A 
ATOM      6  C   UNL     1       0.280  10.297  19.604  0.00  0.00    +0.000 A 
ATOM      7  C   UNL     1       0.825   9.362  20.482  0.00  0.00    +0.000 A 
ATOM      8  C   UNL     1       1.791   8.478  19.989  0.00  0.00    +0.000 A 
ATOM      9  C   UNL     1       0.056   9.519  21.670  0.00  0.00    +0.000 A 
ATOM     10  C   UNL     1      -0.650  10.706  21.541  0.00  0.00    +0.000 A 
ATOM     11  N   UNL     1      -0.110  11.330  20.430  0.00  0.00    +0.000 N 
ATOM     12  C   UNL     1       0.735  12.486  20.799  0.00  0.00    +0.000 C 
ATOM     13  C   UNL     1       0.086  13.301  21.939  0.00  0.00    +0.000 C 
ATOM     14  O   UNL     1      -0.495  12.492  22.982  0.00  0.00    +0.000 OA
ATOM     15  C   UNL     1      -1.436  11.544  22.463  0.00  0.00    +0.000 C 
ENDBRANCH   2   3
BRANCH   2  16
ATOM     16  C   UNL     1       3.032   6.113  17.875  0.00  0.00    +0.000 A 
ATOM     17  C   UNL     1       4.044   5.427  17.202  0.00  0.00    +0.000 A 
ATOM     18  C   UNL     1       4.073   4.026  17.163  0.00  0.00    +0.000 A 
ATOM     19  C   UNL     1       3.070   3.271  17.819  0.00  0.00    +0.000 A 
ATOM     20  C   UNL     1       2.043   3.940  18.499  0.00  0.00    +0.000 A 
ATOM     21  C   UNL     1       2.048   5.340  18.531  0.00  0.00    +0.000 A 
BRANCH  18  22
ATOM     22  O   UNL     1       5.038   3.304  16.500  0.00  0.00    +0.000 OA
ATOM     23  C   UNL     1       6.117   4.039  15.935  0.00  0.00    +0.000 C 
ENDBRANCH  18  22
BRANCH  19  24
ATOM     24  O   UNL     1       3.157   1.909  17.660  0.00  0.00    +0.000 OA
ATOM     25  C   UNL     1       3.738   1.181  18.737  0.00  0.00    +0.000 C 
ENDBRANCH  19  24
BRANCH  20  26
ATOM     26  O   UNL     1       1.058   3.182  19.086  0.00  0.00    +0.000 OA
ATOM     27  C   UNL     1       0.923   3.232  20.497  0.00  0.00    +0.000 C 
ENDBRANCH  20  26
ENDBRANCH   2  16
TORSDOF 5
ENDMDL
MODEL 9
REMARK VINA RESULT:      -7.3      2.937      8.912
REMARK  Name = 
REMARK  8 active torsions:
REMARK  status: ('A' for Active; 'I' for Inactive)
REMARK    1  A    between atoms: C_2  and  C_3
REMARK    2  A    between atoms: C_2  and  C_15
REMARK    3  A    between atoms: C_5  and  O_6
REMARK    4  A    between atoms: O_6  and  C_7
REMARK    5  A    between atoms: C_8  and  O_9
REMARK    6  A    between atoms: O_9  and  C_10
REMARK    7  A    between atoms: C_11  and  O_12
REMARK    8  A    between atoms: O_12  and  C_13
REMARK                            x       y       z     vdW  Elec       q    Type
REMARK                         _______ _______ _______ _____ _____    ______ ____
ROOT
ATOM      1  C   UNL     1       1.913  11.047  18.543  0.00  0.00    +0.000 C 
ATOM      2  C   UNL     1       0.883  10.186  18.626  0.00  0.00    +0.000 C 
ENDROOT
BRANCH   2   3
ATOM      3  C   UNL     1       1.235   8.777  18.917  0.00  0.00    +0.000 A 
ATOM      4  C   UNL     1       1.246   8.337  20.248  0.00  0.00    +0.000 A 
ATOM      5  C   UNL     1       2.033   7.243  20.629  0.00  0.00    +0.000 A 
ATOM      6  C   UNL     1       2.675   6.572  19.590  0.00  0.00    +0.000 A 
ATOM      7  C   UNL     1       2.214   6.698  18.281  0.00  0.00    +0.000 A 
ATOM      8  C   UNL     1       1.663   7.923  17.890  0.00  0.00    +0.000 A 
ATOM      9  C   UNL     1       2.328   5.381  17.750  0.00  0.00    +0.000 A 
ATOM     10  C   UNL     1       3.116   4.656  18.630  0.00  0.00    +0.000 A 
ATOM     11  N   UNL     1       3.644   5.595  19.501  0.00  0.00    +0.000 N 
ATOM     12  C   UNL     1       5.079   5.843  19.246  0.00  0.00    +0.000 C 
ATOM     13  C   UNL     1       5.821   4.523  18.946  0.00  0.00    +0.000 C 
ATOM     14  O   UNL     1       5.097   3.626  18.079  0.00  0.00    +0.000 OA
ATOM     15  C   UNL     1       3.784   3.344  18.577  0.00  0.00    +0.000 C 
ENDBRANCH   2   3
BRANCH   2  16
ATOM     16  C   UNL     1      -0.546  10.626  18.483  0.00  0.00    +0.000 A 
ATOM     17  C   UNL     1      -1.148  11.540  19.349  0.00  0.00    +0.000 A 
ATOM     18  C   UNL     1      -2.477  11.947  19.168  0.00  0.00    +0.000 A 
ATOM     19  C   UNL     1      -3.240  11.440  18.088  0.00  0.00    +0.000 A 
ATOM     20  C   UNL     1      -2.655  10.520  17.207  0.00  0.00    +0.000 A 
ATOM     21  C   UNL     1      -1.322  10.141  17.407  0.00  0.00    +0.000 A 
BRANCH  18  22
ATOM     22  O   UNL     1      -3.121  12.830  20.003  0.00  0.00    +0.000 OA
ATOM     23  C   UNL     1      -2.507  13.094  21.259  0.00  0.00    +0.000 C 
ENDBRANCH  18  22
BRANCH  19  24
ATOM     24  O   UNL     1      -4.550  11.854  18.046  0.00  0.00    +0.000 OA
ATOM     25  C   UNL     1      -5.526  10.910  18.470  0.00  0.00    +0.000 C 
ENDBRANCH  19  24
BRANCH  20  26
ATOM     26  O   UNL     1      -3.435  10.009  16.197  0.00  0.00    +0.000 OA
ATOM     27  C   UNL     1      -3.227  10.493  14.879  0.00  0.00    +0.000 C 
ENDBRANCH  20  26
ENDBRANCH   2  16
TORSDOF 5
ENDMDL
