MODEL 1
REMARK VINA RESULT:      -5.6      0.000      0.000
REMARK  Name = 
REMARK  7 active torsions:
REMARK  status: ('A' for Active; 'I' for Inactive)
REMARK    1  A    between atoms: C_1  and  S_2
REMARK    2  A    between atoms: S_2  and  C_3
REMARK    3  A    between atoms: C_6  and  N_7
REMARK    4  A    between atoms: N_7  and  C_8
REMARK    5  A    between atoms: N_7  and  C_11
REMARK    6  A    between atoms: C_8  and  C_9
REMARK    7  A    between atoms: C_11  and  C_12
REMARK                            x       y       z     vdW  Elec       q    Type
REMARK                         _______ _______ _______ _____ _____    ______ ____
ROOT
ATOM      1  C   UNL     1       2.423   3.785  19.210  0.00  0.00    +0.000 A 
ATOM      2  C   UNL     1       2.661   3.505  17.867  0.00  0.00    +0.000 A 
ATOM      3  C   UNL     1       3.803   4.005  17.223  0.00  0.00    +0.000 A 
ATOM      4  C   UNL     1       4.746   4.803  17.888  0.00  0.00    +0.000 A 
ATOM      5  C   UNL     1       4.452   5.105  19.231  0.00  0.00    +0.000 A 
ATOM      6  C   UNL     1       3.322   4.603  19.887  0.00  0.00    +0.000 A 
ENDROOT
BRANCH   1   8
ATOM      7  C   UNL     1       1.734   2.826  21.668  0.00  0.00    +0.000 C 
ATOM      8  S   UNL     1       0.996   3.128  20.039  0.00  0.00    +0.000 S 
ENDBRANCH   1   8
BRANCH   4   9
ATOM      9  N   UNL     1       5.919   5.235  17.274  0.00  0.00    +0.000 N 
BRANCH   9  10
ATOM     10  C   UNL     1       6.743   4.332  16.443  0.00  0.00    +0.000 C 
BRANCH  10  11
ATOM     11  C   UNL     1       6.959   4.821  15.007  0.00  0.00    +0.000 C 
ATOM     12 CL   UNL     1       6.179   3.768  13.798  0.00  0.00    +0.000 Cl
ENDBRANCH  10  11
ENDBRANCH   9  10
BRANCH   9  13
ATOM     13  C   UNL     1       6.269   6.672  17.231  0.00  0.00    +0.000 C 
BRANCH  13  14
ATOM     14  C   UNL     1       7.606   6.952  17.926  0.00  0.00    +0.000 C 
ATOM     15 CL   UNL     1       8.004   8.688  17.852  0.00  0.00    +0.000 Cl
ENDBRANCH  13  14
ENDBRANCH   9  13
ENDBRANCH   4   9
TORSDOF 6
ENDMDL
MODEL 2
REMARK VINA RESULT:      -5.6      0.608      2.988
REMARK  Name = 
REMARK  7 active torsions:
REMARK  status: ('A' for Active; 'I' for Inactive)
REMARK    1  A    between atoms: C_1  and  S_2
REMARK    2  A    between atoms: S_2  and  C_3
REMARK    3  A    between atoms: C_6  and  N_7
REMARK    4  A    between atoms: N_7  and  C_8
REMARK    5  A    between atoms: N_7  and  C_11
REMARK    6  A    between atoms: C_8  and  C_9
REMARK    7  A    between atoms: C_11  and  C_12
REMARK                            x       y       z     vdW  Elec       q    Type
REMARK                         _______ _______ _______ _____ _____    ______ ____
ROOT
ATOM      1  C   UNL     1       2.384   3.546  18.551  0.00  0.00    +0.000 A 
ATOM      2  C   UNL     1       3.055   2.975  17.473  0.00  0.00    +0.000 A 
ATOM      3  C   UNL     1       4.175   3.607  16.912  0.00  0.00    +0.000 A 
ATOM      4  C   UNL     1       4.665   4.829  17.398  0.00  0.00    +0.000 A 
ATOM      5  C   UNL     1       3.936   5.401  18.457  0.00  0.00    +0.000 A 
ATOM      6  C   UNL     1       2.824   4.774  19.032  0.00  0.00    +0.000 A 
ENDROOT
BRANCH   1   8
ATOM      7  C   UNL     1       1.371   3.041  21.032  0.00  0.00    +0.000 C 
ATOM      8  S   UNL     1       0.986   2.733  19.288  0.00  0.00    +0.000 S 
ENDBRANCH   1   8
BRANCH   4   9
ATOM      9  N   UNL     1       5.820   5.420  16.893  0.00  0.00    +0.000 N 
BRANCH   9  10
ATOM     10  C   UNL     1       6.155   6.835  17.162  0.00  0.00    +0.000 C 
BRANCH  10  11
ATOM     11  C   UNL     1       7.515   7.042  17.838  0.00  0.00    +0.000 C 
ATOM     12 CL   UNL     1       8.045   8.744  17.810  0.00  0.00    +0.000 Cl
ENDBRANCH  10  11
ENDBRANCH   9  10
BRANCH   9  13
ATOM     13  C   UNL     1       6.880   4.602  16.264  0.00  0.00    +0.000 C 
BRANCH  13  14
ATOM     14  C   UNL     1       7.009   4.894  14.764  0.00  0.00    +0.000 C 
ATOM     15 CL   UNL     1       5.884   3.880  13.825  0.00  0.00    +0.000 Cl
ENDBRANCH  13  14
ENDBRANCH   9  13
ENDBRANCH   4   9
TORSDOF 6
ENDMDL
MODEL 3
REMARK VINA RESULT:      -5.5      1.094      3.052
REMARK  Name = 
REMARK  7 active torsions:
REMARK  status: ('A' for Active; 'I' for Inactive)
REMARK    1  A    between atoms: C_1  and  S_2
REMARK    2  A    between atoms: S_2  and  C_3
REMARK    3  A    between atoms: C_6  and  N_7
REMARK    4  A    between atoms: N_7  and  C_8
REMARK    5  A    between atoms: N_7  and  C_11
REMARK    6  A    between atoms: C_8  and  C_9
REMARK    7  A    between atoms: C_11  and  C_12
REMARK                            x       y       z     vdW  Elec       q    Type
REMARK                         _______ _______ _______ _____ _____    ______ ____
ROOT
ATOM      1  C   UNL     1       2.421   4.171  19.086  0.00  0.00    +0.000 A 
ATOM      2  C   UNL     1       3.393   3.202  18.854  0.00  0.00    +0.000 A 
ATOM      3  C   UNL     1       4.502   3.480  18.041  0.00  0.00    +0.000 A 
ATOM      4  C   UNL     1       4.683   4.730  17.427  0.00  0.00    +0.000 A 
ATOM      5  C   UNL     1       3.659   5.671  17.645  0.00  0.00    +0.000 A 
ATOM      6  C   UNL     1       2.554   5.407  18.463  0.00  0.00    +0.000 A 
ENDROOT
BRANCH   1   8
ATOM      7  C   UNL     1       1.923   3.159  21.569  0.00  0.00    +0.000 C 
ATOM      8  S   UNL     1       1.032   3.834  20.141  0.00  0.00    +0.000 S 
ENDBRANCH   1   8
BRANCH   4   9
ATOM      9  N   UNL     1       5.820   5.035  16.684  0.00  0.00    +0.000 N 
BRANCH   9  10
ATOM     10  C   UNL     1       7.174   4.997  17.278  0.00  0.00    +0.000 C 
BRANCH  10  11
ATOM     11  C   UNL     1       7.458   6.134  18.267  0.00  0.00    +0.000 C 
ATOM     12 CL   UNL     1       7.706   7.703  17.458  0.00  0.00    +0.000 Cl
ENDBRANCH  10  11
ENDBRANCH   9  10
BRANCH   9  13
ATOM     13  C   UNL     1       5.751   5.181  15.214  0.00  0.00    +0.000 C 
BRANCH  13  14
ATOM     14  C   UNL     1       6.402   3.995  14.492  0.00  0.00    +0.000 C 
ATOM     15 CL   UNL     1       5.621   3.709  12.917  0.00  0.00    +0.000 Cl
ENDBRANCH  13  14
ENDBRANCH   9  13
ENDBRANCH   4   9
TORSDOF 6
ENDMDL
MODEL 4
REMARK VINA RESULT:      -5.5      1.299      1.505
REMARK  Name = 
REMARK  7 active torsions:
REMARK  status: ('A' for Active; 'I' for Inactive)
REMARK    1  A    between atoms: C_1  and  S_2
REMARK    2  A    between atoms: S_2  and  C_3
REMARK    3  A    between atoms: C_6  and  N_7
REMARK    4  A    between atoms: N_7  and  C_8
REMARK    5  A    between atoms: N_7  and  C_11
REMARK    6  A    between atoms: C_8  and  C_9
REMARK    7  A    between atoms: C_11  and  C_12
REMARK                            x       y       z     vdW  Elec       q    Type
REMARK                         _______ _______ _______ _____ _____    ______ ____
ROOT
ATOM      1  C   UNL     1       2.314   3.900  18.925  0.00  0.00    +0.000 A 
ATOM      2  C   UNL     1       2.972   2.808  18.365  0.00  0.00    +0.000 A 
ATOM      3  C   UNL     1       4.029   2.996  17.462  0.00  0.00    +0.000 A 
ATOM      4  C   UNL     1       4.467   4.273  17.079  0.00  0.00    +0.000 A 
ATOM      5  C   UNL     1       3.750   5.354  17.627  0.00  0.00    +0.000 A 
ATOM      6  C   UNL     1       2.701   5.179  18.537  0.00  0.00    +0.000 A 
ENDROOT
BRANCH   1   8
ATOM      7  C   UNL     1       1.992   3.442  21.593  0.00  0.00    +0.000 C 
ATOM      8  S   UNL     1       0.997   3.669  20.095  0.00  0.00    +0.000 S 
ENDBRANCH   1   8
BRANCH   4   9
ATOM      9  N   UNL     1       5.565   4.463  16.244  0.00  0.00    +0.000 N 
BRANCH   9  10
ATOM     10  C   UNL     1       5.407   4.755  14.803  0.00  0.00    +0.000 C 
BRANCH  10  11
ATOM     11  C   UNL     1       6.377   3.988  13.897  0.00  0.00    +0.000 C 
ATOM     12 CL   UNL     1       5.602   3.400  12.403  0.00  0.00    +0.000 Cl
ENDBRANCH  10  11
ENDBRANCH   9  10
BRANCH   9  13
ATOM     13  C   UNL     1       6.927   4.614  16.800  0.00  0.00    +0.000 C 
BRANCH  13  14
ATOM     14  C   UNL     1       7.248   6.076  17.130  0.00  0.00    +0.000 C 
ATOM     15 CL   UNL     1       7.831   6.231  18.807  0.00  0.00    +0.000 Cl
ENDBRANCH  13  14
ENDBRANCH   9  13
ENDBRANCH   4   9
TORSDOF 6
ENDMDL
MODEL 5
REMARK VINA RESULT:      -5.4      1.276      3.273
REMARK  Name = 
REMARK  7 active torsions:
REMARK  status: ('A' for Active; 'I' for Inactive)
REMARK    1  A    between atoms: C_1  and  S_2
REMARK    2  A    between atoms: S_2  and  C_3
REMARK    3  A    between atoms: C_6  and  N_7
REMARK    4  A    between atoms: N_7  and  C_8
REMARK    5  A    between atoms: N_7  and  C_11
REMARK    6  A    between atoms: C_8  and  C_9
REMARK    7  A    between atoms: C_11  and  C_12
REMARK                            x       y       z     vdW  Elec       q    Type
REMARK                         _______ _______ _______ _____ _____    ______ ____
ROOT
ATOM      1  C   UNL     1       2.354   3.864  18.869  0.00  0.00    +0.000 A 
ATOM      2  C   UNL     1       2.624   5.184  18.517  0.00  0.00    +0.000 A 
ATOM      3  C   UNL     1       3.703   5.493  17.675  0.00  0.00    +0.000 A 
ATOM      4  C   UNL     1       4.554   4.503  17.157  0.00  0.00    +0.000 A 
ATOM      5  C   UNL     1       4.281   3.186  17.570  0.00  0.00    +0.000 A 
ATOM      6  C   UNL     1       3.200   2.865  18.401  0.00  0.00    +0.000 A 
ENDROOT
BRANCH   1   8
ATOM      7  C   UNL     1       1.871   3.038  21.422  0.00  0.00    +0.000 C 
ATOM      8  S   UNL     1       0.969   3.464  19.908  0.00  0.00    +0.000 S 
ENDBRANCH   1   8
BRANCH   4   9
ATOM      9  N   UNL     1       5.577   4.798  16.260  0.00  0.00    +0.000 N 
BRANCH   9  10
ATOM     10  C   UNL     1       6.984   4.930  16.697  0.00  0.00    +0.000 C 
BRANCH  10  11
ATOM     11  C   UNL     1       7.316   6.276  17.350  0.00  0.00    +0.000 C 
ATOM     12 CL   UNL     1       7.890   6.103  19.029  0.00  0.00    +0.000 Cl
ENDBRANCH  10  11
ENDBRANCH   9  10
BRANCH   9  13
ATOM     13  C   UNL     1       5.343   4.762  14.800  0.00  0.00    +0.000 C 
BRANCH  13  14
ATOM     14  C   UNL     1       6.429   3.966  14.068  0.00  0.00    +0.000 C 
ATOM     15 CL   UNL     1       5.841   3.408  12.482  0.00  0.00    +0.000 Cl
ENDBRANCH  13  14
ENDBRANCH   9  13
ENDBRANCH   4   9
TORSDOF 6
ENDMDL
MODEL 6
REMARK VINA RESULT:      -5.4      0.923      1.527
REMARK  Name = 
REMARK  7 active torsions:
REMARK  status: ('A' for Active; 'I' for Inactive)
REMARK    1  A    between atoms: C_1  and  S_2
REMARK    2  A    between atoms: S_2  and  C_3
REMARK    3  A    between atoms: C_6  and  N_7
REMARK    4  A    between atoms: N_7  and  C_8
REMARK    5  A    between atoms: N_7  and  C_11
REMARK    6  A    between atoms: C_8  and  C_9
REMARK    7  A    between atoms: C_11  and  C_12
REMARK                            x       y       z     vdW  Elec       q    Type
REMARK                         _______ _______ _______ _____ _____    ______ ____
ROOT
ATOM      1  C   UNL     1       2.689   3.360  18.883  0.00  0.00    +0.000 A 
ATOM      2  C   UNL     1       3.393   4.350  19.562  0.00  0.00    +0.000 A 
ATOM      3  C   UNL     1       4.526   4.945  18.986  0.00  0.00    +0.000 A 
ATOM      4  C   UNL     1       5.001   4.574  17.718  0.00  0.00    +0.000 A 
ATOM      5  C   UNL     1       4.294   3.538  17.080  0.00  0.00    +0.000 A 
ATOM      6  C   UNL     1       3.156   2.945  17.641  0.00  0.00    +0.000 A 
ENDROOT
BRANCH   1   8
ATOM      7  C   UNL     1       1.555   3.007  21.338  0.00  0.00    +0.000 C 
ATOM      8  S   UNL     1       1.234   2.627  19.594  0.00  0.00    +0.000 S 
ENDBRANCH   1   8
BRANCH   4   9
ATOM      9  N   UNL     1       6.078   5.215  17.111  0.00  0.00    +0.000 N 
BRANCH   9  10
ATOM     10  C   UNL     1       6.910   4.545  16.089  0.00  0.00    +0.000 C 
BRANCH  10  11
ATOM     11  C   UNL     1       6.615   4.985  14.651  0.00  0.00    +0.000 C 
ATOM     12 CL   UNL     1       6.197   3.617  13.586  0.00  0.00    +0.000 Cl
ENDBRANCH  10  11
ENDBRANCH   9  10
BRANCH   9  13
ATOM     13  C   UNL     1       6.295   6.668  17.287  0.00  0.00    +0.000 C 
BRANCH  13  14
ATOM     14  C   UNL     1       7.676   6.969  17.880  0.00  0.00    +0.000 C 
ATOM     15 CL   UNL     1       7.989   5.942  19.302  0.00  0.00    +0.000 Cl
ENDBRANCH  13  14
ENDBRANCH   9  13
ENDBRANCH   4   9
TORSDOF 6
ENDMDL
MODEL 7
REMARK VINA RESULT:      -5.4      1.129      1.241
REMARK  Name = 
REMARK  7 active torsions:
REMARK  status: ('A' for Active; 'I' for Inactive)
REMARK    1  A    between atoms: C_1  and  S_2
REMARK    2  A    between atoms: S_2  and  C_3
REMARK    3  A    between atoms: C_6  and  N_7
REMARK    4  A    between atoms: N_7  and  C_8
REMARK    5  A    between atoms: N_7  and  C_11
REMARK    6  A    between atoms: C_8  and  C_9
REMARK    7  A    between atoms: C_11  and  C_12
REMARK                            x       y       z     vdW  Elec       q    Type
REMARK                         _______ _______ _______ _____ _____    ______ ____
ROOT
ATOM      1  C   UNL     1       2.592   4.185  19.315  0.00  0.00    +0.000 A 
ATOM      2  C   UNL     1       2.502   4.688  18.019  0.00  0.00    +0.000 A 
ATOM      3  C   UNL     1       3.622   4.691  17.174  0.00  0.00    +0.000 A 
ATOM      4  C   UNL     1       4.870   4.200  17.587  0.00  0.00    +0.000 A 
ATOM      5  C   UNL     1       4.938   3.743  18.916  0.00  0.00    +0.000 A 
ATOM      6  C   UNL     1       3.824   3.725  19.765  0.00  0.00    +0.000 A 
ENDROOT
BRANCH   1   8
ATOM      7  C   UNL     1       1.727   2.880  21.547  0.00  0.00    +0.000 C 
ATOM      8  S   UNL     1       1.168   4.148  20.378  0.00  0.00    +0.000 S 
ENDBRANCH   1   8
BRANCH   4   9
ATOM      9  N   UNL     1       5.963   4.131  16.726  0.00  0.00    +0.000 N 
BRANCH   9  10
ATOM     10  C   UNL     1       5.840   3.603  15.350  0.00  0.00    +0.000 C 
BRANCH  10  11
ATOM     11  C   UNL     1       6.527   4.463  14.284  0.00  0.00    +0.000 C 
ATOM     12 CL   UNL     1       6.457   3.730  12.660  0.00  0.00    +0.000 Cl
ENDBRANCH  10  11
ENDBRANCH   9  10
BRANCH   9  13
ATOM     13  C   UNL     1       7.241   4.795  17.064  0.00  0.00    +0.000 C 
BRANCH  13  14
ATOM     14  C   UNL     1       7.052   6.293  17.326  0.00  0.00    +0.000 C 
ATOM     15 CL   UNL     1       8.053   6.825  18.701  0.00  0.00    +0.000 Cl
ENDBRANCH  13  14
ENDBRANCH   9  13
ENDBRANCH   4   9
TORSDOF 6
ENDMDL
MODEL 8
REMARK VINA RESULT:      -5.4      0.850      3.291
REMARK  Name = 
REMARK  7 active torsions:
REMARK  status: ('A' for Active; 'I' for Inactive)
REMARK    1  A    between atoms: C_1  and  S_2
REMARK    2  A    between atoms: S_2  and  C_3
REMARK    3  A    between atoms: C_6  and  N_7
REMARK    4  A    between atoms: N_7  and  C_8
REMARK    5  A    between atoms: N_7  and  C_11
REMARK    6  A    between atoms: C_8  and  C_9
REMARK    7  A    between atoms: C_11  and  C_12
REMARK                            x       y       z     vdW  Elec       q    Type
REMARK                         _______ _______ _______ _____ _____    ______ ____
ROOT
ATOM      1  C   UNL     1       2.936   3.666  19.353  0.00  0.00    +0.000 A 
ATOM      2  C   UNL     1       3.592   4.803  19.815  0.00  0.00    +0.000 A 
ATOM      3  C   UNL     1       4.656   5.360  19.089  0.00  0.00    +0.000 A 
ATOM      4  C   UNL     1       5.109   4.803  17.883  0.00  0.00    +0.000 A 
ATOM      5  C   UNL     1       4.455   3.628  17.469  0.00  0.00    +0.000 A 
ATOM      6  C   UNL     1       3.385   3.070  18.179  0.00  0.00    +0.000 A 
ENDROOT
BRANCH   1   8
ATOM      7  C   UNL     1       0.637   2.287  18.856  0.00  0.00    +0.000 C 
ATOM      8  S   UNL     1       1.566   2.977  20.252  0.00  0.00    +0.000 S 
ENDBRANCH   1   8
BRANCH   4   9
ATOM      9  N   UNL     1       6.113   5.396  17.121  0.00  0.00    +0.000 N 
BRANCH   9  10
ATOM     10  C   UNL     1       6.412   6.841  17.214  0.00  0.00    +0.000 C 
BRANCH  10  11
ATOM     11  C   UNL     1       7.751   7.165  17.884  0.00  0.00    +0.000 C 
ATOM     12 CL   UNL     1       8.106   8.912  17.903  0.00  0.00    +0.000 Cl
ENDBRANCH  10  11
ENDBRANCH   9  10
BRANCH   9  13
ATOM     13  C   UNL     1       7.078   4.572  16.362  0.00  0.00    +0.000 C 
BRANCH  13  14
ATOM     14  C   UNL     1       7.060   4.907  14.866  0.00  0.00    +0.000 C 
ATOM     15 CL   UNL     1       5.725   4.057  14.046  0.00  0.00    +0.000 Cl
ENDBRANCH  13  14
ENDBRANCH   9  13
ENDBRANCH   4   9
TORSDOF 6
ENDMDL
MODEL 9
REMARK VINA RESULT:      -5.3      1.131      1.366
REMARK  Name = 
REMARK  7 active torsions:
REMARK  status: ('A' for Active; 'I' for Inactive)
REMARK    1  A    between atoms: C_1  and  S_2
REMARK    2  A    between atoms: S_2  and  C_3
REMARK    3  A    between atoms: C_6  and  N_7
REMARK    4  A    between atoms: N_7  and  C_8
REMARK    5  A    between atoms: N_7  and  C_11
REMARK    6  A    between atoms: C_8  and  C_9
REMARK    7  A    between atoms: C_11  and  C_12
REMARK                            x       y       z     vdW  Elec       q    Type
REMARK                         _______ _______ _______ _____ _____    ______ ____
ROOT
ATOM      1  C   UNL     1       2.398   4.115  19.322  0.00  0.00    +0.000 A 
ATOM      2  C   UNL     1       3.649   3.594  19.642  0.00  0.00    +0.000 A 
ATOM      3  C   UNL     1       4.788   3.968  18.913  0.00  0.00    +0.000 A 
ATOM      4  C   UNL     1       4.724   4.867  17.837  0.00  0.00    +0.000 A 
ATOM      5  C   UNL     1       3.438   5.338  17.510  0.00  0.00    +0.000 A 
ATOM      6  C   UNL     1       2.297   4.981  18.238  0.00  0.00    +0.000 A 
ENDROOT
BRANCH   1   8
ATOM      7  C   UNL     1       1.770   2.752  21.598  0.00  0.00    +0.000 C 
ATOM      8  S   UNL     1       0.958   3.671  20.263  0.00  0.00    +0.000 S 
ENDBRANCH   1   8
BRANCH   4   9
ATOM      9  N   UNL     1       5.862   5.299  17.161  0.00  0.00    +0.000 N 
BRANCH   9  10
ATOM     10  C   UNL     1       6.683   4.377  16.347  0.00  0.00    +0.000 C 
BRANCH  10  11
ATOM     11  C   UNL     1       6.172   4.177  14.916  0.00  0.00    +0.000 C 
ATOM     12 CL   UNL     1       7.245   4.908  13.694  0.00  0.00    +0.000 Cl
ENDBRANCH  10  11
ENDBRANCH   9  10
BRANCH   9  13
ATOM     13  C   UNL     1       6.170   6.740  17.034  0.00  0.00    +0.000 C 
BRANCH  13  14
ATOM     14  C   UNL     1       7.561   7.075  17.586  0.00  0.00    +0.000 C 
ATOM     15 CL   UNL     1       7.880   6.168  19.086  0.00  0.00    +0.000 Cl
ENDBRANCH  13  14
ENDBRANCH   9  13
ENDBRANCH   4   9
TORSDOF 6
ENDMDL
