MODEL 1
REMARK VINA RESULT:      -7.8      0.000      0.000
REMARK  Name = 
REMARK  4 active torsions:
REMARK  status: ('A' for Active; 'I' for Inactive)
REMARK    1  A    between atoms: C_1  and  C_2
REMARK    2  A    between atoms: C_5  and  C_6
REMARK    3  A    between atoms: N_8  and  N_9
REMARK    4  A    between atoms: C_10  and  C_11
REMARK                            x       y       z     vdW  Elec       q    Type
REMARK                         _______ _______ _______ _____ _____    ______ ____
ROOT
ATOM      1  N   UNL     1       1.702   9.075  18.519  0.00  0.00    +0.000 NA
ATOM      2  C   UNL     1       0.713   9.593  17.860  0.00  0.00    +0.000 C 
ENDROOT
BRANCH   2   3
ATOM      3  C   UNL     1      -0.314  10.437  18.529  0.00  0.00    +0.000 A 
ATOM      4  C   UNL     1       0.042  11.046  19.744  0.00  0.00    +0.000 A 
ATOM      5  C   UNL     1      -0.876  11.824  20.438  0.00  0.00    +0.000 A 
ATOM      6  C   UNL     1      -2.159  11.998  19.928  0.00  0.00    +0.000 A 
ATOM      7  C   UNL     1      -2.542  11.405  18.714  0.00  0.00    +0.000 A 
ATOM      8  C   UNL     1      -3.847  11.602  18.231  0.00  0.00    +0.000 A 
ATOM      9  C   UNL     1      -4.264  11.031  17.031  0.00  0.00    +0.000 A 
ATOM     10  C   UNL     1      -3.378  10.257  16.295  0.00  0.00    +0.000 A 
ATOM     11  C   UNL     1      -2.077  10.051  16.762  0.00  0.00    +0.000 A 
ATOM     12  C   UNL     1      -1.619  10.612  17.983  0.00  0.00    +0.000 A 
ENDBRANCH   2   3
BRANCH   1  15
ATOM     13  C   UNL     1       2.836   7.009  18.255  0.00  0.00    +0.000 C 
ATOM     14  O   UNL     1       2.336   6.517  19.265  0.00  0.00    +0.000 OA
ATOM     15  N   UNL     1       2.575   8.299  17.808  0.00  0.00    +0.000 N 
ATOM     16  H   UNL     1       2.988   8.680  16.969  0.00  0.00    +0.000 HD
BRANCH  13  21
ATOM     17  C   UNL     1       6.643   4.213  14.966  0.00  0.00    +0.000 C 
ATOM     18  C   UNL     1       5.636   4.873  15.859  0.00  0.00    +0.000 A 
ATOM     19  C   UNL     1       4.750   4.125  16.628  0.00  0.00    +0.000 A 
ATOM     20  C   UNL     1       3.815   4.784  17.434  0.00  0.00    +0.000 A 
ATOM     21  C   UNL     1       3.783   6.179  17.457  0.00  0.00    +0.000 A 
ATOM     22  C   UNL     1       4.714   6.843  16.662  0.00  0.00    +0.000 A 
ATOM     23  N   UNL     1       5.631   6.225  15.870  0.00  0.00    +0.000 NA
ENDBRANCH  13  21
ENDBRANCH   1  15
TORSDOF 3
ENDMDL
MODEL 2
REMARK VINA RESULT:      -7.7      2.707      8.671
REMARK  Name = 
REMARK  4 active torsions:
REMARK  status: ('A' for Active; 'I' for Inactive)
REMARK    1  A    between atoms: C_1  and  C_2
REMARK    2  A    between atoms: C_5  and  C_6
REMARK    3  A    between atoms: N_8  and  N_9
REMARK    4  A    between atoms: C_10  and  C_11
REMARK                            x       y       z     vdW  Elec       q    Type
REMARK                         _______ _______ _______ _____ _____    ______ ____
ROOT
ATOM      1  N   UNL     1       2.203   7.935  19.473  0.00  0.00    +0.000 NA
ATOM      2  C   UNL     1       2.215   7.534  18.240  0.00  0.00    +0.000 C 
ENDROOT
BRANCH   2   3
ATOM      3  C   UNL     1       3.163   6.489  17.769  0.00  0.00    +0.000 A 
ATOM      4  C   UNL     1       4.383   6.921  17.224  0.00  0.00    +0.000 A 
ATOM      5  C   UNL     1       5.305   6.002  16.738  0.00  0.00    +0.000 A 
ATOM      6  C   UNL     1       5.014   4.642  16.787  0.00  0.00    +0.000 A 
ATOM      7  C   UNL     1       3.804   4.180  17.329  0.00  0.00    +0.000 A 
ATOM      8  C   UNL     1       3.544   2.798  17.360  0.00  0.00    +0.000 A 
ATOM      9  C   UNL     1       2.357   2.301  17.890  0.00  0.00    +0.000 A 
ATOM     10  C   UNL     1       1.413   3.181  18.401  0.00  0.00    +0.000 A 
ATOM     11  C   UNL     1       1.655   4.557  18.377  0.00  0.00    +0.000 A 
ATOM     12  C   UNL     1       2.851   5.099  17.839  0.00  0.00    +0.000 A 
ENDBRANCH   2   3
BRANCH   1  15
ATOM     13  C   UNL     1       0.933   9.072  21.122  0.00  0.00    +0.000 C 
ATOM     14  O   UNL     1       1.355   8.372  22.041  0.00  0.00    +0.000 OA
ATOM     15  N   UNL     1       1.305   8.916  19.792  0.00  0.00    +0.000 N 
ATOM     16  H   UNL     1       0.955   9.509  19.054  0.00  0.00    +0.000 HD
BRANCH  13  21
ATOM     17  C   UNL     1      -2.817  13.093  22.824  0.00  0.00    +0.000 C 
ATOM     18  C   UNL     1      -1.840  12.080  22.310  0.00  0.00    +0.000 A 
ATOM     19  C   UNL     1      -1.570  11.959  20.950  0.00  0.00    +0.000 A 
ATOM     20  C   UNL     1      -0.663  10.987  20.513  0.00  0.00    +0.000 A 
ATOM     21  C   UNL     1      -0.040  10.155  21.445  0.00  0.00    +0.000 A 
ATOM     22  C   UNL     1      -0.364  10.355  22.784  0.00  0.00    +0.000 A 
ATOM     23  N   UNL     1      -1.243  11.291  23.232  0.00  0.00    +0.000 NA
ENDBRANCH  13  21
ENDBRANCH   1  15
TORSDOF 3
ENDMDL
MODEL 3
REMARK VINA RESULT:      -7.7      2.650      8.659
REMARK  Name = 
REMARK  4 active torsions:
REMARK  status: ('A' for Active; 'I' for Inactive)
REMARK    1  A    between atoms: C_1  and  C_2
REMARK    2  A    between atoms: C_5  and  C_6
REMARK    3  A    between atoms: N_8  and  N_9
REMARK    4  A    between atoms: C_10  and  C_11
REMARK                            x       y       z     vdW  Elec       q    Type
REMARK                         _______ _______ _______ _____ _____    ______ ____
ROOT
ATOM      1  N   UNL     1       1.813   8.161  18.955  0.00  0.00    +0.000 NA
ATOM      2  C   UNL     1       2.385   7.123  19.480  0.00  0.00    +0.000 C 
ENDROOT
BRANCH   2   3
ATOM      3  C   UNL     1       2.934   6.025  18.638  0.00  0.00    +0.000 A 
ATOM      4  C   UNL     1       3.979   6.347  17.758  0.00  0.00    +0.000 A 
ATOM      5  C   UNL     1       4.521   5.379  16.922  0.00  0.00    +0.000 A 
ATOM      6  C   UNL     1       4.021   4.081  16.955  0.00  0.00    +0.000 A 
ATOM      7  C   UNL     1       2.979   3.728  17.827  0.00  0.00    +0.000 A 
ATOM      8  C   UNL     1       2.497   2.408  17.831  0.00  0.00    +0.000 A 
ATOM      9  C   UNL     1       1.466   2.020  18.683  0.00  0.00    +0.000 A 
ATOM     10  C   UNL     1       0.904   2.949  19.546  0.00  0.00    +0.000 A 
ATOM     11  C   UNL     1       1.370   4.266  19.554  0.00  0.00    +0.000 A 
ATOM     12  C   UNL     1       2.414   4.699  18.697  0.00  0.00    +0.000 A 
ENDBRANCH   2   3
BRANCH   1  15
ATOM     13  C   UNL     1       0.383  10.010  19.359  0.00  0.00    +0.000 C 
ATOM     14  O   UNL     1      -0.040  10.035  18.204  0.00  0.00    +0.000 OA
ATOM     15  N   UNL     1       1.325   9.099  19.822  0.00  0.00    +0.000 N 
ATOM     16  H   UNL     1       1.650   9.088  20.778  0.00  0.00    +0.000 HD
BRANCH  13  21
ATOM     17  C   UNL     1      -1.494  13.599  23.448  0.00  0.00    +0.000 C 
ATOM     18  C   UNL     1      -1.024  12.719  22.330  0.00  0.00    +0.000 A 
ATOM     19  C   UNL     1      -1.321  13.013  21.003  0.00  0.00    +0.000 A 
ATOM     20  C   UNL     1      -0.877  12.154  19.992  0.00  0.00    +0.000 A 
ATOM     21  C   UNL     1      -0.141  11.016  20.327  0.00  0.00    +0.000 A 
ATOM     22  C   UNL     1       0.116  10.808  21.679  0.00  0.00    +0.000 A 
ATOM     23  N   UNL     1      -0.306  11.628  22.679  0.00  0.00    +0.000 NA
ENDBRANCH  13  21
ENDBRANCH   1  15
TORSDOF 3
ENDMDL
MODEL 4
REMARK VINA RESULT:      -7.7      2.726      8.594
REMARK  Name = 
REMARK  4 active torsions:
REMARK  status: ('A' for Active; 'I' for Inactive)
REMARK    1  A    between atoms: C_1  and  C_2
REMARK    2  A    between atoms: C_5  and  C_6
REMARK    3  A    between atoms: N_8  and  N_9
REMARK    4  A    between atoms: C_10  and  C_11
REMARK                            x       y       z     vdW  Elec       q    Type
REMARK                         _______ _______ _______ _____ _____    ______ ____
ROOT
ATOM      1  N   UNL     1       2.185   7.945  19.477  0.00  0.00    +0.000 NA
ATOM      2  C   UNL     1       2.223   7.555  18.241  0.00  0.00    +0.000 C 
ENDROOT
BRANCH   2   3
ATOM      3  C   UNL     1       3.182   6.515  17.780  0.00  0.00    +0.000 A 
ATOM      4  C   UNL     1       4.409   6.953  17.257  0.00  0.00    +0.000 A 
ATOM      5  C   UNL     1       5.341   6.039  16.782  0.00  0.00    +0.000 A 
ATOM      6  C   UNL     1       5.054   4.678  16.820  0.00  0.00    +0.000 A 
ATOM      7  C   UNL     1       3.837   4.210  17.341  0.00  0.00    +0.000 A 
ATOM      8  C   UNL     1       3.581   2.827  17.362  0.00  0.00    +0.000 A 
ATOM      9  C   UNL     1       2.387   2.324  17.872  0.00  0.00    +0.000 A 
ATOM     10  C   UNL     1       1.432   3.198  18.371  0.00  0.00    +0.000 A 
ATOM     11  C   UNL     1       1.671   4.575  18.357  0.00  0.00    +0.000 A 
ATOM     12  C   UNL     1       2.873   5.124  17.840  0.00  0.00    +0.000 A 
ENDBRANCH   2   3
BRANCH   1  15
ATOM     13  C   UNL     1       0.895   9.080  21.112  0.00  0.00    +0.000 C 
ATOM     14  O   UNL     1       1.313   8.385  22.036  0.00  0.00    +0.000 OA
ATOM     15  N   UNL     1       1.280   8.922  19.786  0.00  0.00    +0.000 N 
ATOM     16  H   UNL     1       0.934   9.512  19.043  0.00  0.00    +0.000 HD
BRANCH  13  21
ATOM     17  C   UNL     1      -2.877  13.365  21.849  0.00  0.00    +0.000 C 
ATOM     18  C   UNL     1      -1.906  12.229  21.732  0.00  0.00    +0.000 A 
ATOM     19  C   UNL     1      -1.428  11.566  22.859  0.00  0.00    +0.000 A 
ATOM     20  C   UNL     1      -0.509  10.522  22.704  0.00  0.00    +0.000 A 
ATOM     21  C   UNL     1      -0.085  10.159  21.424  0.00  0.00    +0.000 A 
ATOM     22  C   UNL     1      -0.624  10.872  20.357  0.00  0.00    +0.000 A 
ATOM     23  N   UNL     1      -1.517  11.891  20.483  0.00  0.00    +0.000 NA
ENDBRANCH  13  21
ENDBRANCH   1  15
TORSDOF 3
ENDMDL
MODEL 5
REMARK VINA RESULT:      -7.7      5.456      8.640
REMARK  Name = 
REMARK  4 active torsions:
REMARK  status: ('A' for Active; 'I' for Inactive)
REMARK    1  A    between atoms: C_1  and  C_2
REMARK    2  A    between atoms: C_5  and  C_6
REMARK    3  A    between atoms: N_8  and  N_9
REMARK    4  A    between atoms: C_10  and  C_11
REMARK                            x       y       z     vdW  Elec       q    Type
REMARK                         _______ _______ _______ _____ _____    ______ ____
ROOT
ATOM      1  N   UNL     1       7.469   7.596  16.915  0.00  0.00    +0.000 NA
ATOM      2  C   UNL     1       6.262   7.243  17.232  0.00  0.00    +0.000 C 
ENDROOT
BRANCH   2   3
ATOM      3  C   UNL     1       5.722   5.903  16.875  0.00  0.00    +0.000 A 
ATOM      4  C   UNL     1       6.523   5.077  16.071  0.00  0.00    +0.000 A 
ATOM      5  C   UNL     1       6.071   3.824  15.676  0.00  0.00    +0.000 A 
ATOM      6  C   UNL     1       4.813   3.387  16.077  0.00  0.00    +0.000 A 
ATOM      7  C   UNL     1       3.991   4.189  16.885  0.00  0.00    +0.000 A 
ATOM      8  C   UNL     1       2.725   3.715  17.269  0.00  0.00    +0.000 A 
ATOM      9  C   UNL     1       1.882   4.481  18.070  0.00  0.00    +0.000 A 
ATOM     10  C   UNL     1       2.296   5.733  18.501  0.00  0.00    +0.000 A 
ATOM     11  C   UNL     1       3.552   6.219  18.127  0.00  0.00    +0.000 A 
ATOM     12  C   UNL     1       4.434   5.470  17.308  0.00  0.00    +0.000 A 
ENDBRANCH   2   3
BRANCH   1  15
ATOM     13  C   UNL     1       8.591   9.025  18.440  0.00  0.00    +0.000 C 
ATOM     14  O   UNL     1       8.915   8.102  19.186  0.00  0.00    +0.000 OA
ATOM     15  N   UNL     1       7.855   8.858  17.273  0.00  0.00    +0.000 N 
ATOM     16  H   UNL     1       7.609   9.628  16.668  0.00  0.00    +0.000 HD
BRANCH  13  21
ATOM     17  C   UNL     1      10.230  14.219  20.300  0.00  0.00    +0.000 C 
ATOM     18  C   UNL     1       9.806  12.894  19.742  0.00  0.00    +0.000 A 
ATOM     19  C   UNL     1       9.402  12.762  18.417  0.00  0.00    +0.000 A 
ATOM     20  C   UNL     1       8.998  11.509  17.943  0.00  0.00    +0.000 A 
ATOM     21  C   UNL     1       9.007  10.409  18.803  0.00  0.00    +0.000 A 
ATOM     22  C   UNL     1       9.435  10.635  20.109  0.00  0.00    +0.000 A 
ATOM     23  N   UNL     1       9.831  11.843  20.592  0.00  0.00    +0.000 NA
ENDBRANCH  13  21
ENDBRANCH   1  15
TORSDOF 3
ENDMDL
MODEL 6
REMARK VINA RESULT:      -7.7      3.502      8.896
REMARK  Name = 
REMARK  4 active torsions:
REMARK  status: ('A' for Active; 'I' for Inactive)
REMARK    1  A    between atoms: C_1  and  C_2
REMARK    2  A    between atoms: C_5  and  C_6
REMARK    3  A    between atoms: N_8  and  N_9
REMARK    4  A    between atoms: C_10  and  C_11
REMARK                            x       y       z     vdW  Elec       q    Type
REMARK                         _______ _______ _______ _____ _____    ______ ____
ROOT
ATOM      1  N   UNL     1       1.605   7.473  20.520  0.00  0.00    +0.000 NA
ATOM      2  C   UNL     1       2.311   7.315  19.444  0.00  0.00    +0.000 C 
ENDROOT
BRANCH   2   3
ATOM      3  C   UNL     1       2.717   5.965  18.968  0.00  0.00    +0.000 A 
ATOM      4  C   UNL     1       2.186   4.855  19.644  0.00  0.00    +0.000 A 
ATOM      5  C   UNL     1       2.543   3.565  19.273  0.00  0.00    +0.000 A 
ATOM      6  C   UNL     1       3.438   3.372  18.225  0.00  0.00    +0.000 A 
ATOM      7  C   UNL     1       3.982   4.462  17.528  0.00  0.00    +0.000 A 
ATOM      8  C   UNL     1       4.885   4.228  16.476  0.00  0.00    +0.000 A 
ATOM      9  C   UNL     1       5.445   5.283  15.760  0.00  0.00    +0.000 A 
ATOM     10  C   UNL     1       5.106   6.589  16.086  0.00  0.00    +0.000 A 
ATOM     11  C   UNL     1       4.212   6.838  17.129  0.00  0.00    +0.000 A 
ATOM     12  C   UNL     1       3.626   5.789  17.884  0.00  0.00    +0.000 A 
ENDBRANCH   2   3
BRANCH   1  15
ATOM     13  C   UNL     1       0.098   9.011  21.514  0.00  0.00    +0.000 C 
ATOM     14  O   UNL     1      -0.736   8.145  21.772  0.00  0.00    +0.000 OA
ATOM     15  N   UNL     1       1.307   8.759  20.877  0.00  0.00    +0.000 N 
ATOM     16  H   UNL     1       1.984   9.483  20.683  0.00  0.00    +0.000 HD
BRANCH  13  21
ATOM     17  C   UNL     1      -1.356  14.273  23.337  0.00  0.00    +0.000 C 
ATOM     18  C   UNL     1      -0.924  12.936  22.815  0.00  0.00    +0.000 A 
ATOM     19  C   UNL     1      -0.113  12.826  21.689  0.00  0.00    +0.000 A 
ATOM     20  C   UNL     1       0.251  11.556  21.227  0.00  0.00    +0.000 A 
ATOM     21  C   UNL     1      -0.200  10.420  21.900  0.00  0.00    +0.000 A 
ATOM     22  C   UNL     1      -0.998  10.628  23.022  0.00  0.00    +0.000 A 
ATOM     23  N   UNL     1      -1.367  11.851  23.489  0.00  0.00    +0.000 NA
ENDBRANCH  13  21
ENDBRANCH   1  15
TORSDOF 3
ENDMDL
MODEL 7
REMARK VINA RESULT:      -7.6      1.964      2.767
REMARK  Name = 
REMARK  4 active torsions:
REMARK  status: ('A' for Active; 'I' for Inactive)
REMARK    1  A    between atoms: C_1  and  C_2
REMARK    2  A    between atoms: C_5  and  C_6
REMARK    3  A    between atoms: N_8  and  N_9
REMARK    4  A    between atoms: C_10  and  C_11
REMARK                            x       y       z     vdW  Elec       q    Type
REMARK                         _______ _______ _______ _____ _____    ______ ____
ROOT
ATOM      1  N   UNL     1       1.833   7.787  19.773  0.00  0.00    +0.000 NA
ATOM      2  C   UNL     1       1.420   9.016  19.752  0.00  0.00    +0.000 C 
ENDROOT
BRANCH   2   3
ATOM      3  C   UNL     1       0.637   9.596  20.876  0.00  0.00    +0.000 A 
ATOM      4  C   UNL     1       0.808   9.022  22.146  0.00  0.00    +0.000 A 
ATOM      5  C   UNL     1       0.089   9.494  23.237  0.00  0.00    +0.000 A 
ATOM      6  C   UNL     1      -0.811  10.542  23.068  0.00  0.00    +0.000 A 
ATOM      7  C   UNL     1      -0.999  11.139  21.812  0.00  0.00    +0.000 A 
ATOM      8  C   UNL     1      -1.919  12.194  21.679  0.00  0.00    +0.000 A 
ATOM      9  C   UNL     1      -2.133  12.812  20.450  0.00  0.00    +0.000 A 
ATOM     10  C   UNL     1      -1.427  12.384  19.335  0.00  0.00    +0.000 A 
ATOM     11  C   UNL     1      -0.510  11.335  19.449  0.00  0.00    +0.000 A 
ATOM     12  C   UNL     1      -0.270  10.679  20.684  0.00  0.00    +0.000 A 
ENDBRANCH   2   3
BRANCH   1  15
ATOM     13  C   UNL     1       3.354   6.244  18.808  0.00  0.00    +0.000 C 
ATOM     14  O   UNL     1       3.517   5.628  19.861  0.00  0.00    +0.000 OA
ATOM     15  N   UNL     1       2.524   7.351  18.677  0.00  0.00    +0.000 N 
ATOM     16  H   UNL     1       2.396   7.836  17.801  0.00  0.00    +0.000 HD
BRANCH  13  21
ATOM     17  C   UNL     1       6.152   4.015  14.300  0.00  0.00    +0.000 C 
ATOM     18  C   UNL     1       5.426   4.665  15.439  0.00  0.00    +0.000 A 
ATOM     19  C   UNL     1       5.367   6.050  15.562  0.00  0.00    +0.000 A 
ATOM     20  C   UNL     1       4.693   6.614  16.652  0.00  0.00    +0.000 A 
ATOM     21  C   UNL     1       4.089   5.783  17.597  0.00  0.00    +0.000 A 
ATOM     22  C   UNL     1       4.193   4.411  17.385  0.00  0.00    +0.000 A 
ATOM     23  N   UNL     1       4.843   3.839  16.336  0.00  0.00    +0.000 NA
ENDBRANCH  13  21
ENDBRANCH   1  15
TORSDOF 3
ENDMDL
MODEL 8
REMARK VINA RESULT:      -7.6      7.394      9.347
REMARK  Name = 
REMARK  4 active torsions:
REMARK  status: ('A' for Active; 'I' for Inactive)
REMARK    1  A    between atoms: C_1  and  C_2
REMARK    2  A    between atoms: C_5  and  C_6
REMARK    3  A    between atoms: N_8  and  N_9
REMARK    4  A    between atoms: C_10  and  C_11
REMARK                            x       y       z     vdW  Elec       q    Type
REMARK                         _______ _______ _______ _____ _____    ______ ____
ROOT
ATOM      1  N   UNL     1       8.376   8.843  18.397  0.00  0.00    +0.000 NA
ATOM      2  C   UNL     1       8.886   9.968  18.003  0.00  0.00    +0.000 C 
ENDROOT
BRANCH   2   3
ATOM      3  C   UNL     1       9.483  10.934  18.964  0.00  0.00    +0.000 A 
ATOM      4  C   UNL     1       9.192  10.753  20.326  0.00  0.00    +0.000 A 
ATOM      5  C   UNL     1       9.692  11.634  21.277  0.00  0.00    +0.000 A 
ATOM      6  C   UNL     1      10.484  12.706  20.877  0.00  0.00    +0.000 A 
ATOM      7  C   UNL     1      10.794  12.910  19.523  0.00  0.00    +0.000 A 
ATOM      8  C   UNL     1      11.595  14.005  19.155  0.00  0.00    +0.000 A 
ATOM      9  C   UNL     1      11.925  14.240  17.823  0.00  0.00    +0.000 A 
ATOM     10  C   UNL     1      11.461  13.379  16.839  0.00  0.00    +0.000 A 
ATOM     11  C   UNL     1      10.663  12.286  17.188  0.00  0.00    +0.000 A 
ATOM     12  C   UNL     1      10.302  12.019  18.533  0.00  0.00    +0.000 A 
ENDBRANCH   2   3
BRANCH   1  15
ATOM     13  C   UNL     1       7.470   6.743  17.769  0.00  0.00    +0.000 C 
ATOM     14  O   UNL     1       7.611   6.259  18.891  0.00  0.00    +0.000 OA
ATOM     15  N   UNL     1       7.835   8.041  17.431  0.00  0.00    +0.000 N 
ATOM     16  H   UNL     1       7.700   8.423  16.507  0.00  0.00    +0.000 HD
BRANCH  13  21
ATOM     17  C   UNL     1       5.489   3.648  13.339  0.00  0.00    +0.000 C 
ATOM     18  C   UNL     1       5.956   4.415  14.540  0.00  0.00    +0.000 A 
ATOM     19  C   UNL     1       5.259   4.370  15.743  0.00  0.00    +0.000 A 
ATOM     20  C   UNL     1       5.721   5.115  16.834  0.00  0.00    +0.000 A 
ATOM     21  C   UNL     1       6.874   5.892  16.701  0.00  0.00    +0.000 A 
ATOM     22  C   UNL     1       7.509   5.868  15.462  0.00  0.00    +0.000 A 
ATOM     23  N   UNL     1       7.078   5.153  14.389  0.00  0.00    +0.000 NA
ENDBRANCH  13  21
ENDBRANCH   1  15
TORSDOF 3
ENDMDL
MODEL 9
REMARK VINA RESULT:      -7.6      1.859      2.538
REMARK  Name = 
REMARK  4 active torsions:
REMARK  status: ('A' for Active; 'I' for Inactive)
REMARK    1  A    between atoms: C_1  and  C_2
REMARK    2  A    between atoms: C_5  and  C_6
REMARK    3  A    between atoms: N_8  and  N_9
REMARK    4  A    between atoms: C_10  and  C_11
REMARK                            x       y       z     vdW  Elec       q    Type
REMARK                         _______ _______ _______ _____ _____    ______ ____
ROOT
ATOM      1  N   UNL     1       1.937   7.714  19.805  0.00  0.00    +0.000 NA
ATOM      2  C   UNL     1       1.466   8.919  19.720  0.00  0.00    +0.000 C 
ENDROOT
BRANCH   2   3
ATOM      3  C   UNL     1       0.664   9.523  20.818  0.00  0.00    +0.000 A 
ATOM      4  C   UNL     1       0.815   8.977  22.104  0.00  0.00    +0.000 A 
ATOM      5  C   UNL     1       0.078   9.472  23.172  0.00  0.00    +0.000 A 
ATOM      6  C   UNL     1      -0.821  10.514  22.965  0.00  0.00    +0.000 A 
ATOM      7  C   UNL     1      -0.990  11.083  21.693  0.00  0.00    +0.000 A 
ATOM      8  C   UNL     1      -1.909  12.133  21.522  0.00  0.00    +0.000 A 
ATOM      9  C   UNL     1      -2.105  12.722  20.276  0.00  0.00    +0.000 A 
ATOM     10  C   UNL     1      -1.379  12.271  19.182  0.00  0.00    +0.000 A 
ATOM     11  C   UNL     1      -0.463  11.228  19.335  0.00  0.00    +0.000 A 
ATOM     12  C   UNL     1      -0.242  10.599  20.587  0.00  0.00    +0.000 A 
ENDBRANCH   2   3
BRANCH   1  15
ATOM     13  C   UNL     1       3.418   6.109  18.879  0.00  0.00    +0.000 C 
ATOM     14  O   UNL     1       3.522   5.484  19.933  0.00  0.00    +0.000 OA
ATOM     15  N   UNL     1       2.641   7.252  18.728  0.00  0.00    +0.000 N 
ATOM     16  H   UNL     1       2.560   7.745  17.850  0.00  0.00    +0.000 HD
BRANCH  13  21
ATOM     17  C   UNL     1       6.370   4.683  14.148  0.00  0.00    +0.000 C 
ATOM     18  C   UNL     1       5.601   4.979  15.401  0.00  0.00    +0.000 A 
ATOM     19  C   UNL     1       5.022   3.960  16.152  0.00  0.00    +0.000 A 
ATOM     20  C   UNL     1       4.299   4.284  17.306  0.00  0.00    +0.000 A 
ATOM     21  C   UNL     1       4.168   5.620  17.687  0.00  0.00    +0.000 A 
ATOM     22  C   UNL     1       4.789   6.569  16.879  0.00  0.00    +0.000 A 
ATOM     23  N   UNL     1       5.496   6.279  15.754  0.00  0.00    +0.000 NA
ENDBRANCH  13  21
ENDBRANCH   1  15
TORSDOF 3
ENDMDL
