MODEL 1
REMARK VINA RESULT:      -9.1      0.000      0.000
REMARK  Name = 
REMARK  6 active torsions:
REMARK  status: ('A' for Active; 'I' for Inactive)
REMARK    1  A    between atoms: C_1  and  C_2
REMARK    2  A    between atoms: C_2  and  C_3
REMARK    3  A    between atoms: C_5  and  N_6
REMARK    4  A    between atoms: C_10  and  C_11
REMARK    5  A    between atoms: C_24  and  C_25
REMARK    6  A    between atoms: C_24  and  C_26
REMARK                            x       y       z     vdW  Elec       q    Type
REMARK                         _______ _______ _______ _____ _____    ______ ____
ROOT
ATOM      1  N   UNL     1       2.986   6.307  20.267  0.00  0.00    +0.000 N 
ATOM      2  C   UNL     1       2.114   7.403  20.150  0.00  0.00    +0.000 A 
ATOM      3  C   UNL     1       1.327   7.731  21.240  0.00  0.00    +0.000 A 
ATOM      4  C   UNL     1       0.374   8.742  21.118  0.00  0.00    +0.000 A 
ATOM      5  C   UNL     1       0.276   9.456  19.929  0.00  0.00    +0.000 A 
ATOM      6  N   UNL     1       1.144   9.185  18.934  0.00  0.00    +0.000 NA
ATOM      7  N   UNL     1       2.041   8.139  19.029  0.00  0.00    +0.000 NA
ATOM      8  H   UNL     1       3.832   6.652  20.717  0.00  0.00    +0.000 HD
ENDROOT
BRANCH   1  13
ATOM      9  C   UNL     1       3.281   1.747  18.429  0.00  0.00    +0.000 C 
ATOM     10  C   UNL     1       3.399   3.227  17.993  0.00  0.00    +0.000 C 
ATOM     11  C   UNL     1       2.487   3.392  16.766  0.00  0.00    +0.000 C 
ATOM     12  C   UNL     1       2.930   4.099  19.169  0.00  0.00    +0.000 C 
ATOM     13  C   UNL     1       3.275   5.587  19.010  0.00  0.00    +0.000 C 
ATOM     14  C   UNL     1       4.785   5.711  18.755  0.00  0.00    +0.000 C 
ATOM     15  C   UNL     1       5.286   4.853  17.580  0.00  0.00    +0.000 C 
ATOM     16  C   UNL     1       6.831   4.792  17.653  0.00  0.00    +0.000 C 
ATOM     17  C   UNL     1       4.940   5.495  16.225  0.00  0.00    +0.000 C 
ATOM     18  N   UNL     1       4.816   3.458  17.664  0.00  0.00    +0.000 NA
ATOM     19  H   UNL     1       5.384   2.973  18.362  0.00  0.00    +0.000 HD
ENDBRANCH   1  13
BRANCH   5  20
ATOM     20  C   UNL     1      -0.749  10.506  19.689  0.00  0.00    +0.000 A 
ATOM     21  C   UNL     1      -0.909  11.524  20.659  0.00  0.00    +0.000 A 
ATOM     22  C   UNL     1      -1.874  12.517  20.535  0.00  0.00    +0.000 A 
ATOM     23  C   UNL     1      -2.696  12.537  19.419  0.00  0.00    +0.000 A 
ATOM     24  C   UNL     1      -2.569  11.571  18.414  0.00  0.00    +0.000 A 
ATOM     25  C   UNL     1      -3.418  11.646  17.295  0.00  0.00    +0.000 A 
ATOM     26  C   UNL     1      -3.341  10.714  16.265  0.00  0.00    +0.000 A 
ATOM     27  C   UNL     1      -2.422   9.683  16.352  0.00  0.00    +0.000 A 
ATOM     28  C   UNL     1      -1.582   9.590  17.467  0.00  0.00    +0.000 A 
ATOM     29  C   UNL     1      -1.604  10.534  18.529  0.00  0.00    +0.000 A 
ENDBRANCH   5  20
TORSDOF 2
ENDMDL
MODEL 2
REMARK VINA RESULT:      -8.8      0.840      2.472
REMARK  Name = 
REMARK  6 active torsions:
REMARK  status: ('A' for Active; 'I' for Inactive)
REMARK    1  A    between atoms: C_1  and  C_2
REMARK    2  A    between atoms: C_2  and  C_3
REMARK    3  A    between atoms: C_5  and  N_6
REMARK    4  A    between atoms: C_10  and  C_11
REMARK    5  A    between atoms: C_24  and  C_25
REMARK    6  A    between atoms: C_24  and  C_26
REMARK                            x       y       z     vdW  Elec       q    Type
REMARK                         _______ _______ _______ _____ _____    ______ ____
ROOT
ATOM      1  N   UNL     1       3.063   6.079  20.284  0.00  0.00    +0.000 N 
ATOM      2  C   UNL     1       2.222   7.195  20.143  0.00  0.00    +0.000 A 
ATOM      3  C   UNL     1       1.399   7.532  21.203  0.00  0.00    +0.000 A 
ATOM      4  C   UNL     1       0.476   8.566  21.054  0.00  0.00    +0.000 A 
ATOM      5  C   UNL     1       0.444   9.294  19.870  0.00  0.00    +0.000 A 
ATOM      6  N   UNL     1       1.345   9.013  18.908  0.00  0.00    +0.000 NA
ATOM      7  N   UNL     1       2.212   7.945  19.028  0.00  0.00    +0.000 NA
ATOM      8  H   UNL     1       3.897   6.398  20.771  0.00  0.00    +0.000 HD
ENDROOT
BRANCH   1  13
ATOM      9  C   UNL     1       3.528   1.524  18.464  0.00  0.00    +0.000 C 
ATOM     10  C   UNL     1       3.598   3.007  18.024  0.00  0.00    +0.000 C 
ATOM     11  C   UNL     1       2.692   3.137  16.789  0.00  0.00    +0.000 C 
ATOM     12  C   UNL     1       3.091   3.866  19.192  0.00  0.00    +0.000 C 
ATOM     13  C   UNL     1       3.387   5.365  19.031  0.00  0.00    +0.000 C 
ATOM     14  C   UNL     1       4.893   5.539  18.788  0.00  0.00    +0.000 C 
ATOM     15  C   UNL     1       5.433   4.694  17.620  0.00  0.00    +0.000 C 
ATOM     16  C   UNL     1       6.979   4.686  17.707  0.00  0.00    +0.000 C 
ATOM     17  C   UNL     1       5.077   5.319  16.260  0.00  0.00    +0.000 C 
ATOM     18  N   UNL     1       5.010   3.285  17.706  0.00  0.00    +0.000 NA
ATOM     19  H   UNL     1       5.588   2.821  18.410  0.00  0.00    +0.000 HD
ENDBRANCH   1  13
BRANCH   5  20
ATOM     20  C   UNL     1      -0.546  10.370  19.599  0.00  0.00    +0.000 A 
ATOM     21  C   UNL     1      -1.020  10.530  18.276  0.00  0.00    +0.000 A 
ATOM     22  C   UNL     1      -1.911  11.539  17.927  0.00  0.00    +0.000 A 
ATOM     23  C   UNL     1      -2.377  12.408  18.902  0.00  0.00    +0.000 A 
ATOM     24  C   UNL     1      -1.962  12.285  20.233  0.00  0.00    +0.000 A 
ATOM     25  C   UNL     1      -2.476  13.183  21.186  0.00  0.00    +0.000 A 
ATOM     26  C   UNL     1      -2.100  13.112  22.523  0.00  0.00    +0.000 A 
ATOM     27  C   UNL     1      -1.190  12.149  22.921  0.00  0.00    +0.000 A 
ATOM     28  C   UNL     1      -0.661  11.259  21.980  0.00  0.00    +0.000 A 
ATOM     29  C   UNL     1      -1.036  11.275  20.609  0.00  0.00    +0.000 A 
ENDBRANCH   5  20
TORSDOF 2
ENDMDL
MODEL 3
REMARK VINA RESULT:      -8.7      1.859      3.499
REMARK  Name = 
REMARK  6 active torsions:
REMARK  status: ('A' for Active; 'I' for Inactive)
REMARK    1  A    between atoms: C_1  and  C_2
REMARK    2  A    between atoms: C_2  and  C_3
REMARK    3  A    between atoms: C_5  and  N_6
REMARK    4  A    between atoms: C_10  and  C_11
REMARK    5  A    between atoms: C_24  and  C_25
REMARK    6  A    between atoms: C_24  and  C_26
REMARK                            x       y       z     vdW  Elec       q    Type
REMARK                         _______ _______ _______ _____ _____    ______ ____
ROOT
ATOM      1  N   UNL     1       3.477   7.399  16.944  0.00  0.00    +0.000 N 
ATOM      2  C   UNL     1       2.630   7.961  17.913  0.00  0.00    +0.000 A 
ATOM      3  C   UNL     1       2.204   9.265  17.731  0.00  0.00    +0.000 A 
ATOM      4  C   UNL     1       1.454   9.887  18.730  0.00  0.00    +0.000 A 
ATOM      5  C   UNL     1       1.081   9.168  19.859  0.00  0.00    +0.000 A 
ATOM      6  N   UNL     1       1.414   7.864  19.940  0.00  0.00    +0.000 NA
ATOM      7  N   UNL     1       2.214   7.268  18.986  0.00  0.00    +0.000 NA
ATOM      8  H   UNL     1       2.879   7.051  16.197  0.00  0.00    +0.000 HD
ENDROOT
BRANCH   1  13
ATOM      9  C   UNL     1       7.279   4.634  15.472  0.00  0.00    +0.000 C 
ATOM     10  C   UNL     1       6.426   4.932  16.729  0.00  0.00    +0.000 C 
ATOM     11  C   UNL     1       7.418   5.246  17.862  0.00  0.00    +0.000 C 
ATOM     12  C   UNL     1       5.530   6.139  16.410  0.00  0.00    +0.000 C 
ATOM     13  C   UNL     1       4.410   6.365  17.437  0.00  0.00    +0.000 C 
ATOM     14  C   UNL     1       3.610   5.062  17.578  0.00  0.00    +0.000 C 
ATOM     15  C   UNL     1       4.479   3.834  17.903  0.00  0.00    +0.000 C 
ATOM     16  C   UNL     1       3.623   2.565  17.671  0.00  0.00    +0.000 C 
ATOM     17  C   UNL     1       4.895   3.813  19.384  0.00  0.00    +0.000 C 
ATOM     18  N   UNL     1       5.640   3.716  17.002  0.00  0.00    +0.000 NA
ATOM     19  H   UNL     1       5.313   3.345  16.108  0.00  0.00    +0.000 HD
ENDBRANCH   1  13
BRANCH   5  20
ATOM     20  C   UNL     1       0.336   9.765  20.999  0.00  0.00    +0.000 A 
ATOM     21  C   UNL     1       0.542   9.228  22.292  0.00  0.00    +0.000 A 
ATOM     22  C   UNL     1      -0.146   9.697  23.405  0.00  0.00    +0.000 A 
ATOM     23  C   UNL     1      -1.050  10.740  23.262  0.00  0.00    +0.000 A 
ATOM     24  C   UNL     1      -1.278  11.328  22.013  0.00  0.00    +0.000 A 
ATOM     25  C   UNL     1      -2.192  12.393  21.925  0.00  0.00    +0.000 A 
ATOM     26  C   UNL     1      -2.463  13.016  20.711  0.00  0.00    +0.000 A 
ATOM     27  C   UNL     1      -1.831  12.568  19.564  0.00  0.00    +0.000 A 
ATOM     28  C   UNL     1      -0.930  11.500  19.636  0.00  0.00    +0.000 A 
ATOM     29  C   UNL     1      -0.600  10.851  20.858  0.00  0.00    +0.000 A 
ENDBRANCH   5  20
TORSDOF 2
ENDMDL
MODEL 4
REMARK VINA RESULT:      -8.7      1.475      2.461
REMARK  Name = 
REMARK  6 active torsions:
REMARK  status: ('A' for Active; 'I' for Inactive)
REMARK    1  A    between atoms: C_1  and  C_2
REMARK    2  A    between atoms: C_2  and  C_3
REMARK    3  A    between atoms: C_5  and  N_6
REMARK    4  A    between atoms: C_10  and  C_11
REMARK    5  A    between atoms: C_24  and  C_25
REMARK    6  A    between atoms: C_24  and  C_26
REMARK                            x       y       z     vdW  Elec       q    Type
REMARK                         _______ _______ _______ _____ _____    ______ ____
ROOT
ATOM      1  N   UNL     1       3.034   6.097  20.198  0.00  0.00    +0.000 N 
ATOM      2  C   UNL     1       2.301   7.275  19.981  0.00  0.00    +0.000 A 
ATOM      3  C   UNL     1       1.463   7.718  20.989  0.00  0.00    +0.000 A 
ATOM      4  C   UNL     1       0.640   8.821  20.762  0.00  0.00    +0.000 A 
ATOM      5  C   UNL     1       0.725   9.506  19.555  0.00  0.00    +0.000 A 
ATOM      6  N   UNL     1       1.641   9.115  18.648  0.00  0.00    +0.000 NA
ATOM      7  N   UNL     1       2.406   7.982  18.844  0.00  0.00    +0.000 NA
ATOM      8  H   UNL     1       3.870   6.361  20.715  0.00  0.00    +0.000 HD
ENDROOT
BRANCH   1  13
ATOM      9  C   UNL     1       3.546   1.448  18.650  0.00  0.00    +0.000 C 
ATOM     10  C   UNL     1       3.586   2.902  18.120  0.00  0.00    +0.000 C 
ATOM     11  C   UNL     1       2.659   2.943  16.893  0.00  0.00    +0.000 C 
ATOM     12  C   UNL     1       3.082   3.822  19.242  0.00  0.00    +0.000 C 
ATOM     13  C   UNL     1       3.351   5.313  18.986  0.00  0.00    +0.000 C 
ATOM     14  C   UNL     1       4.851   5.495  18.710  0.00  0.00    +0.000 C 
ATOM     15  C   UNL     1       5.387   4.589  17.587  0.00  0.00    +0.000 C 
ATOM     16  C   UNL     1       6.934   4.609  17.650  0.00  0.00    +0.000 C 
ATOM     17  C   UNL     1       5.002   5.125  16.197  0.00  0.00    +0.000 C 
ATOM     18  N   UNL     1       4.988   3.181  17.764  0.00  0.00    +0.000 NA
ATOM     19  H   UNL     1       5.584   2.770  18.486  0.00  0.00    +0.000 HD
ENDBRANCH   1  13
BRANCH   5  20
ATOM     20  C   UNL     1      -0.154  10.653  19.203  0.00  0.00    +0.000 A 
ATOM     21  C   UNL     1      -1.475  10.379  18.775  0.00  0.00    +0.000 A 
ATOM     22  C   UNL     1      -2.348  11.388  18.384  0.00  0.00    +0.000 A 
ATOM     23  C   UNL     1      -1.932  12.711  18.432  0.00  0.00    +0.000 A 
ATOM     24  C   UNL     1      -0.645  13.044  18.869  0.00  0.00    +0.000 A 
ATOM     25  C   UNL     1      -0.278  14.402  18.913  0.00  0.00    +0.000 A 
ATOM     26  C   UNL     1       0.987  14.796  19.336  0.00  0.00    +0.000 A 
ATOM     27  C   UNL     1       1.908  13.832  19.706  0.00  0.00    +0.000 A 
ATOM     28  C   UNL     1       1.560  12.478  19.652  0.00  0.00    +0.000 A 
ATOM     29  C   UNL     1       0.271  12.029  19.254  0.00  0.00    +0.000 A 
ENDBRANCH   5  20
TORSDOF 2
ENDMDL
MODEL 5
REMARK VINA RESULT:      -8.5      2.661      8.731
REMARK  Name = 
REMARK  6 active torsions:
REMARK  status: ('A' for Active; 'I' for Inactive)
REMARK    1  A    between atoms: C_1  and  C_2
REMARK    2  A    between atoms: C_2  and  C_3
REMARK    3  A    between atoms: C_5  and  N_6
REMARK    4  A    between atoms: C_10  and  C_11
REMARK    5  A    between atoms: C_24  and  C_25
REMARK    6  A    between atoms: C_24  and  C_26
REMARK                            x       y       z     vdW  Elec       q    Type
REMARK                         _______ _______ _______ _____ _____    ______ ____
ROOT
ATOM      1  N   UNL     1       0.304  10.736  20.539  0.00  0.00    +0.000 N 
ATOM      2  C   UNL     1       0.932   9.654  19.900  0.00  0.00    +0.000 A 
ATOM      3  C   UNL     1       1.203   8.522  20.648  0.00  0.00    +0.000 A 
ATOM      4  C   UNL     1       1.925   7.476  20.072  0.00  0.00    +0.000 A 
ATOM      5  C   UNL     1       2.298   7.551  18.735  0.00  0.00    +0.000 A 
ATOM      6  N   UNL     1       1.908   8.618  18.010  0.00  0.00    +0.000 NA
ATOM      7  N   UNL     1       1.255   9.685  18.596  0.00  0.00    +0.000 NA
ATOM      8  H   UNL     1      -0.696  10.544  20.527  0.00  0.00    +0.000 HD
ENDROOT
BRANCH   1  13
ATOM      9  C   UNL     1       3.510  14.440  21.057  0.00  0.00    +0.000 C 
ATOM     10  C   UNL     1       2.299  14.011  20.194  0.00  0.00    +0.000 C 
ATOM     11  C   UNL     1       2.732  14.175  18.727  0.00  0.00    +0.000 C 
ATOM     12  C   UNL     1       1.980  12.546  20.530  0.00  0.00    +0.000 C 
ATOM     13  C   UNL     1       0.622  12.070  19.991  0.00  0.00    +0.000 C 
ATOM     14  C   UNL     1      -0.464  13.035  20.489  0.00  0.00    +0.000 C 
ATOM     15  C   UNL     1      -0.176  14.512  20.163  0.00  0.00    +0.000 C 
ATOM     16  C   UNL     1      -1.136  15.386  21.007  0.00  0.00    +0.000 C 
ATOM     17  C   UNL     1      -0.477  14.833  18.689  0.00  0.00    +0.000 C 
ATOM     18  N   UNL     1       1.189  14.914  20.547  0.00  0.00    +0.000 NA
ATOM     19  H   UNL     1       1.207  15.053  21.560  0.00  0.00    +0.000 HD
ENDBRANCH   1  13
BRANCH   5  20
ATOM     20  C   UNL     1       3.119   6.514  18.056  0.00  0.00    +0.000 A 
ATOM     21  C   UNL     1       4.283   6.926  17.364  0.00  0.00    +0.000 A 
ATOM     22  C   UNL     1       5.082   6.028  16.665  0.00  0.00    +0.000 A 
ATOM     23  C   UNL     1       4.754   4.681  16.657  0.00  0.00    +0.000 A 
ATOM     24  C   UNL     1       3.628   4.211  17.343  0.00  0.00    +0.000 A 
ATOM     25  C   UNL     1       3.348   2.833  17.316  0.00  0.00    +0.000 A 
ATOM     26  C   UNL     1       2.243   2.306  17.976  0.00  0.00    +0.000 A 
ATOM     27  C   UNL     1       1.393   3.157  18.660  0.00  0.00    +0.000 A 
ATOM     28  C   UNL     1       1.653   4.532  18.683  0.00  0.00    +0.000 A 
ATOM     29  C   UNL     1       2.785   5.113  18.047  0.00  0.00    +0.000 A 
ENDBRANCH   5  20
TORSDOF 2
ENDMDL
MODEL 6
REMARK VINA RESULT:      -8.3      2.448      3.807
REMARK  Name = 
REMARK  6 active torsions:
REMARK  status: ('A' for Active; 'I' for Inactive)
REMARK    1  A    between atoms: C_1  and  C_2
REMARK    2  A    between atoms: C_2  and  C_3
REMARK    3  A    between atoms: C_5  and  N_6
REMARK    4  A    between atoms: C_10  and  C_11
REMARK    5  A    between atoms: C_24  and  C_25
REMARK    6  A    between atoms: C_24  and  C_26
REMARK                            x       y       z     vdW  Elec       q    Type
REMARK                         _______ _______ _______ _____ _____    ______ ____
ROOT
ATOM      1  N   UNL     1       2.973   7.185  17.459  0.00  0.00    +0.000 N 
ATOM      2  C   UNL     1       2.234   8.024  18.309  0.00  0.00    +0.000 A 
ATOM      3  C   UNL     1       1.902   9.288  17.853  0.00  0.00    +0.000 A 
ATOM      4  C   UNL     1       1.267  10.183  18.713  0.00  0.00    +0.000 A 
ATOM      5  C   UNL     1       0.909   9.772  19.992  0.00  0.00    +0.000 A 
ATOM      6  N   UNL     1       1.142   8.495  20.354  0.00  0.00    +0.000 NA
ATOM      7  N   UNL     1       1.832   7.629  19.528  0.00  0.00    +0.000 NA
ATOM      8  H   UNL     1       2.304   6.735  16.836  0.00  0.00    +0.000 HD
ENDROOT
BRANCH   1  13
ATOM      9  C   UNL     1       7.363   4.998  17.001  0.00  0.00    +0.000 C 
ATOM     10  C   UNL     1       6.153   5.073  17.963  0.00  0.00    +0.000 C 
ATOM     11  C   UNL     1       6.727   5.368  19.359  0.00  0.00    +0.000 C 
ATOM     12  C   UNL     1       5.238   6.207  17.476  0.00  0.00    +0.000 C 
ATOM     13  C   UNL     1       3.850   6.208  18.135  0.00  0.00    +0.000 C 
ATOM     14  C   UNL     1       3.219   4.821  17.939  0.00  0.00    +0.000 C 
ATOM     15  C   UNL     1       4.110   3.662  18.422  0.00  0.00    +0.000 C 
ATOM     16  C   UNL     1       3.531   2.342  17.857  0.00  0.00    +0.000 C 
ATOM     17  C   UNL     1       4.081   3.529  19.954  0.00  0.00    +0.000 C 
ATOM     18  N   UNL     1       5.487   3.760  17.904  0.00  0.00    +0.000 NA
ATOM     19  H   UNL     1       5.482   3.453  16.929  0.00  0.00    +0.000 HD
ENDBRANCH   1  13
BRANCH   5  20
ATOM     20  C   UNL     1       0.286  10.674  20.996  0.00  0.00    +0.000 A 
ATOM     21  C   UNL     1      -0.441  10.094  22.063  0.00  0.00    +0.000 A 
ATOM     22  C   UNL     1      -1.092  10.865  23.018  0.00  0.00    +0.000 A 
ATOM     23  C   UNL     1      -1.017  12.248  22.950  0.00  0.00    +0.000 A 
ATOM     24  C   UNL     1      -0.293  12.879  21.932  0.00  0.00    +0.000 A 
ATOM     25  C   UNL     1      -0.235  14.285  21.917  0.00  0.00    +0.000 A 
ATOM     26  C   UNL     1       0.466  14.969  20.930  0.00  0.00    +0.000 A 
ATOM     27  C   UNL     1       1.106  14.254  19.933  0.00  0.00    +0.000 A 
ATOM     28  C   UNL     1       1.043  12.856  19.929  0.00  0.00    +0.000 A 
ATOM     29  C   UNL     1       0.364  12.112  20.932  0.00  0.00    +0.000 A 
ENDBRANCH   5  20
TORSDOF 2
ENDMDL
MODEL 7
REMARK VINA RESULT:      -8.2      2.397      3.816
REMARK  Name = 
REMARK  6 active torsions:
REMARK  status: ('A' for Active; 'I' for Inactive)
REMARK    1  A    between atoms: C_1  and  C_2
REMARK    2  A    between atoms: C_2  and  C_3
REMARK    3  A    between atoms: C_5  and  N_6
REMARK    4  A    between atoms: C_10  and  C_11
REMARK    5  A    between atoms: C_24  and  C_25
REMARK    6  A    between atoms: C_24  and  C_26
REMARK                            x       y       z     vdW  Elec       q    Type
REMARK                         _______ _______ _______ _____ _____    ______ ____
ROOT
ATOM      1  N   UNL     1       3.549   7.560  16.649  0.00  0.00    +0.000 N 
ATOM      2  C   UNL     1       2.732   8.039  17.687  0.00  0.00    +0.000 A 
ATOM      3  C   UNL     1       2.187   9.304  17.559  0.00  0.00    +0.000 A 
ATOM      4  C   UNL     1       1.465   9.850  18.620  0.00  0.00    +0.000 A 
ATOM      5  C   UNL     1       1.236   9.089  19.761  0.00  0.00    +0.000 A 
ATOM      6  N   UNL     1       1.680   7.818  19.795  0.00  0.00    +0.000 NA
ATOM      7  N   UNL     1       2.455   7.301  18.775  0.00  0.00    +0.000 NA
ATOM      8  H   UNL     1       2.928   7.173  15.941  0.00  0.00    +0.000 HD
ENDROOT
BRANCH   1  13
ATOM      9  C   UNL     1       8.179   7.414  18.325  0.00  0.00    +0.000 C 
ATOM     10  C   UNL     1       6.998   6.476  17.973  0.00  0.00    +0.000 C 
ATOM     11  C   UNL     1       6.796   5.559  19.191  0.00  0.00    +0.000 C 
ATOM     12  C   UNL     1       5.765   7.355  17.714  0.00  0.00    +0.000 C 
ATOM     13  C   UNL     1       4.598   6.603  17.056  0.00  0.00    +0.000 C 
ATOM     14  C   UNL     1       5.115   5.928  15.777  0.00  0.00    +0.000 C 
ATOM     15  C   UNL     1       6.349   5.036  16.003  0.00  0.00    +0.000 C 
ATOM     16  C   UNL     1       6.968   4.712  14.622  0.00  0.00    +0.000 C 
ATOM     17  C   UNL     1       5.962   3.688  16.634  0.00  0.00    +0.000 C 
ATOM     18  N   UNL     1       7.403   5.722  16.773  0.00  0.00    +0.000 NA
ATOM     19  H   UNL     1       7.887   6.367  16.145  0.00  0.00    +0.000 HD
ENDBRANCH   1  13
BRANCH   5  20
ATOM     20  C   UNL     1       0.530   9.610  20.962  0.00  0.00    +0.000 A 
ATOM     21  C   UNL     1       0.811   9.016  22.216  0.00  0.00    +0.000 A 
ATOM     22  C   UNL     1       0.163   9.411  23.380  0.00  0.00    +0.000 A 
ATOM     23  C   UNL     1      -0.772  10.433  23.332  0.00  0.00    +0.000 A 
ATOM     24  C   UNL     1      -1.074  11.075  22.125  0.00  0.00    +0.000 A 
ATOM     25  C   UNL     1      -2.019  12.117  22.132  0.00  0.00    +0.000 A 
ATOM     26  C   UNL     1      -2.362  12.790  20.964  0.00  0.00    +0.000 A 
ATOM     27  C   UNL     1      -1.773  12.417  19.769  0.00  0.00    +0.000 A 
ATOM     28  C   UNL     1      -0.843  11.373  19.746  0.00  0.00    +0.000 A 
ATOM     29  C   UNL     1      -0.439  10.674  20.918  0.00  0.00    +0.000 A 
ENDBRANCH   5  20
TORSDOF 2
ENDMDL
MODEL 8
REMARK VINA RESULT:      -8.2      2.111      8.609
REMARK  Name = 
REMARK  6 active torsions:
REMARK  status: ('A' for Active; 'I' for Inactive)
REMARK    1  A    between atoms: C_1  and  C_2
REMARK    2  A    between atoms: C_2  and  C_3
REMARK    3  A    between atoms: C_5  and  N_6
REMARK    4  A    between atoms: C_10  and  C_11
REMARK    5  A    between atoms: C_24  and  C_25
REMARK    6  A    between atoms: C_24  and  C_26
REMARK                            x       y       z     vdW  Elec       q    Type
REMARK                         _______ _______ _______ _____ _____    ______ ____
ROOT
ATOM      1  N   UNL     1       1.750  10.771  18.215  0.00  0.00    +0.000 N 
ATOM      2  C   UNL     1       1.930   9.427  18.583  0.00  0.00    +0.000 A 
ATOM      3  C   UNL     1       2.284   8.521  17.599  0.00  0.00    +0.000 A 
ATOM      4  C   UNL     1       2.362   7.164  17.912  0.00  0.00    +0.000 A 
ATOM      5  C   UNL     1       2.155   6.747  19.222  0.00  0.00    +0.000 A 
ATOM      6  N   UNL     1       1.932   7.675  20.173  0.00  0.00    +0.000 NA
ATOM      7  N   UNL     1       1.787   9.010  19.852  0.00  0.00    +0.000 NA
ATOM      8  H   UNL     1       2.672  11.202  18.214  0.00  0.00    +0.000 HD
ENDROOT
BRANCH   1  13
ATOM      9  C   UNL     1      -3.072  11.715  18.568  0.00  0.00    +0.000 C 
ATOM     10  C   UNL     1      -1.733  12.017  19.283  0.00  0.00    +0.000 C 
ATOM     11  C   UNL     1      -1.948  11.676  20.767  0.00  0.00    +0.000 C 
ATOM     12  C   UNL     1      -0.653  11.129  18.648  0.00  0.00    +0.000 C 
ATOM     13  C   UNL     1       0.780  11.530  19.031  0.00  0.00    +0.000 C 
ATOM     14  C   UNL     1       0.974  13.017  18.698  0.00  0.00    +0.000 C 
ATOM     15  C   UNL     1      -0.091  13.935  19.324  0.00  0.00    +0.000 C 
ATOM     16  C   UNL     1       0.006  15.320  18.639  0.00  0.00    +0.000 C 
ATOM     17  C   UNL     1       0.176  14.170  20.820  0.00  0.00    +0.000 C 
ATOM     18  N   UNL     1      -1.462  13.451  19.079  0.00  0.00    +0.000 NA
ATOM     19  H   UNL     1      -1.714  13.685  18.116  0.00  0.00    +0.000 HD
ENDBRANCH   1  13
BRANCH   5  20
ATOM     20  C   UNL     1       2.158   5.318  19.634  0.00  0.00    +0.000 A 
ATOM     21  C   UNL     1       1.520   4.968  20.848  0.00  0.00    +0.000 A 
ATOM     22  C   UNL     1       1.515   3.664  21.329  0.00  0.00    +0.000 A 
ATOM     23  C   UNL     1       2.129   2.660  20.595  0.00  0.00    +0.000 A 
ATOM     24  C   UNL     1       2.754   2.941  19.376  0.00  0.00    +0.000 A 
ATOM     25  C   UNL     1       3.349   1.884  18.662  0.00  0.00    +0.000 A 
ATOM     26  C   UNL     1       3.987   2.101  17.446  0.00  0.00    +0.000 A 
ATOM     27  C   UNL     1       4.053   3.385  16.935  0.00  0.00    +0.000 A 
ATOM     28  C   UNL     1       3.478   4.447  17.641  0.00  0.00    +0.000 A 
ATOM     29  C   UNL     1       2.790   4.270  18.874  0.00  0.00    +0.000 A 
ENDBRANCH   5  20
TORSDOF 2
ENDMDL
MODEL 9
REMARK VINA RESULT:      -8.1      2.848      8.770
REMARK  Name = 
REMARK  6 active torsions:
REMARK  status: ('A' for Active; 'I' for Inactive)
REMARK    1  A    between atoms: C_1  and  C_2
REMARK    2  A    between atoms: C_2  and  C_3
REMARK    3  A    between atoms: C_5  and  N_6
REMARK    4  A    between atoms: C_10  and  C_11
REMARK    5  A    between atoms: C_24  and  C_25
REMARK    6  A    between atoms: C_24  and  C_26
REMARK                            x       y       z     vdW  Elec       q    Type
REMARK                         _______ _______ _______ _____ _____    ______ ____
ROOT
ATOM      1  N   UNL     1       0.224  11.362  20.820  0.00  0.00    +0.000 N 
ATOM      2  C   UNL     1       0.744  10.156  20.321  0.00  0.00    +0.000 A 
ATOM      3  C   UNL     1       0.907   9.101  21.201  0.00  0.00    +0.000 A 
ATOM      4  C   UNL     1       1.523   7.930  20.761  0.00  0.00    +0.000 A 
ATOM      5  C   UNL     1       1.897   7.808  19.428  0.00  0.00    +0.000 A 
ATOM      6  N   UNL     1       1.610   8.812  18.577  0.00  0.00    +0.000 NA
ATOM      7  N   UNL     1       1.063   9.999  19.026  0.00  0.00    +0.000 NA
ATOM      8  H   UNL     1      -0.790  11.266  20.822  0.00  0.00    +0.000 HD
ENDROOT
BRANCH   1  13
ATOM      9  C   UNL     1       3.944  14.588  20.694  0.00  0.00    +0.000 C 
ATOM     10  C   UNL     1       2.606  14.269  19.984  0.00  0.00    +0.000 C 
ATOM     11  C   UNL     1       2.910  14.243  18.477  0.00  0.00    +0.000 C 
ATOM     12  C   UNL     1       2.124  12.901  20.489  0.00  0.00    +0.000 C 
ATOM     13  C   UNL     1       0.667  12.584  20.118  0.00  0.00    +0.000 C 
ATOM     14  C   UNL     1      -0.221  13.736  20.611  0.00  0.00    +0.000 C 
ATOM     15  C   UNL     1       0.233  15.122  20.119  0.00  0.00    +0.000 C 
ATOM     16  C   UNL     1      -0.509  16.196  20.952  0.00  0.00    +0.000 C 
ATOM     17  C   UNL     1      -0.166  15.358  18.652  0.00  0.00    +0.000 C 
ATOM     18  N   UNL     1       1.672  15.352  20.342  0.00  0.00    +0.000 NA
ATOM     19  H   UNL     1       1.809  15.572  21.331  0.00  0.00    +0.000 HD
ENDBRANCH   1  13
BRANCH   5  20
ATOM     20  C   UNL     1       2.613   6.623  18.885  0.00  0.00    +0.000 A 
ATOM     21  C   UNL     1       3.592   6.830  17.884  0.00  0.00    +0.000 A 
ATOM     22  C   UNL     1       4.276   5.775  17.291  0.00  0.00    +0.000 A 
ATOM     23  C   UNL     1       4.018   4.475  17.700  0.00  0.00    +0.000 A 
ATOM     24  C   UNL     1       3.078   4.210  18.703  0.00  0.00    +0.000 A 
ATOM     25  C   UNL     1       2.865   2.875  19.092  0.00  0.00    +0.000 A 
ATOM     26  C   UNL     1       1.942   2.548  20.081  0.00  0.00    +0.000 A 
ATOM     27  C   UNL     1       1.209   3.555  20.682  0.00  0.00    +0.000 A 
ATOM     28  C   UNL     1       1.401   4.886  20.294  0.00  0.00    +0.000 A 
ATOM     29  C   UNL     1       2.352   5.271  19.309  0.00  0.00    +0.000 A 
ENDBRANCH   5  20
TORSDOF 2
ENDMDL
