MODEL 1
REMARK VINA RESULT:      -7.1      0.000      0.000
REMARK  Name = 
REMARK  13 active torsions:
REMARK  status: ('A' for Active; 'I' for Inactive)
REMARK    1  A    between atoms: C_1  and  C_2
REMARK    2  A    between atoms: C_2  and  C_3
REMARK    3  A    between atoms: C_7  and  C_8
REMARK    4  A    between atoms: C_8  and  C_9
REMARK    5  A    between atoms: C_10  and  N_11
REMARK    6  A    between atoms: C_12  and  C_14
REMARK    7  A    between atoms: C_14  and  N_15
REMARK    8  A    between atoms: N_15  and  C_16
REMARK    9  A    between atoms: N_15  and  C_20
REMARK   10  A    between atoms: C_16  and  C_17
REMARK   11  A    between atoms: C_17  and  O_19
REMARK   12  A    between atoms: C_20  and  C_21
REMARK   13  A    between atoms: C_21  and  O_23
REMARK                            x       y       z     vdW  Elec       q    Type
REMARK                         _______ _______ _______ _____ _____    ______ ____
ROOT
ATOM      1  N   UNL     1       4.917   4.633  18.224  0.00  0.00    +0.000 N 
ATOM      2  C   UNL     1       6.238   4.826  18.613  0.00  0.00    +0.000 C 
ATOM      3  O   UNL     1       6.636   5.148  19.734  0.00  0.00    +0.000 OA
ATOM      4  H   UNL     1       4.723   4.897  17.268  0.00  0.00    +0.000 HD
ENDROOT
BRANCH   1  10
ATOM      5  C   UNL     1       3.418   3.545  19.833  0.00  0.00    +0.000 A 
ATOM      6  C   UNL     1       2.219   3.579  20.574  0.00  0.00    +0.000 A 
ATOM      7  C   UNL     1       1.429   4.718  20.611  0.00  0.00    +0.000 A 
ATOM      8  C   UNL     1       1.826   5.845  19.902  0.00  0.00    +0.000 A 
ATOM      9  C   UNL     1       3.017   5.867  19.143  0.00  0.00    +0.000 A 
ATOM     10  C   UNL     1       3.819   4.698  19.110  0.00  0.00    +0.000 A 
BRANCH   5  12
ATOM     11  C   UNL     1       3.620   1.338  18.612  0.00  0.00    +0.000 C 
ATOM     12  C   UNL     1       4.119   2.201  19.767  0.00  0.00    +0.000 C 
ENDBRANCH   5  12
BRANCH   9  13
ATOM     13  C   UNL     1       3.273   7.172  18.406  0.00  0.00    +0.000 C 
ATOM     14  C   UNL     1       2.095   8.050  18.012  0.00  0.00    +0.000 C 
ENDBRANCH   9  13
ENDBRANCH   1  10
BRANCH   2  15
ATOM     15  C   UNL     1       7.229   4.715  17.441  0.00  0.00    +0.000 C 
BRANCH  15  16
ATOM     16  N   UNL     1       7.165   5.912  16.552  0.00  0.00    +0.000 NA
BRANCH  16  17
ATOM     17  C   UNL     1       6.268   5.688  15.375  0.00  0.00    +0.000 C 
BRANCH  17  18
ATOM     18  C   UNL     1       6.885   4.884  14.232  0.00  0.00    +0.000 C 
ATOM     19  O   UNL     1       6.470   3.794  13.872  0.00  0.00    +0.000 OA
BRANCH  18  20
ATOM     20  O   UNL     1       7.969   5.470  13.674  0.00  0.00    +0.000 OA
ATOM     21  H   UNL     1       8.076   6.430  13.877  0.00  0.00    +0.000 HD
ENDBRANCH  18  20
ENDBRANCH  17  18
ENDBRANCH  16  17
BRANCH  16  22
ATOM     22  C   UNL     1       6.680   7.088  17.334  0.00  0.00    +0.000 C 
BRANCH  22  23
ATOM     23  C   UNL     1       7.852   7.955  17.784  0.00  0.00    +0.000 C 
ATOM     24  O   UNL     1       8.182   9.006  17.260  0.00  0.00    +0.000 OA
BRANCH  23  25
ATOM     25  O   UNL     1       8.497   7.433  18.859  0.00  0.00    +0.000 OA
ATOM     26  H   UNL     1       8.252   7.939  19.660  0.00  0.00    +0.000 HD
ENDBRANCH  23  25
ENDBRANCH  22  23
ENDBRANCH  16  22
ENDBRANCH  15  16
ENDBRANCH   2  15
TORSDOF 11
ENDMDL
MODEL 2
REMARK VINA RESULT:      -7.0      1.289      3.306
REMARK  Name = 
REMARK  13 active torsions:
REMARK  status: ('A' for Active; 'I' for Inactive)
REMARK    1  A    between atoms: C_1  and  C_2
REMARK    2  A    between atoms: C_2  and  C_3
REMARK    3  A    between atoms: C_7  and  C_8
REMARK    4  A    between atoms: C_8  and  C_9
REMARK    5  A    between atoms: C_10  and  N_11
REMARK    6  A    between atoms: C_12  and  C_14
REMARK    7  A    between atoms: C_14  and  N_15
REMARK    8  A    between atoms: N_15  and  C_16
REMARK    9  A    between atoms: N_15  and  C_20
REMARK   10  A    between atoms: C_16  and  C_17
REMARK   11  A    between atoms: C_17  and  O_19
REMARK   12  A    between atoms: C_20  and  C_21
REMARK   13  A    between atoms: C_21  and  O_23
REMARK                            x       y       z     vdW  Elec       q    Type
REMARK                         _______ _______ _______ _____ _____    ______ ____
ROOT
ATOM      1  N   UNL     1       4.533   5.562  19.075  0.00  0.00    +0.000 N 
ATOM      2  C   UNL     1       4.670   5.706  17.699  0.00  0.00    +0.000 C 
ATOM      3  O   UNL     1       3.902   5.281  16.834  0.00  0.00    +0.000 OA
ATOM      4  H   UNL     1       5.408   5.472  19.572  0.00  0.00    +0.000 HD
ENDROOT
BRANCH   1  10
ATOM      5  C   UNL     1       3.331   3.550  19.802  0.00  0.00    +0.000 A 
ATOM      6  C   UNL     1       2.135   2.964  20.262  0.00  0.00    +0.000 A 
ATOM      7  C   UNL     1       1.042   3.742  20.614  0.00  0.00    +0.000 A 
ATOM      8  C   UNL     1       1.128   5.123  20.509  0.00  0.00    +0.000 A 
ATOM      9  C   UNL     1       2.302   5.765  20.055  0.00  0.00    +0.000 A 
ATOM     10  C   UNL     1       3.415   4.963  19.695  0.00  0.00    +0.000 A 
BRANCH   5  12
ATOM     11  C   UNL     1       3.835   1.468  18.453  0.00  0.00    +0.000 C 
ATOM     12  C   UNL     1       4.401   2.586  19.323  0.00  0.00    +0.000 C 
ENDBRANCH   5  12
BRANCH   9  13
ATOM     13  C   UNL     1       2.204   7.280  19.971  0.00  0.00    +0.000 C 
ATOM     14  C   UNL     1       2.048   7.943  18.611  0.00  0.00    +0.000 C 
ENDBRANCH   9  13
ENDBRANCH   1  10
BRANCH   2  15
ATOM     15  C   UNL     1       5.995   6.378  17.296  0.00  0.00    +0.000 C 
BRANCH  15  16
ATOM     16  N   UNL     1       7.016   5.372  16.877  0.00  0.00    +0.000 NA
BRANCH  16  17
ATOM     17  C   UNL     1       7.730   4.778  18.051  0.00  0.00    +0.000 C 
BRANCH  17  18
ATOM     18  C   UNL     1       7.877   5.704  19.258  0.00  0.00    +0.000 C 
ATOM     19  O   UNL     1       7.461   5.432  20.373  0.00  0.00    +0.000 OA
BRANCH  18  20
ATOM     20  O   UNL     1       8.478   6.882  18.974  0.00  0.00    +0.000 OA
ATOM     21  H   UNL     1       8.361   7.198  18.045  0.00  0.00    +0.000 HD
ENDBRANCH  18  20
ENDBRANCH  17  18
ENDBRANCH  16  17
BRANCH  16  22
ATOM     22  C   UNL     1       6.354   4.287  16.094  0.00  0.00    +0.000 C 
BRANCH  22  23
ATOM     23  C   UNL     1       6.630   4.458  14.602  0.00  0.00    +0.000 C 
ATOM     24  O   UNL     1       6.028   3.880  13.712  0.00  0.00    +0.000 OA
BRANCH  23  25
ATOM     25  O   UNL     1       7.627   5.348  14.360  0.00  0.00    +0.000 OA
ATOM     26  H   UNL     1       8.491   4.905  14.480  0.00  0.00    +0.000 HD
ENDBRANCH  23  25
ENDBRANCH  22  23
ENDBRANCH  16  22
ENDBRANCH  15  16
ENDBRANCH   2  15
TORSDOF 11
ENDMDL
MODEL 3
REMARK VINA RESULT:      -6.8      0.355      2.878
REMARK  Name = 
REMARK  13 active torsions:
REMARK  status: ('A' for Active; 'I' for Inactive)
REMARK    1  A    between atoms: C_1  and  C_2
REMARK    2  A    between atoms: C_2  and  C_3
REMARK    3  A    between atoms: C_7  and  C_8
REMARK    4  A    between atoms: C_8  and  C_9
REMARK    5  A    between atoms: C_10  and  N_11
REMARK    6  A    between atoms: C_12  and  C_14
REMARK    7  A    between atoms: C_14  and  N_15
REMARK    8  A    between atoms: N_15  and  C_16
REMARK    9  A    between atoms: N_15  and  C_20
REMARK   10  A    between atoms: C_16  and  C_17
REMARK   11  A    between atoms: C_17  and  O_19
REMARK   12  A    between atoms: C_20  and  C_21
REMARK   13  A    between atoms: C_21  and  O_23
REMARK                            x       y       z     vdW  Elec       q    Type
REMARK                         _______ _______ _______ _____ _____    ______ ____
ROOT
ATOM      1  N   UNL     1       4.702   4.444  18.099  0.00  0.00    +0.000 N 
ATOM      2  C   UNL     1       5.985   4.682  18.580  0.00  0.00    +0.000 C 
ATOM      3  O   UNL     1       6.286   5.076  19.708  0.00  0.00    +0.000 OA
ATOM      4  H   UNL     1       4.583   4.648  17.116  0.00  0.00    +0.000 HD
ENDROOT
BRANCH   1  10
ATOM      5  C   UNL     1       2.876   5.789  19.035  0.00  0.00    +0.000 A 
ATOM      6  C   UNL     1       1.821   5.906  19.962  0.00  0.00    +0.000 A 
ATOM      7  C   UNL     1       1.416   4.824  20.729  0.00  0.00    +0.000 A 
ATOM      8  C   UNL     1       2.063   3.604  20.582  0.00  0.00    +0.000 A 
ATOM      9  C   UNL     1       3.126   3.429  19.668  0.00  0.00    +0.000 A 
ATOM     10  C   UNL     1       3.536   4.540  18.888  0.00  0.00    +0.000 A 
BRANCH   5  12
ATOM     11  C   UNL     1       2.135   7.994  18.038  0.00  0.00    +0.000 C 
ATOM     12  C   UNL     1       3.310   7.075  18.358  0.00  0.00    +0.000 C 
ENDBRANCH   5  12
BRANCH   9  13
ATOM     13  C   UNL     1       3.737   2.038  19.667  0.00  0.00    +0.000 C 
ATOM     14  C   UNL     1       4.913   1.739  20.585  0.00  0.00    +0.000 C 
ENDBRANCH   9  13
ENDBRANCH   1  10
BRANCH   2  15
ATOM     15  C   UNL     1       7.069   4.522  17.499  0.00  0.00    +0.000 C 
BRANCH  15  16
ATOM     16  N   UNL     1       7.114   5.703  16.587  0.00  0.00    +0.000 NA
BRANCH  16  17
ATOM     17  C   UNL     1       6.295   5.487  15.352  0.00  0.00    +0.000 C 
BRANCH  17  18
ATOM     18  C   UNL     1       7.044   4.858  14.179  0.00  0.00    +0.000 C 
ATOM     19  O   UNL     1       7.974   5.399  13.603  0.00  0.00    +0.000 OA
BRANCH  18  20
ATOM     20  O   UNL     1       6.557   3.654  13.801  0.00  0.00    +0.000 OA
ATOM     21  H   UNL     1       6.006   3.664  12.981  0.00  0.00    +0.000 HD
ENDBRANCH  18  20
ENDBRANCH  17  18
ENDBRANCH  16  17
BRANCH  16  22
ATOM     22  C   UNL     1       6.619   6.911  17.311  0.00  0.00    +0.000 C 
BRANCH  22  23
ATOM     23  C   UNL     1       7.788   7.765  17.792  0.00  0.00    +0.000 C 
ATOM     24  O   UNL     1       8.139   8.817  17.282  0.00  0.00    +0.000 OA
BRANCH  23  25
ATOM     25  O   UNL     1       8.405   7.232  18.879  0.00  0.00    +0.000 OA
ATOM     26  H   UNL     1       9.295   7.627  18.971  0.00  0.00    +0.000 HD
ENDBRANCH  23  25
ENDBRANCH  22  23
ENDBRANCH  16  22
ENDBRANCH  15  16
ENDBRANCH   2  15
TORSDOF 11
ENDMDL
MODEL 4
REMARK VINA RESULT:      -6.8      1.412      1.950
REMARK  Name = 
REMARK  13 active torsions:
REMARK  status: ('A' for Active; 'I' for Inactive)
REMARK    1  A    between atoms: C_1  and  C_2
REMARK    2  A    between atoms: C_2  and  C_3
REMARK    3  A    between atoms: C_7  and  C_8
REMARK    4  A    between atoms: C_8  and  C_9
REMARK    5  A    between atoms: C_10  and  N_11
REMARK    6  A    between atoms: C_12  and  C_14
REMARK    7  A    between atoms: C_14  and  N_15
REMARK    8  A    between atoms: N_15  and  C_16
REMARK    9  A    between atoms: N_15  and  C_20
REMARK   10  A    between atoms: C_16  and  C_17
REMARK   11  A    between atoms: C_17  and  O_19
REMARK   12  A    between atoms: C_20  and  C_21
REMARK   13  A    between atoms: C_21  and  O_23
REMARK                            x       y       z     vdW  Elec       q    Type
REMARK                         _______ _______ _______ _____ _____    ______ ____
ROOT
ATOM      1  N   UNL     1       4.273   4.865  18.606  0.00  0.00    +0.000 N 
ATOM      2  C   UNL     1       3.949   4.724  17.261  0.00  0.00    +0.000 C 
ATOM      3  O   UNL     1       2.960   4.155  16.799  0.00  0.00    +0.000 OA
ATOM      4  H   UNL     1       5.265   4.852  18.798  0.00  0.00    +0.000 HD
ENDROOT
BRANCH   1  10
ATOM      5  C   UNL     1       3.490   3.089  20.107  0.00  0.00    +0.000 A 
ATOM      6  C   UNL     1       2.534   2.636  21.039  0.00  0.00    +0.000 A 
ATOM      7  C   UNL     1       1.553   3.483  21.532  0.00  0.00    +0.000 A 
ATOM      8  C   UNL     1       1.510   4.801  21.097  0.00  0.00    +0.000 A 
ATOM      9  C   UNL     1       2.442   5.309  20.165  0.00  0.00    +0.000 A 
ATOM     10  C   UNL     1       3.442   4.437  19.665  0.00  0.00    +0.000 A 
BRANCH   5  12
ATOM     11  C   UNL     1       3.773   1.203  18.444  0.00  0.00    +0.000 C 
ATOM     12  C   UNL     1       4.423   2.032  19.546  0.00  0.00    +0.000 C 
ENDBRANCH   5  12
BRANCH   9  13
ATOM     13  C   UNL     1       2.222   6.763  19.777  0.00  0.00    +0.000 C 
ATOM     14  C   UNL     1       1.510   7.694  20.747  0.00  0.00    +0.000 C 
ENDBRANCH   9  13
ENDBRANCH   1  10
BRANCH   2  15
ATOM     15  C   UNL     1       5.044   5.262  16.323  0.00  0.00    +0.000 C 
BRANCH  15  16
ATOM     16  N   UNL     1       6.407   5.068  16.901  0.00  0.00    +0.000 NA
BRANCH  16  17
ATOM     17  C   UNL     1       7.282   4.247  16.005  0.00  0.00    +0.000 C 
BRANCH  17  18
ATOM     18  C   UNL     1       7.126   4.527  14.511  0.00  0.00    +0.000 C 
ATOM     19  O   UNL     1       7.596   5.507  13.955  0.00  0.00    +0.000 OA
BRANCH  18  20
ATOM     20  O   UNL     1       6.381   3.608  13.857  0.00  0.00    +0.000 OA
ATOM     21  H   UNL     1       6.875   2.808  13.553  0.00  0.00    +0.000 HD
ENDBRANCH  18  20
ENDBRANCH  17  18
ENDBRANCH  16  17
BRANCH  16  22
ATOM     22  C   UNL     1       7.042   6.398  17.136  0.00  0.00    +0.000 C 
BRANCH  22  23
ATOM     23  C   UNL     1       7.688   6.447  18.518  0.00  0.00    +0.000 C 
ATOM     24  O   UNL     1       8.498   7.286  18.879  0.00  0.00    +0.000 OA
BRANCH  23  25
ATOM     25  O   UNL     1       7.250   5.449  19.329  0.00  0.00    +0.000 OA
ATOM     26  H   UNL     1       6.437   5.058  18.948  0.00  0.00    +0.000 HD
ENDBRANCH  23  25
ENDBRANCH  22  23
ENDBRANCH  16  22
ENDBRANCH  15  16
ENDBRANCH   2  15
TORSDOF 11
ENDMDL
MODEL 5
REMARK VINA RESULT:      -6.7      1.390      4.350
REMARK  Name = 
REMARK  13 active torsions:
REMARK  status: ('A' for Active; 'I' for Inactive)
REMARK    1  A    between atoms: C_1  and  C_2
REMARK    2  A    between atoms: C_2  and  C_3
REMARK    3  A    between atoms: C_7  and  C_8
REMARK    4  A    between atoms: C_8  and  C_9
REMARK    5  A    between atoms: C_10  and  N_11
REMARK    6  A    between atoms: C_12  and  C_14
REMARK    7  A    between atoms: C_14  and  N_15
REMARK    8  A    between atoms: N_15  and  C_16
REMARK    9  A    between atoms: N_15  and  C_20
REMARK   10  A    between atoms: C_16  and  C_17
REMARK   11  A    between atoms: C_17  and  O_19
REMARK   12  A    between atoms: C_20  and  C_21
REMARK   13  A    between atoms: C_21  and  O_23
REMARK                            x       y       z     vdW  Elec       q    Type
REMARK                         _______ _______ _______ _____ _____    ______ ____
ROOT
ATOM      1  N   UNL     1       4.491   5.700  18.769  0.00  0.00    +0.000 N 
ATOM      2  C   UNL     1       4.727   5.590  17.403  0.00  0.00    +0.000 C 
ATOM      3  O   UNL     1       4.090   4.907  16.599  0.00  0.00    +0.000 OA
ATOM      4  H   UNL     1       5.326   5.825  19.325  0.00  0.00    +0.000 HD
ENDROOT
BRANCH   1  10
ATOM      5  C   UNL     1       2.292   5.876  19.844  0.00  0.00    +0.000 A 
ATOM      6  C   UNL     1       1.300   5.290  20.655  0.00  0.00    +0.000 A 
ATOM      7  C   UNL     1       1.386   3.964  21.052  0.00  0.00    +0.000 A 
ATOM      8  C   UNL     1       2.472   3.201  20.644  0.00  0.00    +0.000 A 
ATOM      9  C   UNL     1       3.496   3.736  19.831  0.00  0.00    +0.000 A 
ATOM     10  C   UNL     1       3.402   5.093  19.431  0.00  0.00    +0.000 A 
BRANCH   5  12
ATOM     11  C   UNL     1       1.437   8.086  20.732  0.00  0.00    +0.000 C 
ATOM     12  C   UNL     1       2.150   7.366  19.593  0.00  0.00    +0.000 C 
ENDBRANCH   5  12
BRANCH   9  13
ATOM     13  C   UNL     1       4.623   2.766  19.513  0.00  0.00    +0.000 C 
ATOM     14  C   UNL     1       4.857   1.569  20.422  0.00  0.00    +0.000 C 
ENDBRANCH   9  13
ENDBRANCH   1  10
BRANCH   2  15
ATOM     15  C   UNL     1       5.993   6.339  16.952  0.00  0.00    +0.000 C 
BRANCH  15  16
ATOM     16  N   UNL     1       7.136   5.403  16.734  0.00  0.00    +0.000 NA
BRANCH  16  17
ATOM     17  C   UNL     1       7.674   4.868  18.025  0.00  0.00    +0.000 C 
BRANCH  17  18
ATOM     18  C   UNL     1       7.984   5.923  19.085  0.00  0.00    +0.000 C 
ATOM     19  O   UNL     1       8.377   7.049  18.823  0.00  0.00    +0.000 OA
BRANCH  18  20
ATOM     20  O   UNL     1       7.825   5.486  20.355  0.00  0.00    +0.000 OA
ATOM     21  H   UNL     1       7.016   5.819  20.814  0.00  0.00    +0.000 HD
ENDBRANCH  18  20
ENDBRANCH  17  18
ENDBRANCH  16  17
BRANCH  16  22
ATOM     22  C   UNL     1       6.695   4.270  15.869  0.00  0.00    +0.000 C 
BRANCH  22  23
ATOM     23  C   UNL     1       6.931   4.595  14.397  0.00  0.00    +0.000 C 
ATOM     24  O   UNL     1       6.337   4.076  13.465  0.00  0.00    +0.000 OA
BRANCH  23  25
ATOM     25  O   UNL     1       7.879   5.551  14.225  0.00  0.00    +0.000 OA
ATOM     26  H   UNL     1       7.444   6.421  14.115  0.00  0.00    +0.000 HD
ENDBRANCH  23  25
ENDBRANCH  22  23
ENDBRANCH  16  22
ENDBRANCH  15  16
ENDBRANCH   2  15
TORSDOF 11
ENDMDL
MODEL 6
REMARK VINA RESULT:      -6.7      1.398      3.310
REMARK  Name = 
REMARK  13 active torsions:
REMARK  status: ('A' for Active; 'I' for Inactive)
REMARK    1  A    between atoms: C_1  and  C_2
REMARK    2  A    between atoms: C_2  and  C_3
REMARK    3  A    between atoms: C_7  and  C_8
REMARK    4  A    between atoms: C_8  and  C_9
REMARK    5  A    between atoms: C_10  and  N_11
REMARK    6  A    between atoms: C_12  and  C_14
REMARK    7  A    between atoms: C_14  and  N_15
REMARK    8  A    between atoms: N_15  and  C_16
REMARK    9  A    between atoms: N_15  and  C_20
REMARK   10  A    between atoms: C_16  and  C_17
REMARK   11  A    between atoms: C_17  and  O_19
REMARK   12  A    between atoms: C_20  and  C_21
REMARK   13  A    between atoms: C_21  and  O_23
REMARK                            x       y       z     vdW  Elec       q    Type
REMARK                         _______ _______ _______ _____ _____    ______ ____
ROOT
ATOM      1  N   UNL     1       4.445   5.910  19.107  0.00  0.00    +0.000 N 
ATOM      2  C   UNL     1       4.455   6.332  17.782  0.00  0.00    +0.000 C 
ATOM      3  O   UNL     1       3.592   6.109  16.932  0.00  0.00    +0.000 OA
ATOM      4  H   UNL     1       5.360   5.703  19.484  0.00  0.00    +0.000 HD
ENDROOT
BRANCH   1  10
ATOM      5  C   UNL     1       3.330   3.799  19.674  0.00  0.00    +0.000 A 
ATOM      6  C   UNL     1       2.170   3.132  20.115  0.00  0.00    +0.000 A 
ATOM      7  C   UNL     1       1.068   3.836  20.579  0.00  0.00    +0.000 A 
ATOM      8  C   UNL     1       1.110   5.224  20.606  0.00  0.00    +0.000 A 
ATOM      9  C   UNL     1       2.247   5.945  20.177  0.00  0.00    +0.000 A 
ATOM     10  C   UNL     1       3.368   5.218  19.704  0.00  0.00    +0.000 A 
BRANCH   5  12
ATOM     11  C   UNL     1       3.918   2.148  17.849  0.00  0.00    +0.000 C 
ATOM     12  C   UNL     1       4.409   2.922  19.068  0.00  0.00    +0.000 C 
ENDBRANCH   5  12
BRANCH   9  13
ATOM     13  C   UNL     1       2.101   7.456  20.245  0.00  0.00    +0.000 C 
ATOM     14  C   UNL     1       1.053   8.064  21.165  0.00  0.00    +0.000 C 
ENDBRANCH   9  13
ENDBRANCH   1  10
BRANCH   2  15
ATOM     15  C   UNL     1       5.761   7.047  17.392  0.00  0.00    +0.000 C 
BRANCH  15  16
ATOM     16  N   UNL     1       6.698   6.128  16.680  0.00  0.00    +0.000 NA
BRANCH  16  17
ATOM     17  C   UNL     1       7.419   5.221  17.628  0.00  0.00    +0.000 C 
BRANCH  17  18
ATOM     18  C   UNL     1       7.737   5.828  18.993  0.00  0.00    +0.000 C 
ATOM     19  O   UNL     1       7.325   5.372  20.048  0.00  0.00    +0.000 OA
BRANCH  18  20
ATOM     20  O   UNL     1       8.488   6.951  18.931  0.00  0.00    +0.000 OA
ATOM     21  H   UNL     1       8.709   7.356  19.804  0.00  0.00    +0.000 HD
ENDBRANCH  18  20
ENDBRANCH  17  18
ENDBRANCH  16  17
BRANCH  16  22
ATOM     22  C   UNL     1       5.939   5.313  15.687  0.00  0.00    +0.000 C 
BRANCH  22  23
ATOM     23  C   UNL     1       6.869   4.795  14.594  0.00  0.00    +0.000 C 
ATOM     24  O   UNL     1       7.835   5.400  14.157  0.00  0.00    +0.000 OA
BRANCH  23  25
ATOM     25  O   UNL     1       6.514   3.559  14.156  0.00  0.00    +0.000 OA
ATOM     26  H   UNL     1       7.136   3.273  13.457  0.00  0.00    +0.000 HD
ENDBRANCH  23  25
ENDBRANCH  22  23
ENDBRANCH  16  22
ENDBRANCH  15  16
ENDBRANCH   2  15
TORSDOF 11
ENDMDL
MODEL 7
REMARK VINA RESULT:      -6.6      1.299      3.322
REMARK  Name = 
REMARK  13 active torsions:
REMARK  status: ('A' for Active; 'I' for Inactive)
REMARK    1  A    between atoms: C_1  and  C_2
REMARK    2  A    between atoms: C_2  and  C_3
REMARK    3  A    between atoms: C_7  and  C_8
REMARK    4  A    between atoms: C_8  and  C_9
REMARK    5  A    between atoms: C_10  and  N_11
REMARK    6  A    between atoms: C_12  and  C_14
REMARK    7  A    between atoms: C_14  and  N_15
REMARK    8  A    between atoms: N_15  and  C_16
REMARK    9  A    between atoms: N_15  and  C_20
REMARK   10  A    between atoms: C_16  and  C_17
REMARK   11  A    between atoms: C_17  and  O_19
REMARK   12  A    between atoms: C_20  and  C_21
REMARK   13  A    between atoms: C_21  and  O_23
REMARK                            x       y       z     vdW  Elec       q    Type
REMARK                         _______ _______ _______ _____ _____    ______ ____
ROOT
ATOM      1  N   UNL     1       3.270   5.508  17.776  0.00  0.00    +0.000 N 
ATOM      2  C   UNL     1       4.577   5.973  17.878  0.00  0.00    +0.000 C 
ATOM      3  O   UNL     1       5.296   5.932  18.877  0.00  0.00    +0.000 OA
ATOM      4  H   UNL     1       2.684   6.050  17.156  0.00  0.00    +0.000 HD
ENDROOT
BRANCH   1  10
ATOM      5  C   UNL     1       2.388   3.424  18.723  0.00  0.00    +0.000 A 
ATOM      6  C   UNL     1       1.563   2.788  19.673  0.00  0.00    +0.000 A 
ATOM      7  C   UNL     1       0.956   3.506  20.692  0.00  0.00    +0.000 A 
ATOM      8  C   UNL     1       1.162   4.877  20.776  0.00  0.00    +0.000 A 
ATOM      9  C   UNL     1       1.979   5.566  19.851  0.00  0.00    +0.000 A 
ATOM     10  C   UNL     1       2.595   4.825  18.812  0.00  0.00    +0.000 A 
BRANCH   5  12
ATOM     11  C   UNL     1       3.711   1.368  18.071  0.00  0.00    +0.000 C 
ATOM     12  C   UNL     1       2.882   2.551  17.584  0.00  0.00    +0.000 C 
ENDBRANCH   5  12
BRANCH   9  13
ATOM     13  C   UNL     1       2.061   7.067  20.076  0.00  0.00    +0.000 C 
ATOM     14  C   UNL     1       1.193   7.710  21.147  0.00  0.00    +0.000 C 
ENDBRANCH   9  13
ENDBRANCH   1  10
BRANCH   2  15
ATOM     15  C   UNL     1       5.055   6.697  16.606  0.00  0.00    +0.000 C 
BRANCH  15  16
ATOM     16  N   UNL     1       6.277   6.056  16.037  0.00  0.00    +0.000 NA
BRANCH  16  17
ATOM     17  C   UNL     1       7.348   5.879  17.068  0.00  0.00    +0.000 C 
BRANCH  17  18
ATOM     18  C   UNL     1       7.840   7.169  17.720  0.00  0.00    +0.000 C 
ATOM     19  O   UNL     1       7.863   8.249  17.150  0.00  0.00    +0.000 OA
BRANCH  18  20
ATOM     20  O   UNL     1       8.293   7.006  18.984  0.00  0.00    +0.000 OA
ATOM     21  H   UNL     1       8.535   6.078  19.225  0.00  0.00    +0.000 HD
ENDBRANCH  18  20
ENDBRANCH  17  18
ENDBRANCH  16  17
BRANCH  16  22
ATOM     22  C   UNL     1       5.919   4.729  15.455  0.00  0.00    +0.000 C 
BRANCH  22  23
ATOM     23  C   UNL     1       6.649   4.507  14.133  0.00  0.00    +0.000 C 
ATOM     24  O   UNL     1       7.407   5.310  13.613  0.00  0.00    +0.000 OA
BRANCH  23  25
ATOM     25  O   UNL     1       6.375   3.293  13.589  0.00  0.00    +0.000 OA
ATOM     26  H   UNL     1       5.507   3.331  13.138  0.00  0.00    +0.000 HD
ENDBRANCH  23  25
ENDBRANCH  22  23
ENDBRANCH  16  22
ENDBRANCH  15  16
ENDBRANCH   2  15
TORSDOF 11
ENDMDL
MODEL 8
REMARK VINA RESULT:      -6.6      1.301      1.856
REMARK  Name = 
REMARK  13 active torsions:
REMARK  status: ('A' for Active; 'I' for Inactive)
REMARK    1  A    between atoms: C_1  and  C_2
REMARK    2  A    between atoms: C_2  and  C_3
REMARK    3  A    between atoms: C_7  and  C_8
REMARK    4  A    between atoms: C_8  and  C_9
REMARK    5  A    between atoms: C_10  and  N_11
REMARK    6  A    between atoms: C_12  and  C_14
REMARK    7  A    between atoms: C_14  and  N_15
REMARK    8  A    between atoms: N_15  and  C_16
REMARK    9  A    between atoms: N_15  and  C_20
REMARK   10  A    between atoms: C_16  and  C_17
REMARK   11  A    between atoms: C_17  and  O_19
REMARK   12  A    between atoms: C_20  and  C_21
REMARK   13  A    between atoms: C_21  and  O_23
REMARK                            x       y       z     vdW  Elec       q    Type
REMARK                         _______ _______ _______ _____ _____    ______ ____
ROOT
ATOM      1  N   UNL     1       4.449   5.159  19.244  0.00  0.00    +0.000 N 
ATOM      2  C   UNL     1       4.622   5.380  17.881  0.00  0.00    +0.000 C 
ATOM      3  O   UNL     1       3.834   5.083  16.982  0.00  0.00    +0.000 OA
ATOM      4  H   UNL     1       5.305   4.958  19.743  0.00  0.00    +0.000 HD
ENDROOT
BRANCH   1  10
ATOM      5  C   UNL     1       3.102   3.219  19.906  0.00  0.00    +0.000 A 
ATOM      6  C   UNL     1       1.854   2.702  20.310  0.00  0.00    +0.000 A 
ATOM      7  C   UNL     1       0.794   3.542  20.617  0.00  0.00    +0.000 A 
ATOM      8  C   UNL     1       0.965   4.917  20.523  0.00  0.00    +0.000 A 
ATOM      9  C   UNL     1       2.193   5.490  20.125  0.00  0.00    +0.000 A 
ATOM     10  C   UNL     1       3.272   4.625  19.811  0.00  0.00    +0.000 A 
BRANCH   5  12
ATOM     11  C   UNL     1       3.714   1.439  18.215  0.00  0.00    +0.000 C 
ATOM     12  C   UNL     1       4.134   2.196  19.470  0.00  0.00    +0.000 C 
ENDBRANCH   5  12
BRANCH   9  13
ATOM     13  C   UNL     1       2.186   7.008  20.044  0.00  0.00    +0.000 C 
ATOM     14  C   UNL     1       2.058   7.683  18.687  0.00  0.00    +0.000 C 
ENDBRANCH   9  13
ENDBRANCH   1  10
BRANCH   2  15
ATOM     15  C   UNL     1       6.009   5.954  17.539  0.00  0.00    +0.000 C 
BRANCH  15  16
ATOM     16  N   UNL     1       6.937   4.892  17.048  0.00  0.00    +0.000 NA
BRANCH  16  17
ATOM     17  C   UNL     1       7.559   5.257  15.737  0.00  0.00    +0.000 C 
BRANCH  17  18
ATOM     18  C   UNL     1       6.814   4.751  14.502  0.00  0.00    +0.000 C 
ATOM     19  O   UNL     1       5.870   3.979  14.552  0.00  0.00    +0.000 OA
BRANCH  18  20
ATOM     20  O   UNL     1       7.321   5.204  13.333  0.00  0.00    +0.000 OA
ATOM     21  H   UNL     1       8.280   5.012  13.191  0.00  0.00    +0.000 HD
ENDBRANCH  18  20
ENDBRANCH  17  18
ENDBRANCH  16  17
BRANCH  16  22
ATOM     22  C   UNL     1       8.008   4.660  18.062  0.00  0.00    +0.000 C 
BRANCH  22  23
ATOM     23  C   UNL     1       7.881   5.653  19.214  0.00  0.00    +0.000 C 
ATOM     24  O   UNL     1       7.351   5.413  20.286  0.00  0.00    +0.000 OA
BRANCH  23  25
ATOM     25  O   UNL     1       8.444   6.855  18.923  0.00  0.00    +0.000 OA
ATOM     26  H   UNL     1       9.418   6.775  18.972  0.00  0.00    +0.000 HD
ENDBRANCH  23  25
ENDBRANCH  22  23
ENDBRANCH  16  22
ENDBRANCH  15  16
ENDBRANCH   2  15
TORSDOF 11
ENDMDL
MODEL 9
REMARK VINA RESULT:      -6.5      1.742      3.504
REMARK  Name = 
REMARK  13 active torsions:
REMARK  status: ('A' for Active; 'I' for Inactive)
REMARK    1  A    between atoms: C_1  and  C_2
REMARK    2  A    between atoms: C_2  and  C_3
REMARK    3  A    between atoms: C_7  and  C_8
REMARK    4  A    between atoms: C_8  and  C_9
REMARK    5  A    between atoms: C_10  and  N_11
REMARK    6  A    between atoms: C_12  and  C_14
REMARK    7  A    between atoms: C_14  and  N_15
REMARK    8  A    between atoms: N_15  and  C_16
REMARK    9  A    between atoms: N_15  and  C_20
REMARK   10  A    between atoms: C_16  and  C_17
REMARK   11  A    between atoms: C_17  and  O_19
REMARK   12  A    between atoms: C_20  and  C_21
REMARK   13  A    between atoms: C_21  and  O_23
REMARK                            x       y       z     vdW  Elec       q    Type
REMARK                         _______ _______ _______ _____ _____    ______ ____
ROOT
ATOM      1  N   UNL     1       3.811   5.437  18.386  0.00  0.00    +0.000 N 
ATOM      2  C   UNL     1       3.708   6.578  17.598  0.00  0.00    +0.000 C 
ATOM      3  O   UNL     1       2.669   7.153  17.270  0.00  0.00    +0.000 OA
ATOM      4  H   UNL     1       4.577   4.827  18.134  0.00  0.00    +0.000 HD
ENDROOT
BRANCH   1  10
ATOM      5  C   UNL     1       2.026   5.461  20.069  0.00  0.00    +0.000 A 
ATOM      6  C   UNL     1       1.048   4.752  20.795  0.00  0.00    +0.000 A 
ATOM      7  C   UNL     1       0.742   3.434  20.491  0.00  0.00    +0.000 A 
ATOM      8  C   UNL     1       1.414   2.801  19.454  0.00  0.00    +0.000 A 
ATOM      9  C   UNL     1       2.403   3.462  18.693  0.00  0.00    +0.000 A 
ATOM     10  C   UNL     1       2.711   4.809  19.010  0.00  0.00    +0.000 A 
BRANCH   5  12
ATOM     11  C   UNL     1       1.120   7.638  20.987  0.00  0.00    +0.000 C 
ATOM     12  C   UNL     1       2.361   6.847  20.586  0.00  0.00    +0.000 C 
ENDBRANCH   5  12
BRANCH   9  13
ATOM     13  C   UNL     1       3.057   2.604  17.622  0.00  0.00    +0.000 C 
ATOM     14  C   UNL     1       3.742   1.306  18.022  0.00  0.00    +0.000 C 
ENDBRANCH   9  13
ENDBRANCH   1  10
BRANCH   2  15
ATOM     15  C   UNL     1       5.062   7.038  17.029  0.00  0.00    +0.000 C 
BRANCH  15  16
ATOM     16  N   UNL     1       5.961   5.879  16.746  0.00  0.00    +0.000 NA
BRANCH  16  17
ATOM     17  C   UNL     1       6.037   5.576  15.282  0.00  0.00    +0.000 C 
BRANCH  17  18
ATOM     18  C   UNL     1       6.138   4.092  14.932  0.00  0.00    +0.000 C 
ATOM     19  O   UNL     1       6.324   3.677  13.799  0.00  0.00    +0.000 OA
BRANCH  18  20
ATOM     20  O   UNL     1       5.962   3.267  15.988  0.00  0.00    +0.000 OA
ATOM     21  H   UNL     1       6.163   2.315  15.814  0.00  0.00    +0.000 HD
ENDBRANCH  18  20
ENDBRANCH  17  18
ENDBRANCH  16  17
BRANCH  16  22
ATOM     22  C   UNL     1       7.328   6.172  17.268  0.00  0.00    +0.000 C 
BRANCH  22  23
ATOM     23  C   UNL     1       7.738   5.134  18.310  0.00  0.00    +0.000 C 
ATOM     24  O   UNL     1       7.566   5.250  19.512  0.00  0.00    +0.000 OA
BRANCH  23  25
ATOM     25  O   UNL     1       8.315   4.040  17.749  0.00  0.00    +0.000 OA
ATOM     26  H   UNL     1       8.670   3.464  18.457  0.00  0.00    +0.000 HD
ENDBRANCH  23  25
ENDBRANCH  22  23
ENDBRANCH  16  22
ENDBRANCH  15  16
ENDBRANCH   2  15
TORSDOF 11
ENDMDL
