MODEL 1
REMARK VINA RESULT:      -8.7      0.000      0.000
REMARK  Name = 
REMARK  6 active torsions:
REMARK  status: ('A' for Active; 'I' for Inactive)
REMARK    1  A    between atoms: C_1  and  C_2
REMARK    2  A    between atoms: C_2  and  O_3
REMARK    3  A    between atoms: O_3  and  C_4
REMARK    4  A    between atoms: C_7  and  N_8
REMARK    5  A    between atoms: N_14  and  C_15
REMARK    6  A    between atoms: C_15  and  C_16
REMARK                            x       y       z     vdW  Elec       q    Type
REMARK                         _______ _______ _______ _____ _____    ______ ____
ROOT
ATOM      1  N   UNL     1       3.102   6.462  18.539  0.00  0.00    +0.000 N 
ATOM      2  N   UNL     1       2.778   5.849  19.721  0.00  0.00    +0.000 NA
ATOM      3  N   UNL     1       2.035   6.670  20.453  0.00  0.00    +0.000 NA
ATOM      4  C   UNL     1       1.858   7.805  19.735  0.00  0.00    +0.000 A 
ATOM      5  C   UNL     1       1.104   8.992  20.074  0.00  0.00    +0.000 A 
ATOM      6  O   UNL     1       0.424   9.084  21.091  0.00  0.00    +0.000 OA
ATOM      7  N   UNL     1       1.181   9.996  19.085  0.00  0.00    +0.000 N 
ATOM      8  C   UNL     1       1.773   9.725  17.852  0.00  0.00    +0.000 A 
ATOM      9  N   UNL     1       2.432   8.649  17.521  0.00  0.00    +0.000 NA
ATOM     10  C   UNL     1       2.480   7.717  18.511  0.00  0.00    +0.000 A 
ENDROOT
BRANCH   1  14
ATOM     11  C   UNL     1       5.542   4.422  15.708  0.00  0.00    +0.000 A 
ATOM     12  C   UNL     1       4.674   3.716  16.537  0.00  0.00    +0.000 A 
ATOM     13  C   UNL     1       3.874   4.407  17.464  0.00  0.00    +0.000 A 
ATOM     14  C   UNL     1       3.937   5.808  17.588  0.00  0.00    +0.000 A 
ATOM     15  C   UNL     1       4.806   6.508  16.761  0.00  0.00    +0.000 A 
ATOM     16  C   UNL     1       5.617   5.812  15.833  0.00  0.00    +0.000 A 
BRANCH  11  17
ATOM     17  O   UNL     1       6.276   3.662  14.838  0.00  0.00    +0.000 OA
BRANCH  17  19
ATOM     18  C   UNL     1       5.820   3.398  12.493  0.00  0.00    +0.000 C 
ATOM     19  C   UNL     1       6.530   4.231  13.551  0.00  0.00    +0.000 C 
ENDBRANCH  17  19
ENDBRANCH  11  17
ENDBRANCH   1  14
BRANCH   7  20
ATOM     20  C   UNL     1       0.258  11.119  19.212  0.00  0.00    +0.000 C 
BRANCH  20  21
ATOM     21  C   UNL     1       0.487  12.446  20.004  0.00  0.00    +0.000 C 
ATOM     22  O   UNL     1       0.049  12.434  21.172  0.00  0.00    +0.000 OA
ATOM     23  N   UNL     1       0.595  13.698  19.353  0.00  0.00    +0.000 N 
ATOM     24  C   UNL     1      -0.491  14.615  19.775  0.00  0.00    +0.000 C 
ATOM     25  C   UNL     1      -0.461  15.991  19.134  0.00  0.00    +0.000 C 
ATOM     26  C   UNL     1       0.832  16.615  19.577  0.00  0.00    +0.000 C 
ATOM     27  C   UNL     1       1.900  15.785  18.921  0.00  0.00    +0.000 A 
ATOM     28  C   UNL     1       2.934  16.480  18.290  0.00  0.00    +0.000 A 
ATOM     29  C   UNL     1       3.980  15.782  17.712  0.00  0.00    +0.000 A 
ATOM     30  C   UNL     1       4.018  14.403  17.865  0.00  0.00    +0.000 A 
ATOM     31  C   UNL     1       2.975  13.684  18.493  0.00  0.00    +0.000 A 
ATOM     32  C   UNL     1       1.842  14.355  18.955  0.00  0.00    +0.000 A 
ENDBRANCH  20  21
ENDBRANCH   7  20
TORSDOF 5
ENDMDL
MODEL 2
REMARK VINA RESULT:      -8.5      2.981     10.095
REMARK  Name = 
REMARK  6 active torsions:
REMARK  status: ('A' for Active; 'I' for Inactive)
REMARK    1  A    between atoms: C_1  and  C_2
REMARK    2  A    between atoms: C_2  and  O_3
REMARK    3  A    between atoms: O_3  and  C_4
REMARK    4  A    between atoms: C_7  and  N_8
REMARK    5  A    between atoms: N_14  and  C_15
REMARK    6  A    between atoms: C_15  and  C_16
REMARK                            x       y       z     vdW  Elec       q    Type
REMARK                         _______ _______ _______ _____ _____    ______ ____
ROOT
ATOM      1  N   UNL     1       0.889  10.253  20.029  0.00  0.00    +0.000 N 
ATOM      2  N   UNL     1       1.278  10.810  18.839  0.00  0.00    +0.000 NA
ATOM      3  N   UNL     1       1.908   9.897  18.110  0.00  0.00    +0.000 NA
ATOM      4  C   UNL     1       1.908   8.743  18.820  0.00  0.00    +0.000 A 
ATOM      5  C   UNL     1       2.442   7.448  18.458  0.00  0.00    +0.000 A 
ATOM      6  O   UNL     1       2.924   7.209  17.355  0.00  0.00    +0.000 OA
ATOM      7  N   UNL     1       2.289   6.484  19.476  0.00  0.00    +0.000 N 
ATOM      8  C   UNL     1       1.518   6.766  20.604  0.00  0.00    +0.000 A 
ATOM      9  N   UNL     1       1.006   7.921  20.930  0.00  0.00    +0.000 NA
ATOM     10  C   UNL     1       1.253   8.901  20.019  0.00  0.00    +0.000 A 
ENDROOT
BRANCH   1  14
ATOM     11  C   UNL     1      -1.069  12.689  22.920  0.00  0.00    +0.000 A 
ATOM     12  C   UNL     1      -0.313  13.264  21.903  0.00  0.00    +0.000 A 
ATOM     13  C   UNL     1       0.324  12.444  20.955  0.00  0.00    +0.000 A 
ATOM     14  C   UNL     1       0.229  11.040  21.016  0.00  0.00    +0.000 A 
ATOM     15  C   UNL     1      -0.524  10.471  22.034  0.00  0.00    +0.000 A 
ATOM     16  C   UNL     1      -1.160  11.296  22.993  0.00  0.00    +0.000 A 
BRANCH  11  17
ATOM     17  O   UNL     1      -1.653  13.569  23.792  0.00  0.00    +0.000 OA
BRANCH  17  19
ATOM     18  C   UNL     1      -1.357  15.430  25.282  0.00  0.00    +0.000 C 
ATOM     19  C   UNL     1      -1.040  14.854  23.909  0.00  0.00    +0.000 C 
ENDBRANCH  17  19
ENDBRANCH  11  17
ENDBRANCH   1  14
BRANCH   7  20
ATOM     20  C   UNL     1       2.561   5.096  19.117  0.00  0.00    +0.000 C 
BRANCH  20  21
ATOM     21  C   UNL     1       3.947   4.374  19.115  0.00  0.00    +0.000 C 
ATOM     22  O   UNL     1       4.141   3.624  20.093  0.00  0.00    +0.000 OA
ATOM     23  N   UNL     1       5.079   4.930  18.475  0.00  0.00    +0.000 N 
ATOM     24  C   UNL     1       6.164   5.203  19.449  0.00  0.00    +0.000 C 
ATOM     25  C   UNL     1       7.429   5.799  18.859  0.00  0.00    +0.000 C 
ATOM     26  C   UNL     1       7.954   4.765  17.903  0.00  0.00    +0.000 C 
ATOM     27  C   UNL     1       6.927   4.703  16.807  0.00  0.00    +0.000 A 
ATOM     28  C   UNL     1       7.408   4.717  15.495  0.00  0.00    +0.000 A 
ATOM     29  C   UNL     1       6.524   4.608  14.437  0.00  0.00    +0.000 A 
ATOM     30  C   UNL     1       5.182   4.387  14.717  0.00  0.00    +0.000 A 
ATOM     31  C   UNL     1       4.678   4.379  16.038  0.00  0.00    +0.000 A 
ATOM     32  C   UNL     1       5.531   4.631  17.114  0.00  0.00    +0.000 A 
ENDBRANCH  20  21
ENDBRANCH   7  20
TORSDOF 5
ENDMDL
MODEL 3
REMARK VINA RESULT:      -8.3      0.793      1.224
REMARK  Name = 
REMARK  6 active torsions:
REMARK  status: ('A' for Active; 'I' for Inactive)
REMARK    1  A    between atoms: C_1  and  C_2
REMARK    2  A    between atoms: C_2  and  O_3
REMARK    3  A    between atoms: O_3  and  C_4
REMARK    4  A    between atoms: C_7  and  N_8
REMARK    5  A    between atoms: N_14  and  C_15
REMARK    6  A    between atoms: C_15  and  C_16
REMARK                            x       y       z     vdW  Elec       q    Type
REMARK                         _______ _______ _______ _____ _____    ______ ____
ROOT
ATOM      1  N   UNL     1       2.484   6.858  19.110  0.00  0.00    +0.000 N 
ATOM      2  N   UNL     1       2.154   6.470  20.382  0.00  0.00    +0.000 NA
ATOM      3  N   UNL     1       1.486   7.449  20.981  0.00  0.00    +0.000 NA
ATOM      4  C   UNL     1       1.364   8.461  20.089  0.00  0.00    +0.000 A 
ATOM      5  C   UNL     1       0.698   9.736  20.239  0.00  0.00    +0.000 A 
ATOM      6  O   UNL     1       0.054  10.039  21.239  0.00  0.00    +0.000 OA
ATOM      7  N   UNL     1       0.813  10.557  19.097  0.00  0.00    +0.000 N 
ATOM      8  C   UNL     1       1.352  10.049  17.916  0.00  0.00    +0.000 A 
ATOM      9  N   UNL     1       1.930   8.890  17.757  0.00  0.00    +0.000 NA
ATOM     10  C   UNL     1       1.945   8.131  18.886  0.00  0.00    +0.000 A 
ENDROOT
BRANCH   1  14
ATOM     11  C   UNL     1       4.851   4.364  16.599  0.00  0.00    +0.000 A 
ATOM     12  C   UNL     1       5.250   5.667  16.884  0.00  0.00    +0.000 A 
ATOM     13  C   UNL     1       4.457   6.475  17.717  0.00  0.00    +0.000 A 
ATOM     14  C   UNL     1       3.249   6.002  18.266  0.00  0.00    +0.000 A 
ATOM     15  C   UNL     1       2.854   4.703  17.977  0.00  0.00    +0.000 A 
ATOM     16  C   UNL     1       3.649   3.891  17.132  0.00  0.00    +0.000 A 
BRANCH  11  17
ATOM     17  O   UNL     1       5.690   3.655  15.781  0.00  0.00    +0.000 OA
BRANCH  17  19
ATOM     18  C   UNL     1       6.300   3.943  13.475  0.00  0.00    +0.000 C 
ATOM     19  C   UNL     1       6.522   4.418  14.904  0.00  0.00    +0.000 C 
ENDBRANCH  17  19
ENDBRANCH  11  17
ENDBRANCH   1  14
BRANCH   7  20
ATOM     20  C   UNL     1      -0.032  11.746  19.052  0.00  0.00    +0.000 C 
BRANCH  20  21
ATOM     21  C   UNL     1       0.240  13.125  19.736  0.00  0.00    +0.000 C 
ATOM     22  O   UNL     1      -0.379  13.303  20.804  0.00  0.00    +0.000 OA
ATOM     23  N   UNL     1       0.616  14.268  18.993  0.00  0.00    +0.000 N 
ATOM     24  C   UNL     1      -0.393  15.347  19.125  0.00  0.00    +0.000 C 
ATOM     25  C   UNL     1      -0.079  16.623  18.365  0.00  0.00    +0.000 C 
ATOM     26  C   UNL     1       1.197  17.146  18.964  0.00  0.00    +0.000 C 
ATOM     27  C   UNL     1       2.238  16.128  18.591  0.00  0.00    +0.000 A 
ATOM     28  C   UNL     1       3.443  16.620  18.086  0.00  0.00    +0.000 A 
ATOM     29  C   UNL     1       4.467  15.744  17.772  0.00  0.00    +0.000 A 
ATOM     30  C   UNL     1       4.297  14.397  18.066  0.00  0.00    +0.000 A 
ATOM     31  C   UNL     1       3.080  13.882  18.570  0.00  0.00    +0.000 A 
ATOM     32  C   UNL     1       1.987  14.728  18.757  0.00  0.00    +0.000 A 
ENDBRANCH  20  21
ENDBRANCH   7  20
TORSDOF 5
ENDMDL
MODEL 4
REMARK VINA RESULT:      -8.3      2.792     10.015
REMARK  Name = 
REMARK  6 active torsions:
REMARK  status: ('A' for Active; 'I' for Inactive)
REMARK    1  A    between atoms: C_1  and  C_2
REMARK    2  A    between atoms: C_2  and  O_3
REMARK    3  A    between atoms: O_3  and  C_4
REMARK    4  A    between atoms: C_7  and  N_8
REMARK    5  A    between atoms: N_14  and  C_15
REMARK    6  A    between atoms: C_15  and  C_16
REMARK                            x       y       z     vdW  Elec       q    Type
REMARK                         _______ _______ _______ _____ _____    ______ ____
ROOT
ATOM      1  N   UNL     1       1.057  10.426  19.688  0.00  0.00    +0.000 N 
ATOM      2  N   UNL     1       1.393  10.865  18.435  0.00  0.00    +0.000 NA
ATOM      3  N   UNL     1       1.966   9.876  17.760  0.00  0.00    +0.000 NA
ATOM      4  C   UNL     1       1.981   8.790  18.570  0.00  0.00    +0.000 A 
ATOM      5  C   UNL     1       2.469   7.455  18.299  0.00  0.00    +0.000 A 
ATOM      6  O   UNL     1       2.888   7.107  17.200  0.00  0.00    +0.000 OA
ATOM      7  N   UNL     1       2.352   6.590  19.407  0.00  0.00    +0.000 N 
ATOM      8  C   UNL     1       1.646   6.989  20.542  0.00  0.00    +0.000 A 
ATOM      9  N   UNL     1       1.175   8.181  20.789  0.00  0.00    +0.000 NA
ATOM     10  C   UNL     1       1.393   9.070  19.782  0.00  0.00    +0.000 A 
ENDROOT
BRANCH   1  14
ATOM     11  C   UNL     1      -0.757  12.996  22.558  0.00  0.00    +0.000 A 
ATOM     12  C   UNL     1      -1.205  11.688  22.393  0.00  0.00    +0.000 A 
ATOM     13  C   UNL     1      -0.591  10.853  21.442  0.00  0.00    +0.000 A 
ATOM     14  C   UNL     1       0.465  11.313  20.633  0.00  0.00    +0.000 A 
ATOM     15  C   UNL     1       0.906  12.619  20.799  0.00  0.00    +0.000 A 
ATOM     16  C   UNL     1       0.284  13.463  21.751  0.00  0.00    +0.000 A 
BRANCH  11  17
ATOM     17  O   UNL     1      -1.414  13.730  23.509  0.00  0.00    +0.000 OA
BRANCH  17  19
ATOM     18  C   UNL     1      -3.414  14.443  24.634  0.00  0.00    +0.000 C 
ATOM     19  C   UNL     1      -2.770  13.365  23.774  0.00  0.00    +0.000 C 
ENDBRANCH  17  19
ENDBRANCH  11  17
ENDBRANCH   1  14
BRANCH   7  20
ATOM     20  C   UNL     1       2.577   5.169  19.162  0.00  0.00    +0.000 C 
BRANCH  20  21
ATOM     21  C   UNL     1       3.947   4.418  19.146  0.00  0.00    +0.000 C 
ATOM     22  O   UNL     1       4.136   3.666  20.124  0.00  0.00    +0.000 OA
ATOM     23  N   UNL     1       5.084   4.947  18.492  0.00  0.00    +0.000 N 
ATOM     24  C   UNL     1       6.184   5.201  19.453  0.00  0.00    +0.000 C 
ATOM     25  C   UNL     1       7.455   5.768  18.847  0.00  0.00    +0.000 C 
ATOM     26  C   UNL     1       7.948   4.720  17.889  0.00  0.00    +0.000 C 
ATOM     27  C   UNL     1       6.908   4.677  16.804  0.00  0.00    +0.000 A 
ATOM     28  C   UNL     1       7.375   4.677  15.488  0.00  0.00    +0.000 A 
ATOM     29  C   UNL     1       6.477   4.583  14.439  0.00  0.00    +0.000 A 
ATOM     30  C   UNL     1       5.133   4.392  14.735  0.00  0.00    +0.000 A 
ATOM     31  C   UNL     1       4.644   4.398  16.062  0.00  0.00    +0.000 A 
ATOM     32  C   UNL     1       5.514   4.635  17.127  0.00  0.00    +0.000 A 
ENDBRANCH  20  21
ENDBRANCH   7  20
TORSDOF 5
ENDMDL
MODEL 5
REMARK VINA RESULT:      -8.2      2.615      4.008
REMARK  Name = 
REMARK  6 active torsions:
REMARK  status: ('A' for Active; 'I' for Inactive)
REMARK    1  A    between atoms: C_1  and  C_2
REMARK    2  A    between atoms: C_2  and  O_3
REMARK    3  A    between atoms: O_3  and  C_4
REMARK    4  A    between atoms: C_7  and  N_8
REMARK    5  A    between atoms: N_14  and  C_15
REMARK    6  A    between atoms: C_15  and  C_16
REMARK                            x       y       z     vdW  Elec       q    Type
REMARK                         _______ _______ _______ _____ _____    ______ ____
ROOT
ATOM      1  N   UNL     1       3.205   6.547  18.606  0.00  0.00    +0.000 N 
ATOM      2  N   UNL     1       2.933   5.967  19.817  0.00  0.00    +0.000 NA
ATOM      3  N   UNL     1       2.074   6.727  20.487  0.00  0.00    +0.000 NA
ATOM      4  C   UNL     1       1.773   7.787  19.699  0.00  0.00    +0.000 A 
ATOM      5  C   UNL     1       0.867   8.886  19.953  0.00  0.00    +0.000 A 
ATOM      6  O   UNL     1       0.156   8.948  20.951  0.00  0.00    +0.000 OA
ATOM      7  N   UNL     1       0.841   9.832  18.907  0.00  0.00    +0.000 N 
ATOM      8  C   UNL     1       1.492   9.569  17.702  0.00  0.00    +0.000 A 
ATOM      9  N   UNL     1       2.289   8.568  17.448  0.00  0.00    +0.000 NA
ATOM     10  C   UNL     1       2.431   7.709  18.493  0.00  0.00    +0.000 A 
ENDROOT
BRANCH   1  14
ATOM     11  C   UNL     1       5.929   4.689  15.914  0.00  0.00    +0.000 A 
ATOM     12  C   UNL     1       4.844   3.983  16.424  0.00  0.00    +0.000 A 
ATOM     13  C   UNL     1       3.953   4.614  17.310  0.00  0.00    +0.000 A 
ATOM     14  C   UNL     1       4.139   5.951  17.711  0.00  0.00    +0.000 A 
ATOM     15  C   UNL     1       5.225   6.650  17.201  0.00  0.00    +0.000 A 
ATOM     16  C   UNL     1       6.127   6.013  16.315  0.00  0.00    +0.000 A 
BRANCH  11  17
ATOM     17  O   UNL     1       6.738   3.991  15.057  0.00  0.00    +0.000 OA
BRANCH  17  19
ATOM     18  C   UNL     1       6.245   3.557  12.746  0.00  0.00    +0.000 C 
ATOM     19  C   UNL     1       6.880   4.521  13.737  0.00  0.00    +0.000 C 
ENDBRANCH  17  19
ENDBRANCH  11  17
ENDBRANCH   1  14
BRANCH   7  20
ATOM     20  C   UNL     1      -0.220  10.834  18.950  0.00  0.00    +0.000 C 
BRANCH  20  21
ATOM     21  C   UNL     1      -0.431  11.941  20.033  0.00  0.00    +0.000 C 
ATOM     22  O   UNL     1       0.597  12.587  20.320  0.00  0.00    +0.000 OA
ATOM     23  N   UNL     1      -1.444  11.843  21.015  0.00  0.00    +0.000 N 
ATOM     24  C   UNL     1      -0.865  11.796  22.379  0.00  0.00    +0.000 C 
ATOM     25  C   UNL     1      -1.874  11.695  23.509  0.00  0.00    +0.000 C 
ATOM     26  C   UNL     1      -2.696  12.951  23.429  0.00  0.00    +0.000 C 
ATOM     27  C   UNL     1      -3.450  12.831  22.134  0.00  0.00    +0.000 A 
ATOM     28  C   UNL     1      -4.814  13.128  22.173  0.00  0.00    +0.000 A 
ATOM     29  C   UNL     1      -5.560  13.092  21.008  0.00  0.00    +0.000 A 
ATOM     30  C   UNL     1      -4.901  12.854  19.809  0.00  0.00    +0.000 A 
ATOM     31  C   UNL     1      -3.523  12.542  19.753  0.00  0.00    +0.000 A 
ATOM     32  C   UNL     1      -2.783  12.433  20.931  0.00  0.00    +0.000 A 
ENDBRANCH  20  21
ENDBRANCH   7  20
TORSDOF 5
ENDMDL
MODEL 6
REMARK VINA RESULT:      -8.1      3.283      4.147
REMARK  Name = 
REMARK  6 active torsions:
REMARK  status: ('A' for Active; 'I' for Inactive)
REMARK    1  A    between atoms: C_1  and  C_2
REMARK    2  A    between atoms: C_2  and  O_3
REMARK    3  A    between atoms: O_3  and  C_4
REMARK    4  A    between atoms: C_7  and  N_8
REMARK    5  A    between atoms: N_14  and  C_15
REMARK    6  A    between atoms: C_15  and  C_16
REMARK                            x       y       z     vdW  Elec       q    Type
REMARK                         _______ _______ _______ _____ _____    ______ ____
ROOT
ATOM      1  N   UNL     1       4.315   4.487  17.873  0.00  0.00    +0.000 N 
ATOM      2  N   UNL     1       4.081   3.244  18.399  0.00  0.00    +0.000 NA
ATOM      3  N   UNL     1       3.270   3.353  19.444  0.00  0.00    +0.000 NA
ATOM      4  C   UNL     1       2.962   4.666  19.581  0.00  0.00    +0.000 A 
ATOM      5  C   UNL     1       2.094   5.304  20.547  0.00  0.00    +0.000 A 
ATOM      6  O   UNL     1       1.429   4.676  21.365  0.00  0.00    +0.000 OA
ATOM      7  N   UNL     1       2.046   6.706  20.403  0.00  0.00    +0.000 N 
ATOM      8  C   UNL     1       2.638   7.322  19.300  0.00  0.00    +0.000 A 
ATOM      9  N   UNL     1       3.400   6.755  18.405  0.00  0.00    +0.000 NA
ATOM     10  C   UNL     1       3.565   5.419  18.601  0.00  0.00    +0.000 A 
ENDROOT
BRANCH   1  14
ATOM     11  C   UNL     1       7.026   4.986  14.628  0.00  0.00    +0.000 A 
ATOM     12  C   UNL     1       7.416   5.282  15.931  0.00  0.00    +0.000 A 
ATOM     13  C   UNL     1       6.508   5.108  16.990  0.00  0.00    +0.000 A 
ATOM     14  C   UNL     1       5.195   4.652  16.765  0.00  0.00    +0.000 A 
ATOM     15  C   UNL     1       4.810   4.361  15.463  0.00  0.00    +0.000 A 
ATOM     16  C   UNL     1       5.722   4.542  14.395  0.00  0.00    +0.000 A 
BRANCH  11  17
ATOM     17  O   UNL     1       7.980   5.184  13.666  0.00  0.00    +0.000 OA
BRANCH  17  19
ATOM     18  C   UNL     1       7.835   6.179  11.484  0.00  0.00    +0.000 C 
ATOM     19  C   UNL     1       7.588   4.929  12.315  0.00  0.00    +0.000 C 
ENDBRANCH  17  19
ENDBRANCH  11  17
ENDBRANCH   1  14
BRANCH   7  20
ATOM     20  C   UNL     1       1.013   7.412  21.155  0.00  0.00    +0.000 C 
BRANCH  20  21
ATOM     21  C   UNL     1       1.034   8.904  21.617  0.00  0.00    +0.000 C 
ATOM     22  O   UNL     1       1.941   9.182  22.428  0.00  0.00    +0.000 OA
ATOM     23  N   UNL     1      -0.137   9.697  21.642  0.00  0.00    +0.000 N 
ATOM     24  C   UNL     1      -0.450  10.148  23.020  0.00  0.00    +0.000 C 
ATOM     25  C   UNL     1      -1.691  11.011  23.152  0.00  0.00    +0.000 C 
ATOM     26  C   UNL     1      -1.411  12.247  22.344  0.00  0.00    +0.000 C 
ATOM     27  C   UNL     1      -1.343  11.765  20.922  0.00  0.00    +0.000 A 
ATOM     28  C   UNL     1      -2.046  12.512  19.973  0.00  0.00    +0.000 A 
ATOM     29  C   UNL     1      -1.984  12.158  18.637  0.00  0.00    +0.000 A 
ATOM     30  C   UNL     1      -1.138  11.122  18.266  0.00  0.00    +0.000 A 
ATOM     31  C   UNL     1      -0.427  10.351  19.214  0.00  0.00    +0.000 A 
ATOM     32  C   UNL     1      -0.587  10.599  20.578  0.00  0.00    +0.000 A 
ENDBRANCH  20  21
ENDBRANCH   7  20
TORSDOF 5
ENDMDL
MODEL 7
REMARK VINA RESULT:      -8.0      4.456      7.106
REMARK  Name = 
REMARK  6 active torsions:
REMARK  status: ('A' for Active; 'I' for Inactive)
REMARK    1  A    between atoms: C_1  and  C_2
REMARK    2  A    between atoms: C_2  and  O_3
REMARK    3  A    between atoms: O_3  and  C_4
REMARK    4  A    between atoms: C_7  and  N_8
REMARK    5  A    between atoms: N_14  and  C_15
REMARK    6  A    between atoms: C_15  and  C_16
REMARK                            x       y       z     vdW  Elec       q    Type
REMARK                         _______ _______ _______ _____ _____    ______ ____
ROOT
ATOM      1  N   UNL     1       0.050  10.435  21.440  0.00  0.00    +0.000 N 
ATOM      2  N   UNL     1       0.005  10.314  22.804  0.00  0.00    +0.000 NA
ATOM      3  N   UNL     1      -0.663  11.341  23.316  0.00  0.00    +0.000 NA
ATOM      4  C   UNL     1      -1.070  12.114  22.280  0.00  0.00    +0.000 A 
ATOM      5  C   UNL     1      -1.854  13.330  22.302  0.00  0.00    +0.000 A 
ATOM      6  O   UNL     1      -2.341  13.793  23.328  0.00  0.00    +0.000 OA
ATOM      7  N   UNL     1      -2.050  13.882  21.018  0.00  0.00    +0.000 N 
ATOM      8  C   UNL     1      -1.672  13.171  19.880  0.00  0.00    +0.000 A 
ATOM      9  N   UNL     1      -0.989  12.059  19.845  0.00  0.00    +0.000 NA
ATOM     10  C   UNL     1      -0.677  11.575  21.077  0.00  0.00    +0.000 A 
ENDROOT
BRANCH   1  14
ATOM     11  C   UNL     1       2.168   7.655  19.008  0.00  0.00    +0.000 A 
ATOM     12  C   UNL     1       1.720   8.863  18.480  0.00  0.00    +0.000 A 
ATOM     13  C   UNL     1       1.025   9.769  19.300  0.00  0.00    +0.000 A 
ATOM     14  C   UNL     1       0.754   9.480  20.651  0.00  0.00    +0.000 A 
ATOM     15  C   UNL     1       1.199   8.273  21.171  0.00  0.00    +0.000 A 
ATOM     16  C   UNL     1       1.894   7.356  20.345  0.00  0.00    +0.000 A 
BRANCH  11  17
ATOM     17  O   UNL     1       2.837   6.840  18.134  0.00  0.00    +0.000 OA
BRANCH  17  19
ATOM     18  C   UNL     1       1.871   4.666  17.800  0.00  0.00    +0.000 C 
ATOM     19  C   UNL     1       2.956   5.465  18.506  0.00  0.00    +0.000 C 
ENDBRANCH  17  19
ENDBRANCH  11  17
ENDBRANCH   1  14
BRANCH   7  20
ATOM     20  C   UNL     1      -3.032  14.955  20.905  0.00  0.00    +0.000 C 
BRANCH  20  21
ATOM     21  C   UNL     1      -4.586  14.830  21.012  0.00  0.00    +0.000 C 
ATOM     22  O   UNL     1      -5.172  15.892  21.304  0.00  0.00    +0.000 OA
ATOM     23  N   UNL     1      -5.216  13.612  21.360  0.00  0.00    +0.000 N 
ATOM     24  C   UNL     1      -5.978  13.746  22.625  0.00  0.00    +0.000 C 
ATOM     25  C   UNL     1      -6.697  12.491  23.084  0.00  0.00    +0.000 C 
ATOM     26  C   UNL     1      -7.697  12.181  22.006  0.00  0.00    +0.000 C 
ATOM     27  C   UNL     1      -6.865  11.816  20.808  0.00  0.00    +0.000 A 
ATOM     28  C   UNL     1      -7.245  10.669  20.107  0.00  0.00    +0.000 A 
ATOM     29  C   UNL     1      -6.558  10.303  18.963  0.00  0.00    +0.000 A 
ATOM     30  C   UNL     1      -5.565  11.150  18.489  0.00  0.00    +0.000 A 
ATOM     31  C   UNL     1      -5.162  12.309  19.192  0.00  0.00    +0.000 A 
ATOM     32  C   UNL     1      -5.744  12.618  20.422  0.00  0.00    +0.000 A 
ENDBRANCH  20  21
ENDBRANCH   7  20
TORSDOF 5
ENDMDL
MODEL 8
REMARK VINA RESULT:      -8.0      2.467      3.252
REMARK  Name = 
REMARK  6 active torsions:
REMARK  status: ('A' for Active; 'I' for Inactive)
REMARK    1  A    between atoms: C_1  and  C_2
REMARK    2  A    between atoms: C_2  and  O_3
REMARK    3  A    between atoms: O_3  and  C_4
REMARK    4  A    between atoms: C_7  and  N_8
REMARK    5  A    between atoms: N_14  and  C_15
REMARK    6  A    between atoms: C_15  and  C_16
REMARK                            x       y       z     vdW  Elec       q    Type
REMARK                         _______ _______ _______ _____ _____    ______ ____
ROOT
ATOM      1  N   UNL     1       1.439   8.613  20.627  0.00  0.00    +0.000 N 
ATOM      2  N   UNL     1       1.477   8.501  21.992  0.00  0.00    +0.000 NA
ATOM      3  N   UNL     1       0.995   9.610  22.539  0.00  0.00    +0.000 NA
ATOM      4  C   UNL     1       0.625  10.432  21.527  0.00  0.00    +0.000 A 
ATOM      5  C   UNL     1       0.019  11.744  21.592  0.00  0.00    +0.000 A 
ATOM      6  O   UNL     1      -0.325  12.270  22.646  0.00  0.00    +0.000 OA
ATOM      7  N   UNL     1      -0.192  12.317  20.320  0.00  0.00    +0.000 N 
ATOM      8  C   UNL     1       0.001  11.560  19.165  0.00  0.00    +0.000 A 
ATOM      9  N   UNL     1       0.520  10.365  19.093  0.00  0.00    +0.000 NA
ATOM     10  C   UNL     1       0.851   9.843  20.305  0.00  0.00    +0.000 A 
ENDROOT
BRANCH   1  14
ATOM     11  C   UNL     1       2.903   5.426  18.214  0.00  0.00    +0.000 A 
ATOM     12  C   UNL     1       2.363   5.173  19.472  0.00  0.00    +0.000 A 
ATOM     13  C   UNL     1       1.882   6.238  20.253  0.00  0.00    +0.000 A 
ATOM     14  C   UNL     1       1.945   7.570  19.800  0.00  0.00    +0.000 A 
ATOM     15  C   UNL     1       2.488   7.817  18.546  0.00  0.00    +0.000 A 
ATOM     16  C   UNL     1       2.979   6.746  17.761  0.00  0.00    +0.000 A 
BRANCH  11  17
ATOM     17  O   UNL     1       3.342   4.326  17.527  0.00  0.00    +0.000 OA
BRANCH  17  19
ATOM     18  C   UNL     1       2.732   2.019  17.814  0.00  0.00    +0.000 C 
ATOM     19  C   UNL     1       3.617   3.156  18.303  0.00  0.00    +0.000 C 
ENDBRANCH  17  19
ENDBRANCH  11  17
ENDBRANCH   1  14
BRANCH   7  20
ATOM     20  C   UNL     1      -1.023  13.516  20.265  0.00  0.00    +0.000 C 
BRANCH  20  21
ATOM     21  C   UNL     1      -0.542  15.002  20.311  0.00  0.00    +0.000 C 
ATOM     22  O   UNL     1      -1.015  15.670  21.252  0.00  0.00    +0.000 OA
ATOM     23  N   UNL     1      -0.143  15.696  19.145  0.00  0.00    +0.000 N 
ATOM     24  C   UNL     1      -1.020  16.865  18.892  0.00  0.00    +0.000 C 
ATOM     25  C   UNL     1      -0.672  17.681  17.661  0.00  0.00    +0.000 C 
ATOM     26  C   UNL     1       0.709  18.220  17.911  0.00  0.00    +0.000 C 
ATOM     27  C   UNL     1       1.596  17.007  17.918  0.00  0.00    +0.000 A 
ATOM     28  C   UNL     1       2.778  17.091  17.178  0.00  0.00    +0.000 A 
ATOM     29  C   UNL     1       3.669  16.033  17.183  0.00  0.00    +0.000 A 
ATOM     30  C   UNL     1       3.403  14.948  18.009  0.00  0.00    +0.000 A 
ATOM     31  C   UNL     1       2.208  14.844  18.756  0.00  0.00    +0.000 A 
ATOM     32  C   UNL     1       1.230  15.835  18.654  0.00  0.00    +0.000 A 
ENDBRANCH  20  21
ENDBRANCH   7  20
TORSDOF 5
ENDMDL
MODEL 9
REMARK VINA RESULT:      -8.0      1.865      3.081
REMARK  Name = 
REMARK  6 active torsions:
REMARK  status: ('A' for Active; 'I' for Inactive)
REMARK    1  A    between atoms: C_1  and  C_2
REMARK    2  A    between atoms: C_2  and  O_3
REMARK    3  A    between atoms: O_3  and  C_4
REMARK    4  A    between atoms: C_7  and  N_8
REMARK    5  A    between atoms: N_14  and  C_15
REMARK    6  A    between atoms: C_15  and  C_16
REMARK                            x       y       z     vdW  Elec       q    Type
REMARK                         _______ _______ _______ _____ _____    ______ ____
ROOT
ATOM      1  N   UNL     1       1.418   8.540  20.651  0.00  0.00    +0.000 N 
ATOM      2  N   UNL     1       1.440   8.457  22.019  0.00  0.00    +0.000 NA
ATOM      3  N   UNL     1       0.957   9.580  22.536  0.00  0.00    +0.000 NA
ATOM      4  C   UNL     1       0.601  10.381  21.502  0.00  0.00    +0.000 A 
ATOM      5  C   UNL     1       0.000  11.697  21.531  0.00  0.00    +0.000 A 
ATOM      6  O   UNL     1      -0.353  12.247  22.569  0.00  0.00    +0.000 OA
ATOM      7  N   UNL     1      -0.194  12.242  20.244  0.00  0.00    +0.000 N 
ATOM      8  C   UNL     1       0.009  11.459  19.108  0.00  0.00    +0.000 A 
ATOM      9  N   UNL     1       0.523  10.260  19.069  0.00  0.00    +0.000 NA
ATOM     10  C   UNL     1       0.839   9.765  20.296  0.00  0.00    +0.000 A 
ENDROOT
BRANCH   1  14
ATOM     11  C   UNL     1       2.996   5.433  18.205  0.00  0.00    +0.000 A 
ATOM     12  C   UNL     1       3.052   6.760  17.790  0.00  0.00    +0.000 A 
ATOM     13  C   UNL     1       2.529   7.773  18.613  0.00  0.00    +0.000 A 
ATOM     14  C   UNL     1       1.929   7.477  19.852  0.00  0.00    +0.000 A 
ATOM     15  C   UNL     1       1.873   6.151  20.260  0.00  0.00    +0.000 A 
ATOM     16  C   UNL     1       2.394   5.130  19.429  0.00  0.00    +0.000 A 
BRANCH  11  17
ATOM     17  O   UNL     1       3.535   4.519  17.339  0.00  0.00    +0.000 OA
BRANCH  17  19
ATOM     18  C   UNL     1       5.257   4.227  15.689  0.00  0.00    +0.000 C 
ATOM     19  C   UNL     1       4.948   4.588  17.134  0.00  0.00    +0.000 C 
ENDBRANCH  17  19
ENDBRANCH  11  17
ENDBRANCH   1  14
BRANCH   7  20
ATOM     20  C   UNL     1      -1.019  13.443  20.155  0.00  0.00    +0.000 C 
BRANCH  20  21
ATOM     21  C   UNL     1      -0.538  14.928  20.220  0.00  0.00    +0.000 C 
ATOM     22  O   UNL     1      -1.055  15.600  21.135  0.00  0.00    +0.000 OA
ATOM     23  N   UNL     1      -0.080  15.618  19.073  0.00  0.00    +0.000 N 
ATOM     24  C   UNL     1      -0.941  16.788  18.774  0.00  0.00    +0.000 C 
ATOM     25  C   UNL     1      -0.531  17.600  17.559  0.00  0.00    +0.000 C 
ATOM     26  C   UNL     1       0.837  18.136  17.875  0.00  0.00    +0.000 C 
ATOM     27  C   UNL     1       1.720  16.921  17.929  0.00  0.00    +0.000 A 
ATOM     28  C   UNL     1       2.938  17.000  17.248  0.00  0.00    +0.000 A 
ATOM     29  C   UNL     1       3.825  15.940  17.299  0.00  0.00    +0.000 A 
ATOM     30  C   UNL     1       3.516  14.858  18.114  0.00  0.00    +0.000 A 
ATOM     31  C   UNL     1       2.284  14.759  18.802  0.00  0.00    +0.000 A 
ATOM     32  C   UNL     1       1.316  15.752  18.649  0.00  0.00    +0.000 A 
ENDBRANCH  20  21
ENDBRANCH   7  20
TORSDOF 5
ENDMDL
