MODEL 1
REMARK VINA RESULT:      -6.8      0.000      0.000
REMARK  Name = 
REMARK  7 active torsions:
REMARK  status: ('A' for Active; 'I' for Inactive)
REMARK    1  A    between atoms: C_1  and  C_2
REMARK    2  A    between atoms: C_2  and  C_3
REMARK    3  A    between atoms: C_2  and  C_4
REMARK    4  A    between atoms: C_2  and  O_5
REMARK    5  A    between atoms: O_5  and  C_6
REMARK    6  A    between atoms: C_6  and  C_7
REMARK    7  A    between atoms: C_22  and  C_23
REMARK                            x       y       z     vdW  Elec       q    Type
REMARK                         _______ _______ _______ _____ _____    ______ ____
ROOT
ATOM      1  C   UNK A   1      10.210  17.454  18.105  0.00  0.00    +0.000 C 
ATOM      2  N   UNK A   1      11.233  17.583  19.135  0.00  0.00    +0.000 N 
ATOM      3  C   UNK A   2      11.178  16.836  20.276  0.00  0.00    +0.000 C 
ATOM      4  O   UNK A   2      12.200  16.630  20.922  0.00  0.00    +0.000 OA
ATOM      5  C   UNK A   2       9.765  16.503  20.792  0.00  0.00    +0.000 C 
ATOM      6  C   UNK A   2       9.844  15.115  21.471  0.00  0.00    +0.000 C 
ATOM      7  C   UNK A   2       8.495  14.687  21.910  0.00  0.00    +0.000 A 
ATOM      8  C   UNK A   2       7.359  15.320  21.447  0.00  0.00    +0.000 A 
ATOM      9  N   UNK A   2       6.278  14.703  22.040  0.00  0.00    +0.000 N 
ATOM     10  C   UNK A   2       6.699  13.609  22.771  0.00  0.00    +0.000 A 
ATOM     11  C   UNK A   2       5.955  12.635  23.448  0.00  0.00    +0.000 A 
ATOM     12  C   UNK A   2       6.662  11.624  24.108  0.00  0.00    +0.000 A 
ATOM     13  C   UNK A   2       8.054  11.587  24.085  0.00  0.00    +0.000 A 
ATOM     14  C   UNK A   2       8.782  12.563  23.393  0.00  0.00    +0.000 A 
ATOM     15  C   UNK A   2       8.094  13.592  22.721  0.00  0.00    +0.000 A 
ATOM     16  C   UNK A   2       7.279  16.424  20.407  0.00  0.00    +0.000 C 
ATOM     17  N   UNK A   2       8.640  16.580  19.809  0.00  0.00    +0.000 N 
ATOM     18  C   UNK A   1       8.816  17.480  18.746  0.00  0.00    +0.000 C 
ATOM     19  O   UNK A   1       7.932  18.164  18.232  0.00  0.00    +0.000 OA
ATOM     20  H   UNK A   1      12.179  17.807  18.843  0.00  0.00    +0.000 HD
ATOM     21  H   UNK A   2       5.309  14.920  21.849  0.00  0.00    +0.000 HD
ENDROOT
BRANCH  16  22
ATOM     22  C   UNK A   2       6.150  16.153  19.405  0.00  0.00    +0.000 A 
ATOM     23  C   UNK A   2       4.999  16.957  19.422  0.00  0.00    +0.000 A 
ATOM     24  C   UNK A   2       3.918  16.676  18.596  0.00  0.00    +0.000 A 
ATOM     25  C   UNK A   2       3.942  15.553  17.777  0.00  0.00    +0.000 A 
ATOM     26  C   UNK A   2       5.082  14.749  17.731  0.00  0.00    +0.000 A 
ATOM     27  C   UNK A   2       6.189  15.079  18.509  0.00  0.00    +0.000 A 
ENDBRANCH  16  22
BRANCH   1  28
ATOM     28  C   UNK A   1      10.408  16.196  17.241  0.00  0.00    +0.000 C 
BRANCH  28  29
ATOM     29  O   UNK A   1      11.509  15.398  17.692  0.00  0.00    +0.000 OA
BRANCH  29  31
ATOM     30  C   UNK A   1       9.761  13.698  18.041  0.00  0.00    +0.000 C 
ATOM     31  C   UNK A   1      11.260  13.996  17.851  0.00  0.00    +0.000 C 
ATOM     32  C   UNK A   1      12.065  13.421  19.024  0.00  0.00    +0.000 C 
ATOM     33  C   UNK A   1      11.707  13.293  16.555  0.00  0.00    +0.000 C 
ENDBRANCH  29  31
ENDBRANCH  28  29
ENDBRANCH   1  28
TORSDOF 4
ENDMDL
MODEL 2
REMARK VINA RESULT:      -6.8      7.857     10.497
REMARK  Name = 
REMARK  7 active torsions:
REMARK  status: ('A' for Active; 'I' for Inactive)
REMARK    1  A    between atoms: C_1  and  C_2
REMARK    2  A    between atoms: C_2  and  C_3
REMARK    3  A    between atoms: C_2  and  C_4
REMARK    4  A    between atoms: C_2  and  O_5
REMARK    5  A    between atoms: O_5  and  C_6
REMARK    6  A    between atoms: C_6  and  C_7
REMARK    7  A    between atoms: C_22  and  C_23
REMARK                            x       y       z     vdW  Elec       q    Type
REMARK                         _______ _______ _______ _____ _____    ______ ____
ROOT
ATOM      1  C   UNK A   1      -0.389  11.356  18.816  0.00  0.00    +0.000 C 
ATOM      2  N   UNK A   1      -0.295  10.449  19.954  0.00  0.00    +0.000 N 
ATOM      3  C   UNK A   2      -0.443  10.909  21.231  0.00  0.00    +0.000 C 
ATOM      4  O   UNK A   2      -0.776  10.136  22.124  0.00  0.00    +0.000 OA
ATOM      5  C   UNK A   2       0.057  12.342  21.490  0.00  0.00    +0.000 C 
ATOM      6  C   UNK A   2      -0.855  12.953  22.581  0.00  0.00    +0.000 C 
ATOM      7  C   UNK A   2      -0.489  14.370  22.814  0.00  0.00    +0.000 A 
ATOM      8  C   UNK A   2       0.313  15.056  21.926  0.00  0.00    +0.000 A 
ATOM      9  N   UNK A   2       0.476  16.332  22.424  0.00  0.00    +0.000 N 
ATOM     10  C   UNK A   2      -0.314  16.506  23.544  0.00  0.00    +0.000 A 
ATOM     11  C   UNK A   2      -0.551  17.654  24.311  0.00  0.00    +0.000 A 
ATOM     12  C   UNK A   2      -1.415  17.533  25.405  0.00  0.00    +0.000 A 
ATOM     13  C   UNK A   2      -2.020  16.317  25.713  0.00  0.00    +0.000 A 
ATOM     14  C   UNK A   2      -1.780  15.182  24.928  0.00  0.00    +0.000 A 
ATOM     15  C   UNK A   2      -0.914  15.277  23.822  0.00  0.00    +0.000 A 
ATOM     16  C   UNK A   2       0.852  14.557  20.596  0.00  0.00    +0.000 C 
ATOM     17  N   UNK A   2       0.194  13.247  20.306  0.00  0.00    +0.000 N 
ATOM     18  C   UNK A   1       0.450  12.614  19.079  0.00  0.00    +0.000 C 
ATOM     19  O   UNK A   1       1.173  13.051  18.184  0.00  0.00    +0.000 OA
ATOM     20  H   UNK A   1      -0.608   9.493  19.829  0.00  0.00    +0.000 HD
ATOM     21  H   UNK A   2       0.974  17.078  21.957  0.00  0.00    +0.000 HD
ENDROOT
BRANCH  16  22
ATOM     22  C   UNK A   2       0.694  15.624  19.506  0.00  0.00    +0.000 A 
ATOM     23  C   UNK A   2       1.834  16.259  18.986  0.00  0.00    +0.000 A 
ATOM     24  C   UNK A   2       1.719  17.298  18.072  0.00  0.00    +0.000 A 
ATOM     25  C   UNK A   2       0.463  17.762  17.700  0.00  0.00    +0.000 A 
ATOM     26  C   UNK A   2      -0.684  17.136  18.190  0.00  0.00    +0.000 A 
ATOM     27  C   UNK A   2      -0.560  16.048  19.051  0.00  0.00    +0.000 A 
ENDBRANCH  16  22
BRANCH   1  28
ATOM     28  C   UNK A   1      -1.846  11.713  18.474  0.00  0.00    +0.000 C 
BRANCH  28  29
ATOM     29  O   UNK A   1      -2.096  11.674  17.064  0.00  0.00    +0.000 OA
BRANCH  29  31
ATOM     30  C   UNK A   1      -3.004  10.371  15.182  0.00  0.00    +0.000 C 
ATOM     31  C   UNK A   1      -3.191  10.858  16.630  0.00  0.00    +0.000 C 
ATOM     32  C   UNK A   1      -4.525  11.603  16.769  0.00  0.00    +0.000 C 
ATOM     33  C   UNK A   1      -3.228   9.610  17.532  0.00  0.00    +0.000 C 
ENDBRANCH  29  31
ENDBRANCH  28  29
ENDBRANCH   1  28
TORSDOF 4
ENDMDL
MODEL 3
REMARK VINA RESULT:      -6.8      2.499      6.419
REMARK  Name = 
REMARK  7 active torsions:
REMARK  status: ('A' for Active; 'I' for Inactive)
REMARK    1  A    between atoms: C_1  and  C_2
REMARK    2  A    between atoms: C_2  and  C_3
REMARK    3  A    between atoms: C_2  and  C_4
REMARK    4  A    between atoms: C_2  and  O_5
REMARK    5  A    between atoms: O_5  and  C_6
REMARK    6  A    between atoms: C_6  and  C_7
REMARK    7  A    between atoms: C_22  and  C_23
REMARK                            x       y       z     vdW  Elec       q    Type
REMARK                         _______ _______ _______ _____ _____    ______ ____
ROOT
ATOM      1  C   UNK A   1       4.528  16.479  21.638  0.00  0.00    +0.000 C 
ATOM      2  N   UNK A   1       4.946  17.389  20.578  0.00  0.00    +0.000 N 
ATOM      3  C   UNK A   2       5.991  17.075  19.757  0.00  0.00    +0.000 C 
ATOM      4  O   UNK A   2       6.077  17.600  18.651  0.00  0.00    +0.000 OA
ATOM      5  C   UNK A   2       7.122  16.248  20.395  0.00  0.00    +0.000 C 
ATOM      6  C   UNK A   2       7.708  15.345  19.284  0.00  0.00    +0.000 C 
ATOM      7  C   UNK A   2       8.743  14.449  19.852  0.00  0.00    +0.000 A 
ATOM      8  C   UNK A   2       8.863  14.270  21.215  0.00  0.00    +0.000 A 
ATOM      9  N   UNK A   2       9.910  13.396  21.421  0.00  0.00    +0.000 N 
ATOM     10  C   UNK A   2      10.373  12.919  20.211  0.00  0.00    +0.000 A 
ATOM     11  C   UNK A   2      11.341  11.945  19.935  0.00  0.00    +0.000 A 
ATOM     12  C   UNK A   2      11.605  11.657  18.591  0.00  0.00    +0.000 A 
ATOM     13  C   UNK A   2      10.924  12.313  17.569  0.00  0.00    +0.000 A 
ATOM     14  C   UNK A   2       9.951  13.276  17.862  0.00  0.00    +0.000 A 
ATOM     15  C   UNK A   2       9.668  13.584  19.207  0.00  0.00    +0.000 A 
ATOM     16  C   UNK A   2       7.965  14.837  22.301  0.00  0.00    +0.000 C 
ATOM     17  N   UNK A   2       6.790  15.470  21.630  0.00  0.00    +0.000 N 
ATOM     18  C   UNK A   1       5.754  15.990  22.422  0.00  0.00    +0.000 C 
ATOM     19  O   UNK A   1       5.709  15.964  23.651  0.00  0.00    +0.000 OA
ATOM     20  H   UNK A   1       4.236  17.959  20.131  0.00  0.00    +0.000 HD
ATOM     21  H   UNK A   2      10.198  13.038  22.322  0.00  0.00    +0.000 HD
ENDROOT
BRANCH  16  22
ATOM     22  C   UNK A   2       7.625  13.766  23.345  0.00  0.00    +0.000 A 
ATOM     23  C   UNK A   2       8.233  13.812  24.610  0.00  0.00    +0.000 A 
ATOM     24  C   UNK A   2       8.024  12.804  25.542  0.00  0.00    +0.000 A 
ATOM     25  C   UNK A   2       7.247  11.700  25.210  0.00  0.00    +0.000 A 
ATOM     26  C   UNK A   2       6.618  11.641  23.965  0.00  0.00    +0.000 A 
ATOM     27  C   UNK A   2       6.775  12.691  23.063  0.00  0.00    +0.000 A 
ENDBRANCH  16  22
BRANCH   1  28
ATOM     28  C   UNK A   1       3.698  15.300  21.101  0.00  0.00    +0.000 C 
BRANCH  28  29
ATOM     29  O   UNK A   1       2.569  15.738  20.334  0.00  0.00    +0.000 OA
BRANCH  29  31
ATOM     30  C   UNK A   1       2.651  16.431  17.973  0.00  0.00    +0.000 C 
ATOM     31  C   UNK A   1       2.497  15.276  18.980  0.00  0.00    +0.000 C 
ATOM     32  C   UNK A   1       1.186  14.522  18.723  0.00  0.00    +0.000 C 
ATOM     33  C   UNK A   1       3.675  14.310  18.753  0.00  0.00    +0.000 C 
ENDBRANCH  29  31
ENDBRANCH  28  29
ENDBRANCH   1  28
TORSDOF 4
ENDMDL
MODEL 4
REMARK VINA RESULT:      -6.7      7.863     10.425
REMARK  Name = 
REMARK  7 active torsions:
REMARK  status: ('A' for Active; 'I' for Inactive)
REMARK    1  A    between atoms: C_1  and  C_2
REMARK    2  A    between atoms: C_2  and  C_3
REMARK    3  A    between atoms: C_2  and  C_4
REMARK    4  A    between atoms: C_2  and  O_5
REMARK    5  A    between atoms: O_5  and  C_6
REMARK    6  A    between atoms: C_6  and  C_7
REMARK    7  A    between atoms: C_22  and  C_23
REMARK                            x       y       z     vdW  Elec       q    Type
REMARK                         _______ _______ _______ _____ _____    ______ ____
ROOT
ATOM      1  C   UNK A   1      -0.308  11.568  18.729  0.00  0.00    +0.000 C 
ATOM      2  N   UNK A   1      -0.218  10.613  19.827  0.00  0.00    +0.000 N 
ATOM      3  C   UNK A   2      -0.388  11.014  21.121  0.00  0.00    +0.000 C 
ATOM      4  O   UNK A   2      -0.724  10.199  21.975  0.00  0.00    +0.000 OA
ATOM      5  C   UNK A   2       0.092  12.440  21.450  0.00  0.00    +0.000 C 
ATOM      6  C   UNK A   2      -0.842  12.992  22.554  0.00  0.00    +0.000 C 
ATOM      7  C   UNK A   2      -0.496  14.401  22.854  0.00  0.00    +0.000 A 
ATOM      8  C   UNK A   2       0.310  15.134  22.008  0.00  0.00    +0.000 A 
ATOM      9  N   UNK A   2       0.451  16.388  22.563  0.00  0.00    +0.000 N 
ATOM     10  C   UNK A   2      -0.355  16.504  23.680  0.00  0.00    +0.000 A 
ATOM     11  C   UNK A   2      -0.616  17.614  24.493  0.00  0.00    +0.000 A 
ATOM     12  C   UNK A   2      -1.492  17.435  25.569  0.00  0.00    +0.000 A 
ATOM     13  C   UNK A   2      -2.087  16.200  25.815  0.00  0.00    +0.000 A 
ATOM     14  C   UNK A   2      -1.823  15.104  24.984  0.00  0.00    +0.000 A 
ATOM     15  C   UNK A   2      -0.944  15.257  23.895  0.00  0.00    +0.000 A 
ATOM     16  C   UNK A   2       0.871  14.700  20.664  0.00  0.00    +0.000 C 
ATOM     17  N   UNK A   2       0.233  13.397  20.309  0.00  0.00    +0.000 N 
ATOM     18  C   UNK A   1       0.512  12.822  19.059  0.00  0.00    +0.000 C 
ATOM     19  O   UNK A   1       1.241  13.306  18.194  0.00  0.00    +0.000 OA
ATOM     20  H   UNK A   1      -0.519   9.659  19.656  0.00  0.00    +0.000 HD
ATOM     21  H   UNK A   2       0.946  17.160  22.137  0.00  0.00    +0.000 HD
ENDROOT
BRANCH  16  22
ATOM     22  C   UNK A   2       0.715  15.813  19.620  0.00  0.00    +0.000 A 
ATOM     23  C   UNK A   2      -0.566  16.164  19.167  0.00  0.00    +0.000 A 
ATOM     24  C   UNK A   2      -0.735  17.095  18.151  0.00  0.00    +0.000 A 
ATOM     25  C   UNK A   2       0.375  17.655  17.528  0.00  0.00    +0.000 A 
ATOM     26  C   UNK A   2       1.658  17.334  17.973  0.00  0.00    +0.000 A 
ATOM     27  C   UNK A   2       1.817  16.453  19.041  0.00  0.00    +0.000 A 
ENDBRANCH  16  22
BRANCH   1  28
ATOM     28  C   UNK A   1      -1.765  11.923  18.384  0.00  0.00    +0.000 C 
BRANCH  28  29
ATOM     29  O   UNK A   1      -2.041  11.776  16.986  0.00  0.00    +0.000 OA
BRANCH  29  31
ATOM     30  C   UNK A   1      -3.126   9.649  17.590  0.00  0.00    +0.000 C 
ATOM     31  C   UNK A   1      -3.079  10.853  16.632  0.00  0.00    +0.000 C 
ATOM     32  C   UNK A   1      -2.918  10.370  15.185  0.00  0.00    +0.000 C 
ATOM     33  C   UNK A   1      -4.424  11.593  16.759  0.00  0.00    +0.000 C 
ENDBRANCH  29  31
ENDBRANCH  28  29
ENDBRANCH   1  28
TORSDOF 4
ENDMDL
MODEL 5
REMARK VINA RESULT:      -6.7      8.397     12.311
REMARK  Name = 
REMARK  7 active torsions:
REMARK  status: ('A' for Active; 'I' for Inactive)
REMARK    1  A    between atoms: C_1  and  C_2
REMARK    2  A    between atoms: C_2  and  C_3
REMARK    3  A    between atoms: C_2  and  C_4
REMARK    4  A    between atoms: C_2  and  O_5
REMARK    5  A    between atoms: O_5  and  C_6
REMARK    6  A    between atoms: C_6  and  C_7
REMARK    7  A    between atoms: C_22  and  C_23
REMARK                            x       y       z     vdW  Elec       q    Type
REMARK                         _______ _______ _______ _____ _____    ______ ____
ROOT
ATOM      1  C   UNK A   1      -4.795  13.472  21.660  0.00  0.00    +0.000 C 
ATOM      2  N   UNK A   1      -4.842  14.927  21.736  0.00  0.00    +0.000 N 
ATOM      3  C   UNK A   2      -3.787  15.685  21.315  0.00  0.00    +0.000 C 
ATOM      4  O   UNK A   2      -3.966  16.855  20.990  0.00  0.00    +0.000 OA
ATOM      5  C   UNK A   2      -2.392  15.062  21.512  0.00  0.00    +0.000 C 
ATOM      6  C   UNK A   2      -1.501  15.563  20.350  0.00  0.00    +0.000 C 
ATOM      7  C   UNK A   2      -0.166  14.926  20.422  0.00  0.00    +0.000 A 
ATOM      8  C   UNK A   2       0.056  13.822  21.219  0.00  0.00    +0.000 A 
ATOM      9  N   UNK A   2       1.384  13.476  21.077  0.00  0.00    +0.000 N 
ATOM     10  C   UNK A   2       1.976  14.262  20.108  0.00  0.00    +0.000 A 
ATOM     11  C   UNK A   2       3.263  14.201  19.558  0.00  0.00    +0.000 A 
ATOM     12  C   UNK A   2       3.589  15.137  18.571  0.00  0.00    +0.000 A 
ATOM     13  C   UNK A   2       2.665  16.089  18.148  0.00  0.00    +0.000 A 
ATOM     14  C   UNK A   2       1.378  16.128  18.701  0.00  0.00    +0.000 A 
ATOM     15  C   UNK A   2       1.025  15.197  19.696  0.00  0.00    +0.000 A 
ATOM     16  C   UNK A   2      -0.970  13.052  22.034  0.00  0.00    +0.000 C 
ATOM     17  N   UNK A   2      -2.321  13.575  21.668  0.00  0.00    +0.000 N 
ATOM     18  C   UNK A   1      -3.458  12.962  22.215  0.00  0.00    +0.000 C 
ATOM     19  O   UNK A   1      -3.455  11.997  22.979  0.00  0.00    +0.000 OA
ATOM     20  H   UNK A   1      -5.740  15.382  21.617  0.00  0.00    +0.000 HD
ATOM     21  H   UNK A   2       1.822  12.671  21.503  0.00  0.00    +0.000 HD
ENDROOT
BRANCH  16  22
ATOM     22  C   UNK A   2      -0.784  11.540  21.861  0.00  0.00    +0.000 A 
ATOM     23  C   UNK A   2      -0.616  10.727  22.994  0.00  0.00    +0.000 A 
ATOM     24  C   UNK A   2      -0.347   9.371  22.868  0.00  0.00    +0.000 A 
ATOM     25  C   UNK A   2      -0.183   8.808  21.607  0.00  0.00    +0.000 A 
ATOM     26  C   UNK A   2      -0.362   9.592  20.467  0.00  0.00    +0.000 A 
ATOM     27  C   UNK A   2      -0.703  10.936  20.601  0.00  0.00    +0.000 A 
ENDBRANCH  16  22
BRANCH   1  28
ATOM     28  C   UNK A   1      -5.046  12.954  20.233  0.00  0.00    +0.000 C 
BRANCH  28  29
ATOM     29  O   UNK A   1      -5.948  11.842  20.211  0.00  0.00    +0.000 OA
BRANCH  29  31
ATOM     30  C   UNK A   1      -4.924  11.020  18.128  0.00  0.00    +0.000 C 
ATOM     31  C   UNK A   1      -6.217  11.260  18.929  0.00  0.00    +0.000 C 
ATOM     32  C   UNK A   1      -7.187  12.130  18.120  0.00  0.00    +0.000 C 
ATOM     33  C   UNK A   1      -6.869   9.885  19.169  0.00  0.00    +0.000 C 
ENDBRANCH  29  31
ENDBRANCH  28  29
ENDBRANCH   1  28
TORSDOF 4
ENDMDL
MODEL 6
REMARK VINA RESULT:      -6.6      8.192     11.656
REMARK  Name = 
REMARK  7 active torsions:
REMARK  status: ('A' for Active; 'I' for Inactive)
REMARK    1  A    between atoms: C_1  and  C_2
REMARK    2  A    between atoms: C_2  and  C_3
REMARK    3  A    between atoms: C_2  and  C_4
REMARK    4  A    between atoms: C_2  and  O_5
REMARK    5  A    between atoms: O_5  and  C_6
REMARK    6  A    between atoms: C_6  and  C_7
REMARK    7  A    between atoms: C_22  and  C_23
REMARK                            x       y       z     vdW  Elec       q    Type
REMARK                         _______ _______ _______ _____ _____    ______ ____
ROOT
ATOM      1  C   UNK A   1       0.974  12.026  19.239  0.00  0.00    +0.000 C 
ATOM      2  N   UNK A   1       0.488  10.873  18.490  0.00  0.00    +0.000 N 
ATOM      3  C   UNK A   2      -0.845  10.705  18.249  0.00  0.00    +0.000 C 
ATOM      4  O   UNK A   2      -1.213  10.009  17.307  0.00  0.00    +0.000 OA
ATOM      5  C   UNK A   2      -1.796  11.225  19.343  0.00  0.00    +0.000 C 
ATOM      6  C   UNK A   2      -3.085  11.707  18.635  0.00  0.00    +0.000 C 
ATOM      7  C   UNK A   2      -4.011  12.310  19.622  0.00  0.00    +0.000 A 
ATOM      8  C   UNK A   2      -3.580  12.659  20.885  0.00  0.00    +0.000 A 
ATOM      9  N   UNK A   2      -4.666  13.179  21.558  0.00  0.00    +0.000 N 
ATOM     10  C   UNK A   2      -5.746  13.285  20.702  0.00  0.00    +0.000 A 
ATOM     11  C   UNK A   2      -7.011  13.847  20.911  0.00  0.00    +0.000 A 
ATOM     12  C   UNK A   2      -7.916  13.817  19.844  0.00  0.00    +0.000 A 
ATOM     13  C   UNK A   2      -7.566  13.254  18.620  0.00  0.00    +0.000 A 
ATOM     14  C   UNK A   2      -6.292  12.707  18.425  0.00  0.00    +0.000 A 
ATOM     15  C   UNK A   2      -5.363  12.724  19.482  0.00  0.00    +0.000 A 
ATOM     16  C   UNK A   2      -2.163  12.586  21.429  0.00  0.00    +0.000 C 
ATOM     17  N   UNK A   2      -1.259  12.256  20.286  0.00  0.00    +0.000 N 
ATOM     18  C   UNK A   1       0.127  12.223  20.504  0.00  0.00    +0.000 C 
ATOM     19  O   UNK A   1       0.691  12.460  21.572  0.00  0.00    +0.000 OA
ATOM     20  H   UNK A   1       1.083  10.492  17.763  0.00  0.00    +0.000 HD
ATOM     21  H   UNK A   2      -4.639  13.569  22.490  0.00  0.00    +0.000 HD
ENDROOT
BRANCH  16  22
ATOM     22  C   UNK A   2      -1.806  13.862  22.200  0.00  0.00    +0.000 A 
ATOM     23  C   UNK A   2      -1.537  13.789  23.576  0.00  0.00    +0.000 A 
ATOM     24  C   UNK A   2      -1.309  14.938  24.322  0.00  0.00    +0.000 A 
ATOM     25  C   UNK A   2      -1.398  16.188  23.721  0.00  0.00    +0.000 A 
ATOM     26  C   UNK A   2      -1.647  16.284  22.351  0.00  0.00    +0.000 A 
ATOM     27  C   UNK A   2      -1.804  15.125  21.595  0.00  0.00    +0.000 A 
ENDBRANCH  16  22
BRANCH   1  28
ATOM     28  C   UNK A   1       1.010  13.304  18.383  0.00  0.00    +0.000 C 
BRANCH  28  29
ATOM     29  O   UNK A   1       2.017  14.223  18.824  0.00  0.00    +0.000 OA
BRANCH  29  31
ATOM     30  C   UNK A   1       2.371  16.605  18.311  0.00  0.00    +0.000 C 
ATOM     31  C   UNK A   1       1.583  15.556  19.117  0.00  0.00    +0.000 C 
ATOM     32  C   UNK A   1       1.688  15.854  20.618  0.00  0.00    +0.000 C 
ATOM     33  C   UNK A   1       0.106  15.669  18.694  0.00  0.00    +0.000 C 
ENDBRANCH  29  31
ENDBRANCH  28  29
ENDBRANCH   1  28
TORSDOF 4
ENDMDL
MODEL 7
REMARK VINA RESULT:      -6.6      8.081     11.419
REMARK  Name = 
REMARK  7 active torsions:
REMARK  status: ('A' for Active; 'I' for Inactive)
REMARK    1  A    between atoms: C_1  and  C_2
REMARK    2  A    between atoms: C_2  and  C_3
REMARK    3  A    between atoms: C_2  and  C_4
REMARK    4  A    between atoms: C_2  and  O_5
REMARK    5  A    between atoms: O_5  and  C_6
REMARK    6  A    between atoms: C_6  and  C_7
REMARK    7  A    between atoms: C_22  and  C_23
REMARK                            x       y       z     vdW  Elec       q    Type
REMARK                         _______ _______ _______ _____ _____    ______ ____
ROOT
ATOM      1  C   UNK A   1       1.057  11.787  19.143  0.00  0.00    +0.000 C 
ATOM      2  N   UNK A   1       0.527  10.647  18.404  0.00  0.00    +0.000 N 
ATOM      3  C   UNK A   2      -0.813  10.526  18.167  0.00  0.00    +0.000 C 
ATOM      4  O   UNK A   2      -1.208   9.836  17.232  0.00  0.00    +0.000 OA
ATOM      5  C   UNK A   2      -1.740  11.088  19.260  0.00  0.00    +0.000 C 
ATOM      6  C   UNK A   2      -3.013  11.611  18.552  0.00  0.00    +0.000 C 
ATOM      7  C   UNK A   2      -3.914  12.255  19.536  0.00  0.00    +0.000 A 
ATOM      8  C   UNK A   2      -3.467  12.598  20.796  0.00  0.00    +0.000 A 
ATOM      9  N   UNK A   2      -4.531  13.162  21.467  0.00  0.00    +0.000 N 
ATOM     10  C   UNK A   2      -5.608  13.301  20.614  0.00  0.00    +0.000 A 
ATOM     11  C   UNK A   2      -6.852  13.910  20.822  0.00  0.00    +0.000 A 
ATOM     12  C   UNK A   2      -7.761  13.905  19.758  0.00  0.00    +0.000 A 
ATOM     13  C   UNK A   2      -7.436  13.320  18.537  0.00  0.00    +0.000 A 
ATOM     14  C   UNK A   2      -6.183  12.725  18.343  0.00  0.00    +0.000 A 
ATOM     15  C   UNK A   2      -5.250  12.716  19.397  0.00  0.00    +0.000 A 
ATOM     16  C   UNK A   2      -2.052  12.477  21.336  0.00  0.00    +0.000 C 
ATOM     17  N   UNK A   2      -1.163  12.106  20.193  0.00  0.00    +0.000 N 
ATOM     18  C   UNK A   1       0.221  12.024  20.408  0.00  0.00    +0.000 C 
ATOM     19  O   UNK A   1       0.796  12.248  21.473  0.00  0.00    +0.000 OA
ATOM     20  H   UNK A   1       1.105  10.239  17.677  0.00  0.00    +0.000 HD
ATOM     21  H   UNK A   2      -4.487  13.557  22.397  0.00  0.00    +0.000 HD
ENDROOT
BRANCH  16  22
ATOM     22  C   UNK A   2      -1.646  13.746  22.096  0.00  0.00    +0.000 A 
ATOM     23  C   UNK A   2      -1.506  13.703  23.493  0.00  0.00    +0.000 A 
ATOM     24  C   UNK A   2      -1.237  14.854  24.220  0.00  0.00    +0.000 A 
ATOM     25  C   UNK A   2      -1.158  16.083  23.575  0.00  0.00    +0.000 A 
ATOM     26  C   UNK A   2      -1.277  16.148  22.186  0.00  0.00    +0.000 A 
ATOM     27  C   UNK A   2      -1.475  14.978  21.456  0.00  0.00    +0.000 A 
ENDBRANCH  16  22
BRANCH   1  28
ATOM     28  C   UNK A   1       1.137  13.056  18.276  0.00  0.00    +0.000 C 
BRANCH  28  29
ATOM     29  O   UNK A   1       2.485  13.505  18.098  0.00  0.00    +0.000 OA
BRANCH  29  31
ATOM     30  C   UNK A   1       1.543  15.542  19.113  0.00  0.00    +0.000 C 
ATOM     31  C   UNK A   1       2.798  14.809  18.604  0.00  0.00    +0.000 C 
ATOM     32  C   UNK A   1       3.512  15.657  17.544  0.00  0.00    +0.000 C 
ATOM     33  C   UNK A   1       3.742  14.627  19.808  0.00  0.00    +0.000 C 
ENDBRANCH  29  31
ENDBRANCH  28  29
ENDBRANCH   1  28
TORSDOF 4
ENDMDL
MODEL 8
REMARK VINA RESULT:      -6.6      2.890      6.825
REMARK  Name = 
REMARK  7 active torsions:
REMARK  status: ('A' for Active; 'I' for Inactive)
REMARK    1  A    between atoms: C_1  and  C_2
REMARK    2  A    between atoms: C_2  and  C_3
REMARK    3  A    between atoms: C_2  and  C_4
REMARK    4  A    between atoms: C_2  and  O_5
REMARK    5  A    between atoms: O_5  and  C_6
REMARK    6  A    between atoms: C_6  and  C_7
REMARK    7  A    between atoms: C_22  and  C_23
REMARK                            x       y       z     vdW  Elec       q    Type
REMARK                         _______ _______ _______ _____ _____    ______ ____
ROOT
ATOM      1  C   UNK A   1       4.043  15.461  21.403  0.00  0.00    +0.000 C 
ATOM      2  N   UNK A   1       4.253  16.239  20.187  0.00  0.00    +0.000 N 
ATOM      3  C   UNK A   2       5.320  15.992  19.372  0.00  0.00    +0.000 C 
ATOM      4  O   UNK A   2       5.278  16.329  18.192  0.00  0.00    +0.000 OA
ATOM      5  C   UNK A   2       6.603  15.511  20.073  0.00  0.00    +0.000 C 
ATOM      6  C   UNK A   2       7.328  14.557  19.092  0.00  0.00    +0.000 C 
ATOM      7  C   UNK A   2       8.529  13.979  19.740  0.00  0.00    +0.000 A 
ATOM      8  C   UNK A   2       8.712  14.060  21.105  0.00  0.00    +0.000 A 
ATOM      9  N   UNK A   2       9.913  13.445  21.393  0.00  0.00    +0.000 N 
ATOM     10  C   UNK A   2      10.431  12.864  20.252  0.00  0.00    +0.000 A 
ATOM     11  C   UNK A   2      11.563  12.055  20.085  0.00  0.00    +0.000 A 
ATOM     12  C   UNK A   2      11.846  11.598  18.793  0.00  0.00    +0.000 A 
ATOM     13  C   UNK A   2      11.028  11.932  17.716  0.00  0.00    +0.000 A 
ATOM     14  C   UNK A   2       9.895  12.733  17.903  0.00  0.00    +0.000 A 
ATOM     15  C   UNK A   2       9.588  13.206  19.193  0.00  0.00    +0.000 A 
ATOM     16  C   UNK A   2       7.747  14.625  22.133  0.00  0.00    +0.000 C 
ATOM     17  N   UNK A   2       6.456  14.905  21.434  0.00  0.00    +0.000 N 
ATOM     18  C   UNK A   1       5.358  15.350  22.186  0.00  0.00    +0.000 C 
ATOM     19  O   UNK A   1       5.347  15.524  23.404  0.00  0.00    +0.000 OA
ATOM     20  H   UNK A   1       3.436  16.583  19.694  0.00  0.00    +0.000 HD
ATOM     21  H   UNK A   2      10.285  13.304  22.322  0.00  0.00    +0.000 HD
ENDROOT
BRANCH  16  22
ATOM     22  C   UNK A   2       7.643  13.703  23.354  0.00  0.00    +0.000 A 
ATOM     23  C   UNK A   2       8.218  14.098  24.573  0.00  0.00    +0.000 A 
ATOM     24  C   UNK A   2       8.229  13.244  25.668  0.00  0.00    +0.000 A 
ATOM     25  C   UNK A   2       7.717  11.957  25.553  0.00  0.00    +0.000 A 
ATOM     26  C   UNK A   2       7.126  11.548  24.356  0.00  0.00    +0.000 A 
ATOM     27  C   UNK A   2       7.054  12.435  23.285  0.00  0.00    +0.000 A 
ENDBRANCH  16  22
BRANCH   1  28
ATOM     28  C   UNK A   1       3.444  14.074  21.109  0.00  0.00    +0.000 C 
BRANCH  28  29
ATOM     29  O   UNK A   1       2.047  14.143  20.799  0.00  0.00    +0.000 OA
BRANCH  29  31
ATOM     30  C   UNK A   1       2.759  13.350  18.579  0.00  0.00    +0.000 C 
ATOM     31  C   UNK A   1       1.621  13.467  19.610  0.00  0.00    +0.000 C 
ATOM     32  C   UNK A   1       0.409  14.166  18.982  0.00  0.00    +0.000 C 
ATOM     33  C   UNK A   1       1.214  12.035  20.007  0.00  0.00    +0.000 C 
ENDBRANCH  29  31
ENDBRANCH  28  29
ENDBRANCH   1  28
TORSDOF 4
ENDMDL
MODEL 9
REMARK VINA RESULT:      -6.5      8.576     12.397
REMARK  Name = 
REMARK  7 active torsions:
REMARK  status: ('A' for Active; 'I' for Inactive)
REMARK    1  A    between atoms: C_1  and  C_2
REMARK    2  A    between atoms: C_2  and  C_3
REMARK    3  A    between atoms: C_2  and  C_4
REMARK    4  A    between atoms: C_2  and  O_5
REMARK    5  A    between atoms: O_5  and  C_6
REMARK    6  A    between atoms: C_6  and  C_7
REMARK    7  A    between atoms: C_22  and  C_23
REMARK                            x       y       z     vdW  Elec       q    Type
REMARK                         _______ _______ _______ _____ _____    ______ ____
ROOT
ATOM      1  C   UNK A   1      -4.071  12.959  24.132  0.00  0.00    +0.000 C 
ATOM      2  N   UNK A   1      -3.811  14.030  25.087  0.00  0.00    +0.000 N 
ATOM      3  C   UNK A   2      -2.948  15.045  24.784  0.00  0.00    +0.000 C 
ATOM      4  O   UNK A   2      -3.039  16.120  25.369  0.00  0.00    +0.000 OA
ATOM      5  C   UNK A   2      -1.760  14.668  23.880  0.00  0.00    +0.000 C 
ATOM      6  C   UNK A   2      -1.427  15.912  23.022  0.00  0.00    +0.000 C 
ATOM      7  C   UNK A   2      -0.349  15.590  22.058  0.00  0.00    +0.000 A 
ATOM      8  C   UNK A   2       0.007  14.284  21.795  0.00  0.00    +0.000 A 
ATOM      9  N   UNK A   2       1.033  14.318  20.874  0.00  0.00    +0.000 N 
ATOM     10  C   UNK A   2       1.246  15.616  20.451  0.00  0.00    +0.000 A 
ATOM     11  C   UNK A   2       2.101  16.114  19.460  0.00  0.00    +0.000 A 
ATOM     12  C   UNK A   2       2.103  17.496  19.242  0.00  0.00    +0.000 A 
ATOM     13  C   UNK A   2       1.279  18.342  19.981  0.00  0.00    +0.000 A 
ATOM     14  C   UNK A   2       0.422  17.825  20.960  0.00  0.00    +0.000 A 
ATOM     15  C   UNK A   2       0.401  16.438  21.200  0.00  0.00    +0.000 A 
ATOM     16  C   UNK A   2      -0.651  13.023  22.330  0.00  0.00    +0.000 C 
ATOM     17  N   UNK A   2      -1.898  13.434  23.044  0.00  0.00    +0.000 N 
ATOM     18  C   UNK A   1      -2.747  12.440  23.555  0.00  0.00    +0.000 C 
ATOM     19  O   UNK A   1      -2.570  11.226  23.458  0.00  0.00    +0.000 OA
ATOM     20  H   UNK A   1      -4.563  14.310  25.707  0.00  0.00    +0.000 HD
ATOM     21  H   UNK A   2       1.462  13.506  20.453  0.00  0.00    +0.000 HD
ENDROOT
BRANCH  16  22
ATOM     22  C   UNK A   2      -0.846  11.990  21.214  0.00  0.00    +0.000 A 
ATOM     23  C   UNK A   2      -0.078  10.815  21.214  0.00  0.00    +0.000 A 
ATOM     24  C   UNK A   2      -0.158   9.907  20.166  0.00  0.00    +0.000 A 
ATOM     25  C   UNK A   2      -0.965  10.182  19.068  0.00  0.00    +0.000 A 
ATOM     26  C   UNK A   2      -1.750  11.336  19.052  0.00  0.00    +0.000 A 
ATOM     27  C   UNK A   2      -1.718  12.206  20.140  0.00  0.00    +0.000 A 
ENDBRANCH  16  22
BRANCH   1  28
ATOM     28  C   UNK A   1      -5.039  13.394  23.018  0.00  0.00    +0.000 C 
BRANCH  28  29
ATOM     29  O   UNK A   1      -5.519  12.282  22.253  0.00  0.00    +0.000 OA
BRANCH  29  31
ATOM     30  C   UNK A   1      -5.375  12.638  19.820  0.00  0.00    +0.000 C 
ATOM     31  C   UNK A   1      -6.269  12.593  21.073  0.00  0.00    +0.000 C 
ATOM     32  C   UNK A   1      -7.023  13.919  21.231  0.00  0.00    +0.000 C 
ATOM     33  C   UNK A   1      -7.296  11.464  20.863  0.00  0.00    +0.000 C 
ENDBRANCH  29  31
ENDBRANCH  28  29
ENDBRANCH   1  28
TORSDOF 4
ENDMDL
