MODEL 1
REMARK VINA RESULT:      -9.2      0.000      0.000
REMARK  Name = 
REMARK  3 active torsions:
REMARK  status: ('A' for Active; 'I' for Inactive)
REMARK    1  A    between atoms: C_5  and  N_6
REMARK    2  A    between atoms: N_10  and  C_11
REMARK    3  A    between atoms: C_11  and  C_12
REMARK                            x       y       z     vdW  Elec       q    Type
REMARK                         _______ _______ _______ _____ _____    ______ ____
ROOT
ATOM      1  N   UNL     1       2.917   7.954  18.357  0.00  0.00    +0.000 N 
ATOM      2  C   UNL     1       2.954   6.570  18.177  0.00  0.00    +0.000 A 
ATOM      3  N   UNL     1       3.950   6.065  17.436  0.00  0.00    +0.000 NA
ATOM      4  C   UNL     1       3.964   4.734  17.234  0.00  0.00    +0.000 A 
ATOM      5  N   UNL     1       4.958   4.177  16.416  0.00  0.00    +0.000 N 
ATOM      6  C   UNL     1       3.044   3.873  17.864  0.00  0.00    +0.000 A 
ATOM      7  C   UNL     1       3.038   2.455  17.783  0.00  0.00    +0.000 A 
ATOM      8  C   UNL     1       2.132   1.700  18.530  0.00  0.00    +0.000 A 
ATOM      9  C   UNL     1       1.225   2.346  19.359  0.00  0.00    +0.000 A 
ATOM     10  C   UNL     1       1.213   3.740  19.415  0.00  0.00    +0.000 A 
ATOM     11  C   UNL     1       2.104   4.504  18.674  0.00  0.00    +0.000 A 
ATOM     12  N   UNL     1       2.031   5.824  18.792  0.00  0.00    +0.000 NA
ATOM     13  H   UNL     1       3.840   8.290  18.583  0.00  0.00    +0.000 HD
ATOM     14  H   UNL     1       4.538   3.665  15.645  0.00  0.00    +0.000 HD
ENDROOT
BRANCH   1  19
ATOM     15 CL   UNL     1      -1.707  11.275  20.033  0.00  0.00    +0.000 Cl
ATOM     16  C   UNL     1      -0.371  10.310  19.543  0.00  0.00    +0.000 A 
ATOM     17  C   UNL     1       0.363   9.605  20.493  0.00  0.00    +0.000 A 
ATOM     18  C   UNL     1       1.457   8.825  20.097  0.00  0.00    +0.000 A 
ATOM     19  C   UNL     1       1.820   8.734  18.749  0.00  0.00    +0.000 A 
ATOM     20  C   UNL     1       1.065   9.455  17.810  0.00  0.00    +0.000 A 
ATOM     21  C   UNL     1      -0.023  10.241  18.200  0.00  0.00    +0.000 A 
ENDBRANCH   1  19
BRANCH   5  22
ATOM     22  C   UNL     1       6.030   5.057  15.969  0.00  0.00    +0.000 C 
BRANCH  22  23
ATOM     23  C   UNL     1       6.370   4.711  14.535  0.00  0.00    +0.000 A 
ATOM     24  C   UNL     1       7.467   5.293  13.882  0.00  0.00    +0.000 A 
ATOM     25  C   UNL     1       7.766   4.948  12.560  0.00  0.00    +0.000 A 
ATOM     26  C   UNL     1       6.979   4.018  11.880  0.00  0.00    +0.000 A 
ATOM     27  C   UNL     1       5.906   3.415  12.522  0.00  0.00    +0.000 A 
ATOM     28  C   UNL     1       5.606   3.750  13.842  0.00  0.00    +0.000 A 
ENDBRANCH  22  23
ENDBRANCH   5  22
TORSDOF 3
ENDMDL
MODEL 2
REMARK VINA RESULT:      -9.1      0.139      1.344
REMARK  Name = 
REMARK  3 active torsions:
REMARK  status: ('A' for Active; 'I' for Inactive)
REMARK    1  A    between atoms: C_5  and  N_6
REMARK    2  A    between atoms: N_10  and  C_11
REMARK    3  A    between atoms: C_11  and  C_12
REMARK                            x       y       z     vdW  Elec       q    Type
REMARK                         _______ _______ _______ _____ _____    ______ ____
ROOT
ATOM      1  N   UNL     1       3.030   7.843  18.358  0.00  0.00    +0.000 N 
ATOM      2  C   UNL     1       3.043   6.460  18.163  0.00  0.00    +0.000 A 
ATOM      3  N   UNL     1       4.042   5.943  17.437  0.00  0.00    +0.000 NA
ATOM      4  C   UNL     1       4.033   4.614  17.220  0.00  0.00    +0.000 A 
ATOM      5  N   UNL     1       5.033   4.045  16.416  0.00  0.00    +0.000 N 
ATOM      6  C   UNL     1       3.084   3.766  17.823  0.00  0.00    +0.000 A 
ATOM      7  C   UNL     1       3.050   2.349  17.726  0.00  0.00    +0.000 A 
ATOM      8  C   UNL     1       2.115   1.605  18.447  0.00  0.00    +0.000 A 
ATOM      9  C   UNL     1       1.205   2.261  19.265  0.00  0.00    +0.000 A 
ATOM     10  C   UNL     1       1.221   3.653  19.336  0.00  0.00    +0.000 A 
ATOM     11  C   UNL     1       2.142   4.407  18.621  0.00  0.00    +0.000 A 
ATOM     12  N   UNL     1       2.093   5.727  18.752  0.00  0.00    +0.000 NA
ATOM     13  H   UNL     1       3.956   8.158  18.605  0.00  0.00    +0.000 HD
ATOM     14  H   UNL     1       4.618   3.550  15.631  0.00  0.00    +0.000 HD
ENDROOT
BRANCH   1  19
ATOM     15 CL   UNL     1      -1.598  11.203  19.941  0.00  0.00    +0.000 Cl
ATOM     16  C   UNL     1      -0.254  10.233  19.488  0.00  0.00    +0.000 A 
ATOM     17  C   UNL     1       0.148  10.180  18.156  0.00  0.00    +0.000 A 
ATOM     18  C   UNL     1       1.238   9.383  17.782  0.00  0.00    +0.000 A 
ATOM     19  C   UNL     1       1.942   8.641  18.737  0.00  0.00    +0.000 A 
ATOM     20  C   UNL     1       1.517   8.710  20.074  0.00  0.00    +0.000 A 
ATOM     21  C   UNL     1       0.426   9.497  20.451  0.00  0.00    +0.000 A 
ENDBRANCH   1  19
BRANCH   5  22
ATOM     22  C   UNL     1       6.130   4.908  16.000  0.00  0.00    +0.000 C 
BRANCH  22  23
ATOM     23  C   UNL     1       6.449   4.614  14.549  0.00  0.00    +0.000 A 
ATOM     24  C   UNL     1       5.699   3.689  13.808  0.00  0.00    +0.000 A 
ATOM     25  C   UNL     1       6.008   3.442  12.466  0.00  0.00    +0.000 A 
ATOM     26  C   UNL     1       7.062   4.119  11.851  0.00  0.00    +0.000 A 
ATOM     27  C   UNL     1       7.796   5.056  12.565  0.00  0.00    +0.000 A 
ATOM     28  C   UNL     1       7.490   5.310  13.902  0.00  0.00    +0.000 A 
ENDBRANCH  22  23
ENDBRANCH   5  22
TORSDOF 3
ENDMDL
MODEL 3
REMARK VINA RESULT:      -8.9      0.348      1.007
REMARK  Name = 
REMARK  3 active torsions:
REMARK  status: ('A' for Active; 'I' for Inactive)
REMARK    1  A    between atoms: C_5  and  N_6
REMARK    2  A    between atoms: N_10  and  C_11
REMARK    3  A    between atoms: C_11  and  C_12
REMARK                            x       y       z     vdW  Elec       q    Type
REMARK                         _______ _______ _______ _____ _____    ______ ____
ROOT
ATOM      1  N   UNL     1       2.746   8.232  18.234  0.00  0.00    +0.000 N 
ATOM      2  C   UNL     1       2.835   6.840  18.162  0.00  0.00    +0.000 A 
ATOM      3  N   UNL     1       3.821   6.317  17.421  0.00  0.00    +0.000 NA
ATOM      4  C   UNL     1       3.884   4.976  17.324  0.00  0.00    +0.000 A 
ATOM      5  N   UNL     1       4.868   4.395  16.510  0.00  0.00    +0.000 N 
ATOM      6  C   UNL     1       3.030   4.133  18.061  0.00  0.00    +0.000 A 
ATOM      7  C   UNL     1       3.082   2.714  18.093  0.00  0.00    +0.000 A 
ATOM      8  C   UNL     1       2.242   1.986  18.937  0.00  0.00    +0.000 A 
ATOM      9  C   UNL     1       1.342   2.661  19.752  0.00  0.00    +0.000 A 
ATOM     10  C   UNL     1       1.272   4.052  19.698  0.00  0.00    +0.000 A 
ATOM     11  C   UNL     1       2.098   4.789  18.860  0.00  0.00    +0.000 A 
ATOM     12  N   UNL     1       1.972   6.111  18.875  0.00  0.00    +0.000 NA
ATOM     13  H   UNL     1       3.662   8.622  18.390  0.00  0.00    +0.000 HD
ATOM     14  H   UNL     1       4.439   3.806  15.800  0.00  0.00    +0.000 HD
ENDROOT
BRANCH   1  19
ATOM     15 CL   UNL     1      -1.946  11.492  19.841  0.00  0.00    +0.000 Cl
ATOM     16  C   UNL     1      -0.591  10.544  19.372  0.00  0.00    +0.000 A 
ATOM     17  C   UNL     1       0.319  10.109  20.331  0.00  0.00    +0.000 A 
ATOM     18  C   UNL     1       1.429   9.343  19.951  0.00  0.00    +0.000 A 
ATOM     19  C   UNL     1       1.633   8.996  18.611  0.00  0.00    +0.000 A 
ATOM     20  C   UNL     1       0.701   9.448  17.661  0.00  0.00    +0.000 A 
ATOM     21  C   UNL     1      -0.403  10.218  18.034  0.00  0.00    +0.000 A 
ENDBRANCH   1  19
BRANCH   5  22
ATOM     22  C   UNL     1       5.880   5.278  15.946  0.00  0.00    +0.000 C 
BRANCH  22  23
ATOM     23  C   UNL     1       6.243   4.776  14.565  0.00  0.00    +0.000 A 
ATOM     24  C   UNL     1       5.418   3.874  13.875  0.00  0.00    +0.000 A 
ATOM     25  C   UNL     1       5.772   3.432  12.595  0.00  0.00    +0.000 A 
ATOM     26  C   UNL     1       6.943   3.889  11.991  0.00  0.00    +0.000 A 
ATOM     27  C   UNL     1       7.755   4.801  12.651  0.00  0.00    +0.000 A 
ATOM     28  C   UNL     1       7.406   5.250  13.926  0.00  0.00    +0.000 A 
ENDBRANCH  22  23
ENDBRANCH   5  22
TORSDOF 3
ENDMDL
MODEL 4
REMARK VINA RESULT:      -8.8      1.847      2.944
REMARK  Name = 
REMARK  3 active torsions:
REMARK  status: ('A' for Active; 'I' for Inactive)
REMARK    1  A    between atoms: C_5  and  N_6
REMARK    2  A    between atoms: N_10  and  C_11
REMARK    3  A    between atoms: C_11  and  C_12
REMARK                            x       y       z     vdW  Elec       q    Type
REMARK                         _______ _______ _______ _____ _____    ______ ____
ROOT
ATOM      1  N   UNL     1       2.497   8.255  18.413  0.00  0.00    +0.000 N 
ATOM      2  C   UNL     1       2.561   6.862  18.496  0.00  0.00    +0.000 A 
ATOM      3  N   UNL     1       3.428   6.230  17.694  0.00  0.00    +0.000 NA
ATOM      4  C   UNL     1       3.464   4.886  17.750  0.00  0.00    +0.000 A 
ATOM      5  N   UNL     1       4.318   4.187  16.884  0.00  0.00    +0.000 N 
ATOM      6  C   UNL     1       2.712   4.157  18.692  0.00  0.00    +0.000 A 
ATOM      7  C   UNL     1       2.753   2.750  18.885  0.00  0.00    +0.000 A 
ATOM      8  C   UNL     1       2.031   2.149  19.918  0.00  0.00    +0.000 A 
ATOM      9  C   UNL     1       1.261   2.938  20.762  0.00  0.00    +0.000 A 
ATOM     10  C   UNL     1       1.199   4.315  20.552  0.00  0.00    +0.000 A 
ATOM     11  C   UNL     1       1.907   4.926  19.527  0.00  0.00    +0.000 A 
ATOM     12  N   UNL     1       1.798   6.244  19.403  0.00  0.00    +0.000 NA
ATOM     13  H   UNL     1       3.430   8.636  18.395  0.00  0.00    +0.000 HD
ATOM     14  H   UNL     1       3.789   3.531  16.315  0.00  0.00    +0.000 HD
ENDROOT
BRANCH   1  19
ATOM     15 CL   UNL     1      -1.935  11.758  20.231  0.00  0.00    +0.000 Cl
ATOM     16  C   UNL     1      -0.647  10.747  19.708  0.00  0.00    +0.000 A 
ATOM     17  C   UNL     1      -0.482  10.476  18.353  0.00  0.00    +0.000 A 
ATOM     18  C   UNL     1       0.562   9.645  17.925  0.00  0.00    +0.000 A 
ATOM     19  C   UNL     1       1.455   9.087  18.845  0.00  0.00    +0.000 A 
ATOM     20  C   UNL     1       1.267   9.375  20.207  0.00  0.00    +0.000 A 
ATOM     21  C   UNL     1       0.224  10.197  20.640  0.00  0.00    +0.000 A 
ENDBRANCH   1  19
BRANCH   5  22
ATOM     22  C   UNL     1       5.252   4.972  16.086  0.00  0.00    +0.000 C 
BRANCH  22  23
ATOM     23  C   UNL     1       6.264   5.607  17.016  0.00  0.00    +0.000 A 
ATOM     24  C   UNL     1       6.858   4.878  18.058  0.00  0.00    +0.000 A 
ATOM     25  C   UNL     1       7.797   5.486  18.898  0.00  0.00    +0.000 A 
ATOM     26  C   UNL     1       8.157   6.820  18.703  0.00  0.00    +0.000 A 
ATOM     27  C   UNL     1       7.597   7.545  17.660  0.00  0.00    +0.000 A 
ATOM     28  C   UNL     1       6.663   6.943  16.815  0.00  0.00    +0.000 A 
ENDBRANCH  22  23
ENDBRANCH   5  22
TORSDOF 3
ENDMDL
MODEL 5
REMARK VINA RESULT:      -8.7      1.850      2.710
REMARK  Name = 
REMARK  3 active torsions:
REMARK  status: ('A' for Active; 'I' for Inactive)
REMARK    1  A    between atoms: C_5  and  N_6
REMARK    2  A    between atoms: N_10  and  C_11
REMARK    3  A    between atoms: C_11  and  C_12
REMARK                            x       y       z     vdW  Elec       q    Type
REMARK                         _______ _______ _______ _____ _____    ______ ____
ROOT
ATOM      1  N   UNL     1       2.485   8.244  18.441  0.00  0.00    +0.000 N 
ATOM      2  C   UNL     1       2.557   6.852  18.519  0.00  0.00    +0.000 A 
ATOM      3  N   UNL     1       3.417   6.226  17.704  0.00  0.00    +0.000 NA
ATOM      4  C   UNL     1       3.460   4.882  17.756  0.00  0.00    +0.000 A 
ATOM      5  N   UNL     1       4.307   4.190  16.877  0.00  0.00    +0.000 N 
ATOM      6  C   UNL     1       2.724   4.147  18.706  0.00  0.00    +0.000 A 
ATOM      7  C   UNL     1       2.775   2.740  18.895  0.00  0.00    +0.000 A 
ATOM      8  C   UNL     1       2.069   2.133  19.935  0.00  0.00    +0.000 A 
ATOM      9  C   UNL     1       1.306   2.915  20.791  0.00  0.00    +0.000 A 
ATOM     10  C   UNL     1       1.234   4.292  20.586  0.00  0.00    +0.000 A 
ATOM     11  C   UNL     1       1.926   4.910  19.553  0.00  0.00    +0.000 A 
ATOM     12  N   UNL     1       1.809   6.228  19.434  0.00  0.00    +0.000 NA
ATOM     13  H   UNL     1       3.415   8.630  18.411  0.00  0.00    +0.000 HD
ATOM     14  H   UNL     1       3.773   3.533  16.313  0.00  0.00    +0.000 HD
ENDROOT
BRANCH   1  19
ATOM     15 CL   UNL     1      -1.896  11.763  20.350  0.00  0.00    +0.000 Cl
ATOM     16  C   UNL     1      -0.632  10.740  19.793  0.00  0.00    +0.000 A 
ATOM     17  C   UNL     1       0.210  10.113  20.708  0.00  0.00    +0.000 A 
ATOM     18  C   UNL     1       1.246   9.286  20.256  0.00  0.00    +0.000 A 
ATOM     19  C   UNL     1       1.445   9.071  18.888  0.00  0.00    +0.000 A 
ATOM     20  C   UNL     1       0.583   9.715  17.985  0.00  0.00    +0.000 A 
ATOM     21  C   UNL     1      -0.448  10.546  18.430  0.00  0.00    +0.000 A 
ENDBRANCH   1  19
BRANCH   5  22
ATOM     22  C   UNL     1       5.226   4.981  16.069  0.00  0.00    +0.000 C 
BRANCH  22  23
ATOM     23  C   UNL     1       6.260   5.600  16.985  0.00  0.00    +0.000 A 
ATOM     24  C   UNL     1       6.635   6.947  16.862  0.00  0.00    +0.000 A 
ATOM     25  C   UNL     1       7.586   7.498  17.727  0.00  0.00    +0.000 A 
ATOM     26  C   UNL     1       8.167   6.714  18.725  0.00  0.00    +0.000 A 
ATOM     27  C   UNL     1       7.786   5.387  18.876  0.00  0.00    +0.000 A 
ATOM     28  C   UNL     1       6.834   4.834  18.019  0.00  0.00    +0.000 A 
ENDBRANCH  22  23
ENDBRANCH   5  22
TORSDOF 3
ENDMDL
MODEL 6
REMARK VINA RESULT:      -8.6      2.455      3.225
REMARK  Name = 
REMARK  3 active torsions:
REMARK  status: ('A' for Active; 'I' for Inactive)
REMARK    1  A    between atoms: C_5  and  N_6
REMARK    2  A    between atoms: N_10  and  C_11
REMARK    3  A    between atoms: C_11  and  C_12
REMARK                            x       y       z     vdW  Elec       q    Type
REMARK                         _______ _______ _______ _____ _____    ______ ____
ROOT
ATOM      1  N   UNL     1       2.299   8.347  19.877  0.00  0.00    +0.000 N 
ATOM      2  C   UNL     1       2.359   6.992  19.545  0.00  0.00    +0.000 A 
ATOM      3  N   UNL     1       3.110   6.641  18.493  0.00  0.00    +0.000 NA
ATOM      4  C   UNL     1       3.138   5.339  18.153  0.00  0.00    +0.000 A 
ATOM      5  N   UNL     1       3.868   4.942  17.022  0.00  0.00    +0.000 N 
ATOM      6  C   UNL     1       2.504   4.350  18.931  0.00  0.00    +0.000 A 
ATOM      7  C   UNL     1       2.554   2.949  18.703  0.00  0.00    +0.000 A 
ATOM      8  C   UNL     1       1.963   2.057  19.599  0.00  0.00    +0.000 A 
ATOM      9  C   UNL     1       1.315   2.548  20.724  0.00  0.00    +0.000 A 
ATOM     10  C   UNL     1       1.241   3.925  20.931  0.00  0.00    +0.000 A 
ATOM     11  C   UNL     1       1.820   4.825  20.046  0.00  0.00    +0.000 A 
ATOM     12  N   UNL     1       1.711   6.119  20.322  0.00  0.00    +0.000 NA
ATOM     13  H   UNL     1       3.227   8.742  19.853  0.00  0.00    +0.000 HD
ATOM     14  H   UNL     1       3.264   4.464  16.359  0.00  0.00    +0.000 HD
ENDROOT
BRANCH   1  19
ATOM     15 CL   UNL     1      -1.780  11.095  23.198  0.00  0.00    +0.000 Cl
ATOM     16  C   UNL     1      -0.603  10.297  22.232  0.00  0.00    +0.000 A 
ATOM     17  C   UNL     1       0.344   9.471  22.831  0.00  0.00    +0.000 A 
ATOM     18  C   UNL     1       1.310   8.826  22.046  0.00  0.00    +0.000 A 
ATOM     19  C   UNL     1       1.330   8.992  20.657  0.00  0.00    +0.000 A 
ATOM     20  C   UNL     1       0.364   9.831  20.077  0.00  0.00    +0.000 A 
ATOM     21  C   UNL     1      -0.596  10.482  20.855  0.00  0.00    +0.000 A 
ENDBRANCH   1  19
BRANCH   5  22
ATOM     22  C   UNL     1       4.701   5.948  16.375  0.00  0.00    +0.000 C 
BRANCH  22  23
ATOM     23  C   UNL     1       5.932   6.173  17.227  0.00  0.00    +0.000 A 
ATOM     24  C   UNL     1       6.453   5.156  18.043  0.00  0.00    +0.000 A 
ATOM     25  C   UNL     1       7.598   5.387  18.813  0.00  0.00    +0.000 A 
ATOM     26  C   UNL     1       8.236   6.627  18.772  0.00  0.00    +0.000 A 
ATOM     27  C   UNL     1       7.747   7.633  17.950  0.00  0.00    +0.000 A 
ATOM     28  C   UNL     1       6.608   7.408  17.175  0.00  0.00    +0.000 A 
ENDBRANCH  22  23
ENDBRANCH   5  22
TORSDOF 3
ENDMDL
MODEL 7
REMARK VINA RESULT:      -8.3      1.373      1.826
REMARK  Name = 
REMARK  3 active torsions:
REMARK  status: ('A' for Active; 'I' for Inactive)
REMARK    1  A    between atoms: C_5  and  N_6
REMARK    2  A    between atoms: N_10  and  C_11
REMARK    3  A    between atoms: C_11  and  C_12
REMARK                            x       y       z     vdW  Elec       q    Type
REMARK                         _______ _______ _______ _____ _____    ______ ____
ROOT
ATOM      1  N   UNL     1       2.591   8.984  17.866  0.00  0.00    +0.000 N 
ATOM      2  C   UNL     1       2.874   7.649  18.163  0.00  0.00    +0.000 A 
ATOM      3  N   UNL     1       3.858   7.053  17.476  0.00  0.00    +0.000 NA
ATOM      4  C   UNL     1       4.106   5.756  17.739  0.00  0.00    +0.000 A 
ATOM      5  N   UNL     1       5.090   5.084  16.999  0.00  0.00    +0.000 N 
ATOM      6  C   UNL     1       3.447   5.065  18.774  0.00  0.00    +0.000 A 
ATOM      7  C   UNL     1       3.705   3.729  19.182  0.00  0.00    +0.000 A 
ATOM      8  C   UNL     1       3.053   3.180  20.287  0.00  0.00    +0.000 A 
ATOM      9  C   UNL     1       2.138   3.950  20.992  0.00  0.00    +0.000 A 
ATOM     10  C   UNL     1       1.864   5.251  20.572  0.00  0.00    +0.000 A 
ATOM     11  C   UNL     1       2.501   5.809  19.473  0.00  0.00    +0.000 A 
ATOM     12  N   UNL     1       2.188   7.058  19.146  0.00  0.00    +0.000 NA
ATOM     13  H   UNL     1       3.452   9.505  17.799  0.00  0.00    +0.000 HD
ATOM     14  H   UNL     1       4.693   4.273  16.532  0.00  0.00    +0.000 HD
ENDROOT
BRANCH   1  19
ATOM     15 CL   UNL     1      -2.398  11.950  19.102  0.00  0.00    +0.000 Cl
ATOM     16  C   UNL     1      -0.950  11.097  18.742  0.00  0.00    +0.000 A 
ATOM     17  C   UNL     1      -0.985   9.994  17.893  0.00  0.00    +0.000 A 
ATOM     18  C   UNL     1       0.193   9.292  17.606  0.00  0.00    +0.000 A 
ATOM     19  C   UNL     1       1.416   9.691  18.155  0.00  0.00    +0.000 A 
ATOM     20  C   UNL     1       1.425  10.806  19.009  0.00  0.00    +0.000 A 
ATOM     21  C   UNL     1       0.253  11.506  19.305  0.00  0.00    +0.000 A 
ENDBRANCH   1  19
BRANCH   5  22
ATOM     22  C   UNL     1       5.914   5.882  16.099  0.00  0.00    +0.000 C 
BRANCH  22  23
ATOM     23  C   UNL     1       6.112   5.106  14.814  0.00  0.00    +0.000 A 
ATOM     24  C   UNL     1       5.131   4.226  14.331  0.00  0.00    +0.000 A 
ATOM     25  C   UNL     1       5.335   3.529  13.136  0.00  0.00    +0.000 A 
ATOM     26  C   UNL     1       6.513   3.706  12.410  0.00  0.00    +0.000 A 
ATOM     27  C   UNL     1       7.481   4.593  12.862  0.00  0.00    +0.000 A 
ATOM     28  C   UNL     1       7.282   5.296  14.050  0.00  0.00    +0.000 A 
ENDBRANCH  22  23
ENDBRANCH   5  22
TORSDOF 3
ENDMDL
MODEL 8
REMARK VINA RESULT:      -8.2      1.142      1.310
REMARK  Name = 
REMARK  3 active torsions:
REMARK  status: ('A' for Active; 'I' for Inactive)
REMARK    1  A    between atoms: C_5  and  N_6
REMARK    2  A    between atoms: N_10  and  C_11
REMARK    3  A    between atoms: C_11  and  C_12
REMARK                            x       y       z     vdW  Elec       q    Type
REMARK                         _______ _______ _______ _____ _____    ______ ____
ROOT
ATOM      1  N   UNL     1       2.789   8.015  18.851  0.00  0.00    +0.000 N 
ATOM      2  C   UNL     1       2.899   6.634  19.030  0.00  0.00    +0.000 A 
ATOM      3  N   UNL     1       3.990   6.028  18.543  0.00  0.00    +0.000 NA
ATOM      4  C   UNL     1       4.078   4.692  18.685  0.00  0.00    +0.000 A 
ATOM      5  N   UNL     1       5.178   4.016  18.136  0.00  0.00    +0.000 N 
ATOM      6  C   UNL     1       3.128   3.956  19.419  0.00  0.00    +0.000 A 
ATOM      7  C   UNL     1       3.185   2.564  19.698  0.00  0.00    +0.000 A 
ATOM      8  C   UNL     1       2.232   1.959  20.519  0.00  0.00    +0.000 A 
ATOM      9  C   UNL     1       1.214   2.730  21.065  0.00  0.00    +0.000 A 
ATOM     10  C   UNL     1       1.142   4.090  20.766  0.00  0.00    +0.000 A 
ATOM     11  C   UNL     1       2.080   4.704  19.947  0.00  0.00    +0.000 A 
ATOM     12  N   UNL     1       1.943   6.005  19.720  0.00  0.00    +0.000 NA
ATOM     13  H   UNL     1       3.668   8.456  19.073  0.00  0.00    +0.000 HD
ATOM     14  H   UNL     1       4.867   3.304  17.482  0.00  0.00    +0.000 HD
ENDROOT
BRANCH   1  19
ATOM     15 CL   UNL     1      -2.117  11.337  19.171  0.00  0.00    +0.000 Cl
ATOM     16  C   UNL     1      -0.699  10.371  19.074  0.00  0.00    +0.000 A 
ATOM     17  C   UNL     1      -0.045   9.976  20.238  0.00  0.00    +0.000 A 
ATOM     18  C   UNL     1       1.115   9.196  20.161  0.00  0.00    +0.000 A 
ATOM     19  C   UNL     1       1.626   8.794  18.923  0.00  0.00    +0.000 A 
ATOM     20  C   UNL     1       0.949   9.205  17.763  0.00  0.00    +0.000 A 
ATOM     21  C   UNL     1      -0.204   9.989  17.833  0.00  0.00    +0.000 A 
ENDBRANCH   1  19
BRANCH   5  22
ATOM     22  C   UNL     1       6.258   4.827  17.589  0.00  0.00    +0.000 C 
BRANCH  22  23
ATOM     23  C   UNL     1       6.301   4.622  16.089  0.00  0.00    +0.000 A 
ATOM     24  C   UNL     1       7.343   5.145  15.308  0.00  0.00    +0.000 A 
ATOM     25  C   UNL     1       7.364   4.932  13.926  0.00  0.00    +0.000 A 
ATOM     26  C   UNL     1       6.353   4.193  13.312  0.00  0.00    +0.000 A 
ATOM     27  C   UNL     1       5.330   3.647  14.075  0.00  0.00    +0.000 A 
ATOM     28  C   UNL     1       5.306   3.851  15.455  0.00  0.00    +0.000 A 
ENDBRANCH  22  23
ENDBRANCH   5  22
TORSDOF 3
ENDMDL
MODEL 9
REMARK VINA RESULT:      -8.1      4.873     10.954
REMARK  Name = 
REMARK  3 active torsions:
REMARK  status: ('A' for Active; 'I' for Inactive)
REMARK    1  A    between atoms: C_5  and  N_6
REMARK    2  A    between atoms: N_10  and  C_11
REMARK    3  A    between atoms: C_11  and  C_12
REMARK                            x       y       z     vdW  Elec       q    Type
REMARK                         _______ _______ _______ _____ _____    ______ ____
ROOT
ATOM      1  N   UNL     1       0.671  10.139  19.577  0.00  0.00    +0.000 N 
ATOM      2  C   UNL     1      -0.555  10.503  19.017  0.00  0.00    +0.000 A 
ATOM      3  N   UNL     1      -1.307  11.387  19.686  0.00  0.00    +0.000 NA
ATOM      4  C   UNL     1      -2.504  11.710  19.162  0.00  0.00    +0.000 A 
ATOM      5  N   UNL     1      -3.344  12.588  19.864  0.00  0.00    +0.000 N 
ATOM      6  C   UNL     1      -2.919  11.240  17.901  0.00  0.00    +0.000 A 
ATOM      7  C   UNL     1      -4.120  11.597  17.231  0.00  0.00    +0.000 A 
ATOM      8  C   UNL     1      -4.380  11.139  15.938  0.00  0.00    +0.000 A 
ATOM      9  C   UNL     1      -3.454  10.321  15.304  0.00  0.00    +0.000 A 
ATOM     10  C   UNL     1      -2.290   9.948  15.975  0.00  0.00    +0.000 A 
ATOM     11  C   UNL     1      -2.020  10.391  17.262  0.00  0.00    +0.000 A 
ATOM     12  N   UNL     1      -0.885   9.995  17.826  0.00  0.00    +0.000 NA
ATOM     13  H   UNL     1       1.153  10.963  19.901  0.00  0.00    +0.000 HD
ATOM     14  H   UNL     1      -4.240  12.147  20.054  0.00  0.00    +0.000 HD
ENDROOT
BRANCH   1  19
ATOM     15 CL   UNL     1       3.943   5.344  18.343  0.00  0.00    +0.000 Cl
ATOM     16  C   UNL     1       2.990   6.729  18.702  0.00  0.00    +0.000 A 
ATOM     17  C   UNL     1       2.891   7.764  17.776  0.00  0.00    +0.000 A 
ATOM     18  C   UNL     1       2.122   8.897  18.070  0.00  0.00    +0.000 A 
ATOM     19  C   UNL     1       1.438   9.002  19.286  0.00  0.00    +0.000 A 
ATOM     20  C   UNL     1       1.554   7.945  20.204  0.00  0.00    +0.000 A 
ATOM     21  C   UNL     1       2.325   6.816  19.919  0.00  0.00    +0.000 A 
ENDBRANCH   1  19
BRANCH   5  22
ATOM     22  C   UNL     1      -2.795  13.239  21.047  0.00  0.00    +0.000 C 
BRANCH  22  23
ATOM     23  C   UNL     1      -3.760  13.043  22.196  0.00  0.00    +0.000 A 
ATOM     24  C   UNL     1      -5.147  13.146  22.013  0.00  0.00    +0.000 A 
ATOM     25  C   UNL     1      -6.018  12.951  23.090  0.00  0.00    +0.000 A 
ATOM     26  C   UNL     1      -5.516  12.644  24.355  0.00  0.00    +0.000 A 
ATOM     27  C   UNL     1      -4.147  12.513  24.545  0.00  0.00    +0.000 A 
ATOM     28  C   UNL     1      -3.273  12.702  23.474  0.00  0.00    +0.000 A 
ENDBRANCH  22  23
ENDBRANCH   5  22
TORSDOF 3
ENDMDL
