MODEL 1
REMARK VINA RESULT:      -5.7      0.000      0.000
REMARK  Name = 
REMARK  17 active torsions:
REMARK  status: ('A' for Active; 'I' for Inactive)
REMARK    1  A    between atoms: CG1_1  and  CB_2
REMARK    2  A    between atoms: CB_2  and  CG2_3
REMARK    3  A    between atoms: CB_2  and  CA_4
REMARK    4  A    between atoms: CA_4  and  N_5
REMARK    5  A    between atoms: CA_4  and  C_22
REMARK    6  A    between atoms: C_6  and  C_8
REMARK    7  A    between atoms: C_8  and  C_9
REMARK    8  A    between atoms: C_8  and  N_11
REMARK    9  A    between atoms: C_9  and  O_10
REMARK   10  A    between atoms: C_12  and  C_14
REMARK   11  A    between atoms: C_14  and  C_15
REMARK   12  A    between atoms: C_15  and  C_16
REMARK   13  A    between atoms: C_16  and  C_17
REMARK   14  A    between atoms: C_17  and  N_18
REMARK   15  A    between atoms: C_17  and  C_19
REMARK   16  A    between atoms: C_19  and  O_21
REMARK   17  A    between atoms: C_22  and  OXT_24
REMARK                            x       y       z     vdW  Elec       q    Type
REMARK                         _______ _______ _______ _____ _____    ______ ____
ROOT
ATOM      1  C   UNK A   1       2.605   6.043  17.772  0.00  0.00    +0.000 C 
ENDROOT
BRANCH   1   3
ATOM      2  N   VAL A   2       4.802   5.024  17.077  0.00  0.00    +0.000 N 
ATOM      3  C   UNK A   1       4.086   6.165  17.353  0.00  0.00    +0.000 C 
ATOM      4  O   UNK A   1       4.673   7.249  17.374  0.00  0.00    +0.000 OA
ATOM      5  H   VAL A   2       4.332   4.129  17.169  0.00  0.00    +0.000 HD
BRANCH   2   6
ATOM      6  CA  VAL A   2       6.243   5.074  16.780  0.00  0.00    +0.000 C 
BRANCH   6   8
ATOM      7  CG1 VAL A   2       5.551   3.588  14.788  0.00  0.00    +0.000 C 
ATOM      8  CB  VAL A   2       6.673   4.297  15.507  0.00  0.00    +0.000 C 
ATOM      9  CG2 VAL A   2       7.347   5.233  14.496  0.00  0.00    +0.000 C 
ENDBRANCH   6   8
BRANCH   6  10
ATOM     10  C   VAL A   2       7.094   4.710  18.029  0.00  0.00    +0.000 C 
ATOM     11  O   VAL A   2       6.766   4.891  19.193  0.00  0.00    +0.000 OA
BRANCH  10  12
ATOM     12  OXT VAL A   2       8.243   4.049  17.720  0.00  0.00    +0.000 OA
ATOM     13  HXT VAL A   2       8.062   3.277  17.133  0.00  0.00    +0.000 HD
ENDBRANCH  10  12
ENDBRANCH   6  10
ENDBRANCH   2   6
ENDBRANCH   1   3
BRANCH   1  14
ATOM     14  N   UNK A   1       2.216   4.774  18.392  0.00  0.00    +0.000 N 
ATOM     15  C   UNK A   1       1.864   3.672  17.655  0.00  0.00    +0.000 C 
ATOM     16  O   UNK A   1       2.025   3.599  16.442  0.00  0.00    +0.000 OA
ATOM     17  H   UNK A   1       1.887   4.848  19.352  0.00  0.00    +0.000 HD
BRANCH  15  18
ATOM     18  C   UNK A   1       1.324   2.521  18.487  0.00  0.00    +0.000 C 
BRANCH  18  19
ATOM     19  C   UNK A   1       0.830   2.997  19.853  0.00  0.00    +0.000 C 
BRANCH  19  20
ATOM     20  C   UNK A   1       1.542   2.340  21.047  0.00  0.00    +0.000 C 
BRANCH  20  21
ATOM     21  C   UNK A   1       2.787   3.099  21.538  0.00  0.00    +0.000 C 
BRANCH  21  22
ATOM     22  N   UNK A   1       2.625   4.556  21.418  0.00  0.00    +0.000 NA
ATOM     23  H   UNK A   1       1.666   4.846  21.248  0.00  0.00    +0.000 HD
ATOM     24  H   UNK A   1       3.181   4.923  20.642  0.00  0.00    +0.000 HD
ENDBRANCH  21  22
BRANCH  21  25
ATOM     25  C   UNK A   1       4.045   2.687  20.788  0.00  0.00    +0.000 C 
ATOM     26  O   UNK A   1       4.745   1.739  21.121  0.00  0.00    +0.000 OA
BRANCH  25  27
ATOM     27  O   UNK A   1       4.366   3.492  19.750  0.00  0.00    +0.000 OA
ATOM     28  H   UNK A   1       4.585   4.403  20.022  0.00  0.00    +0.000 HD
ENDBRANCH  25  27
ENDBRANCH  21  25
ENDBRANCH  20  21
ENDBRANCH  19  20
ENDBRANCH  18  19
ENDBRANCH  15  18
ENDBRANCH   1  14
BRANCH   1  29
ATOM     29  C   UNK A   1       2.332   7.188  18.765  0.00  0.00    +0.000 C 
BRANCH  29  30
ATOM     30  O   UNK A   1       3.015   6.940  20.000  0.00  0.00    +0.000 OA
ATOM     31  H   UNK A   1       3.730   6.299  19.828  0.00  0.00    +0.000 HD
ENDBRANCH  29  30
ENDBRANCH   1  29
TORSDOF 15
ENDMDL
MODEL 2
REMARK VINA RESULT:      -5.5      1.790      2.724
REMARK  Name = 
REMARK  17 active torsions:
REMARK  status: ('A' for Active; 'I' for Inactive)
REMARK    1  A    between atoms: CG1_1  and  CB_2
REMARK    2  A    between atoms: CB_2  and  CG2_3
REMARK    3  A    between atoms: CB_2  and  CA_4
REMARK    4  A    between atoms: CA_4  and  N_5
REMARK    5  A    between atoms: CA_4  and  C_22
REMARK    6  A    between atoms: C_6  and  C_8
REMARK    7  A    between atoms: C_8  and  C_9
REMARK    8  A    between atoms: C_8  and  N_11
REMARK    9  A    between atoms: C_9  and  O_10
REMARK   10  A    between atoms: C_12  and  C_14
REMARK   11  A    between atoms: C_14  and  C_15
REMARK   12  A    between atoms: C_15  and  C_16
REMARK   13  A    between atoms: C_16  and  C_17
REMARK   14  A    between atoms: C_17  and  N_18
REMARK   15  A    between atoms: C_17  and  C_19
REMARK   16  A    between atoms: C_19  and  O_21
REMARK   17  A    between atoms: C_22  and  OXT_24
REMARK                            x       y       z     vdW  Elec       q    Type
REMARK                         _______ _______ _______ _____ _____    ______ ____
ROOT
ATOM      1  C   UNK A   1       2.665   5.582  17.978  0.00  0.00    +0.000 C 
ENDROOT
BRANCH   1   3
ATOM      2  N   VAL A   2       5.145   5.914  17.691  0.00  0.00    +0.000 N 
ATOM      3  C   UNK A   1       4.038   5.142  17.428  0.00  0.00    +0.000 C 
ATOM      4  O   UNK A   1       4.146   4.182  16.663  0.00  0.00    +0.000 OA
ATOM      5  H   VAL A   2       5.021   6.762  18.234  0.00  0.00    +0.000 HD
BRANCH   2   6
ATOM      6  CA  VAL A   2       6.458   5.601  17.101  0.00  0.00    +0.000 C 
BRANCH   6   8
ATOM      7  CG1 VAL A   2       7.757   7.714  17.811  0.00  0.00    +0.000 C 
ATOM      8  CB  VAL A   2       7.672   6.207  17.854  0.00  0.00    +0.000 C 
ATOM      9  CG2 VAL A   2       7.664   5.790  19.331  0.00  0.00    +0.000 C 
ENDBRANCH   6   8
BRANCH   6  10
ATOM     10  C   VAL A   2       6.480   5.899  15.576  0.00  0.00    +0.000 C 
ATOM     11  O   VAL A   2       7.314   5.488  14.780  0.00  0.00    +0.000 OA
BRANCH  10  12
ATOM     12  OXT VAL A   2       5.393   6.599  15.151  0.00  0.00    +0.000 OA
ATOM     13  HXT VAL A   2       5.476   7.556  15.376  0.00  0.00    +0.000 HD
ENDBRANCH  10  12
ENDBRANCH   6  10
ENDBRANCH   2   6
ENDBRANCH   1   3
BRANCH   1  14
ATOM     14  N   UNK A   1       2.171   4.840  19.141  0.00  0.00    +0.000 N 
ATOM     15  C   UNK A   1       1.297   3.789  19.028  0.00  0.00    +0.000 C 
ATOM     16  O   UNK A   1       1.010   3.271  17.955  0.00  0.00    +0.000 OA
ATOM     17  H   UNK A   1       2.221   5.343  20.024  0.00  0.00    +0.000 HD
BRANCH  15  18
ATOM     18  C   UNK A   1       0.774   3.276  20.358  0.00  0.00    +0.000 C 
BRANCH  18  19
ATOM     19  C   UNK A   1       1.899   2.712  21.226  0.00  0.00    +0.000 C 
BRANCH  19  20
ATOM     20  C   UNK A   1       2.923   1.860  20.458  0.00  0.00    +0.000 C 
BRANCH  20  21
ATOM     21  C   UNK A   1       4.384   2.301  20.650  0.00  0.00    +0.000 C 
BRANCH  21  22
ATOM     22  N   UNK A   1       4.913   2.984  19.460  0.00  0.00    +0.000 NA
ATOM     23  H   UNK A   1       4.363   3.790  19.175  0.00  0.00    +0.000 HD
ATOM     24  H   UNK A   1       4.937   2.351  18.656  0.00  0.00    +0.000 HD
ENDBRANCH  21  22
BRANCH  21  25
ATOM     25  C   UNK A   1       5.298   1.132  20.985  0.00  0.00    +0.000 C 
ATOM     26  O   UNK A   1       5.863   1.009  22.066  0.00  0.00    +0.000 OA
BRANCH  25  27
ATOM     27  O   UNK A   1       5.487   0.261  19.968  0.00  0.00    +0.000 OA
ATOM     28  H   UNK A   1       4.672   0.069  19.468  0.00  0.00    +0.000 HD
ENDBRANCH  25  27
ENDBRANCH  21  25
ENDBRANCH  20  21
ENDBRANCH  19  20
ENDBRANCH  18  19
ENDBRANCH  15  18
ENDBRANCH   1  14
BRANCH   1  29
ATOM     29  C   UNK A   1       2.796   7.070  18.353  0.00  0.00    +0.000 C 
BRANCH  29  30
ATOM     30  O   UNK A   1       2.855   7.213  19.778  0.00  0.00    +0.000 OA
ATOM     31  H   UNK A   1       2.012   7.603  20.078  0.00  0.00    +0.000 HD
ENDBRANCH  29  30
ENDBRANCH   1  29
TORSDOF 15
ENDMDL
MODEL 3
REMARK VINA RESULT:      -5.4      1.927      2.711
REMARK  Name = 
REMARK  17 active torsions:
REMARK  status: ('A' for Active; 'I' for Inactive)
REMARK    1  A    between atoms: CG1_1  and  CB_2
REMARK    2  A    between atoms: CB_2  and  CG2_3
REMARK    3  A    between atoms: CB_2  and  CA_4
REMARK    4  A    between atoms: CA_4  and  N_5
REMARK    5  A    between atoms: CA_4  and  C_22
REMARK    6  A    between atoms: C_6  and  C_8
REMARK    7  A    between atoms: C_8  and  C_9
REMARK    8  A    between atoms: C_8  and  N_11
REMARK    9  A    between atoms: C_9  and  O_10
REMARK   10  A    between atoms: C_12  and  C_14
REMARK   11  A    between atoms: C_14  and  C_15
REMARK   12  A    between atoms: C_15  and  C_16
REMARK   13  A    between atoms: C_16  and  C_17
REMARK   14  A    between atoms: C_17  and  N_18
REMARK   15  A    between atoms: C_17  and  C_19
REMARK   16  A    between atoms: C_19  and  O_21
REMARK   17  A    between atoms: C_22  and  OXT_24
REMARK                            x       y       z     vdW  Elec       q    Type
REMARK                         _______ _______ _______ _____ _____    ______ ____
ROOT
ATOM      1  C   UNK A   1       4.479   5.556  17.391  0.00  0.00    +0.000 C 
ENDROOT
BRANCH   1   3
ATOM      2  N   VAL A   2       5.285   4.619  15.196  0.00  0.00    +0.000 N 
ATOM      3  C   UNK A   1       5.126   5.724  15.999  0.00  0.00    +0.000 C 
ATOM      4  O   UNK A   1       5.609   6.799  15.641  0.00  0.00    +0.000 OA
ATOM      5  H   VAL A   2       4.979   3.719  15.551  0.00  0.00    +0.000 HD
BRANCH   2   6
ATOM      6  CA  VAL A   2       5.994   4.702  13.907  0.00  0.00    +0.000 C 
BRANCH   6   8
ATOM      7  CG1 VAL A   2       4.536   3.519  12.138  0.00  0.00    +0.000 C 
ATOM      8  CB  VAL A   2       5.793   3.479  12.973  0.00  0.00    +0.000 C 
ATOM      9  CG2 VAL A   2       6.978   3.323  12.012  0.00  0.00    +0.000 C 
ENDBRANCH   6   8
BRANCH   6  10
ATOM     10  C   VAL A   2       7.489   5.076  14.105  0.00  0.00    +0.000 C 
ATOM     11  O   VAL A   2       8.172   5.725  13.325  0.00  0.00    +0.000 OA
BRANCH  10  12
ATOM     12  OXT VAL A   2       7.980   4.696  15.317  0.00  0.00    +0.000 OA
ATOM     13  HXT VAL A   2       7.610   5.254  16.041  0.00  0.00    +0.000 HD
ENDBRANCH  10  12
ENDBRANCH   6  10
ENDBRANCH   2   6
ENDBRANCH   1   3
BRANCH   1  14
ATOM     14  N   UNK A   1       3.385   4.584  17.478  0.00  0.00    +0.000 N 
ATOM     15  C   UNK A   1       2.122   4.931  17.882  0.00  0.00    +0.000 C 
ATOM     16  O   UNK A   1       1.759   6.093  18.020  0.00  0.00    +0.000 OA
ATOM     17  H   UNK A   1       3.680   3.614  17.565  0.00  0.00    +0.000 HD
BRANCH  15  18
ATOM     18  C   UNK A   1       1.189   3.747  18.074  0.00  0.00    +0.000 C 
BRANCH  18  19
ATOM     19  C   UNK A   1       0.842   3.538  19.548  0.00  0.00    +0.000 C 
BRANCH  19  20
ATOM     20  C   UNK A   1       1.554   2.342  20.201  0.00  0.00    +0.000 C 
BRANCH  20  21
ATOM     21  C   UNK A   1       2.984   2.642  20.681  0.00  0.00    +0.000 C 
BRANCH  21  22
ATOM     22  N   UNK A   1       3.230   4.086  20.809  0.00  0.00    +0.000 NA
ATOM     23  H   UNK A   1       3.218   4.417  21.770  0.00  0.00    +0.000 HD
ATOM     24  H   UNK A   1       2.517   4.623  20.308  0.00  0.00    +0.000 HD
ENDBRANCH  21  22
BRANCH  21  25
ATOM     25  C   UNK A   1       4.037   2.050  19.755  0.00  0.00    +0.000 C 
ATOM     26  O   UNK A   1       3.806   1.726  18.596  0.00  0.00    +0.000 OA
BRANCH  25  27
ATOM     27  O   UNK A   1       5.243   1.853  20.333  0.00  0.00    +0.000 OA
ATOM     28  H   UNK A   1       5.245   1.126  20.983  0.00  0.00    +0.000 HD
ENDBRANCH  25  27
ENDBRANCH  21  25
ENDBRANCH  20  21
ENDBRANCH  19  20
ENDBRANCH  18  19
ENDBRANCH  15  18
ENDBRANCH   1  14
BRANCH   1  29
ATOM     29  C   UNK A   1       5.603   5.131  18.352  0.00  0.00    +0.000 C 
BRANCH  29  30
ATOM     30  O   UNK A   1       6.044   3.804  18.035  0.00  0.00    +0.000 OA
ATOM     31  H   UNK A   1       5.265   3.283  17.763  0.00  0.00    +0.000 HD
ENDBRANCH  29  30
ENDBRANCH   1  29
TORSDOF 15
ENDMDL
MODEL 4
REMARK VINA RESULT:      -5.4      1.135      1.415
REMARK  Name = 
REMARK  17 active torsions:
REMARK  status: ('A' for Active; 'I' for Inactive)
REMARK    1  A    between atoms: CG1_1  and  CB_2
REMARK    2  A    between atoms: CB_2  and  CG2_3
REMARK    3  A    between atoms: CB_2  and  CA_4
REMARK    4  A    between atoms: CA_4  and  N_5
REMARK    5  A    between atoms: CA_4  and  C_22
REMARK    6  A    between atoms: C_6  and  C_8
REMARK    7  A    between atoms: C_8  and  C_9
REMARK    8  A    between atoms: C_8  and  N_11
REMARK    9  A    between atoms: C_9  and  O_10
REMARK   10  A    between atoms: C_12  and  C_14
REMARK   11  A    between atoms: C_14  and  C_15
REMARK   12  A    between atoms: C_15  and  C_16
REMARK   13  A    between atoms: C_16  and  C_17
REMARK   14  A    between atoms: C_17  and  N_18
REMARK   15  A    between atoms: C_17  and  C_19
REMARK   16  A    between atoms: C_19  and  O_21
REMARK   17  A    between atoms: C_22  and  OXT_24
REMARK                            x       y       z     vdW  Elec       q    Type
REMARK                         _______ _______ _______ _____ _____    ______ ____
ROOT
ATOM      1  C   UNK A   1       2.881   6.254  17.778  0.00  0.00    +0.000 C 
ENDROOT
BRANCH   1   3
ATOM      2  N   VAL A   2       5.017   5.211  16.944  0.00  0.00    +0.000 N 
ATOM      3  C   UNK A   1       4.340   6.358  17.284  0.00  0.00    +0.000 C 
ATOM      4  O   UNK A   1       4.948   7.430  17.299  0.00  0.00    +0.000 OA
ATOM      5  H   VAL A   2       4.535   4.323  17.041  0.00  0.00    +0.000 HD
BRANCH   2   6
ATOM      6  CA  VAL A   2       6.442   5.241  16.572  0.00  0.00    +0.000 C 
BRANCH   6   8
ATOM      7  CG1 VAL A   2       5.627   3.760  14.624  0.00  0.00    +0.000 C 
ATOM      8  CB  VAL A   2       6.794   4.457  15.280  0.00  0.00    +0.000 C 
ATOM      9  CG2 VAL A   2       7.424   5.384  14.232  0.00  0.00    +0.000 C 
ENDBRANCH   6   8
BRANCH   6  10
ATOM     10  C   VAL A   2       7.351   4.868  17.775  0.00  0.00    +0.000 C 
ATOM     11  O   VAL A   2       7.177   5.212  18.936  0.00  0.00    +0.000 OA
BRANCH  10  12
ATOM     12  OXT VAL A   2       8.348   4.002  17.444  0.00  0.00    +0.000 OA
ATOM     13  HXT VAL A   2       8.954   3.848  18.207  0.00  0.00    +0.000 HD
ENDBRANCH  10  12
ENDBRANCH   6  10
ENDBRANCH   2   6
ENDBRANCH   1   3
BRANCH   1  14
ATOM     14  N   UNK A   1       2.522   5.008  18.461  0.00  0.00    +0.000 N 
ATOM     15  C   UNK A   1       1.486   4.212  18.046  0.00  0.00    +0.000 C 
ATOM     16  O   UNK A   1       0.905   4.374  16.979  0.00  0.00    +0.000 OA
ATOM     17  H   UNK A   1       2.833   4.945  19.428  0.00  0.00    +0.000 HD
BRANCH  15  18
ATOM     18  C   UNK A   1       1.170   3.068  18.993  0.00  0.00    +0.000 C 
BRANCH  18  19
ATOM     19  C   UNK A   1       1.707   1.736  18.466  0.00  0.00    +0.000 C 
BRANCH  19  20
ATOM     20  C   UNK A   1       3.189   1.482  18.786  0.00  0.00    +0.000 C 
BRANCH  20  21
ATOM     21  C   UNK A   1       3.836   2.552  19.682  0.00  0.00    +0.000 C 
BRANCH  21  22
ATOM     22  N   UNK A   1       5.138   2.991  19.160  0.00  0.00    +0.000 NA
ATOM     23  H   UNK A   1       5.139   3.161  18.158  0.00  0.00    +0.000 HD
ATOM     24  H   UNK A   1       5.859   2.285  19.335  0.00  0.00    +0.000 HD
ENDBRANCH  21  22
BRANCH  21  25
ATOM     25  C   UNK A   1       4.024   2.067  21.112  0.00  0.00    +0.000 C 
ATOM     26  O   UNK A   1       3.193   2.242  21.995  0.00  0.00    +0.000 OA
BRANCH  25  27
ATOM     27  O   UNK A   1       5.216   1.474  21.349  0.00  0.00    +0.000 OA
ATOM     28  H   UNK A   1       5.623   1.095  20.548  0.00  0.00    +0.000 HD
ENDBRANCH  25  27
ENDBRANCH  21  25
ENDBRANCH  20  21
ENDBRANCH  19  20
ENDBRANCH  18  19
ENDBRANCH  15  18
ENDBRANCH   1  14
BRANCH   1  29
ATOM     29  C   UNK A   1       2.656   7.435  18.741  0.00  0.00    +0.000 C 
BRANCH  29  30
ATOM     30  O   UNK A   1       2.558   6.958  20.089  0.00  0.00    +0.000 OA
ATOM     31  H   UNK A   1       2.350   7.718  20.664  0.00  0.00    +0.000 HD
ENDBRANCH  29  30
ENDBRANCH   1  29
TORSDOF 15
ENDMDL
MODEL 5
REMARK VINA RESULT:      -5.4      4.605      7.953
REMARK  Name = 
REMARK  17 active torsions:
REMARK  status: ('A' for Active; 'I' for Inactive)
REMARK    1  A    between atoms: CG1_1  and  CB_2
REMARK    2  A    between atoms: CB_2  and  CG2_3
REMARK    3  A    between atoms: CB_2  and  CA_4
REMARK    4  A    between atoms: CA_4  and  N_5
REMARK    5  A    between atoms: CA_4  and  C_22
REMARK    6  A    between atoms: C_6  and  C_8
REMARK    7  A    between atoms: C_8  and  C_9
REMARK    8  A    between atoms: C_8  and  N_11
REMARK    9  A    between atoms: C_9  and  O_10
REMARK   10  A    between atoms: C_12  and  C_14
REMARK   11  A    between atoms: C_14  and  C_15
REMARK   12  A    between atoms: C_15  and  C_16
REMARK   13  A    between atoms: C_16  and  C_17
REMARK   14  A    between atoms: C_17  and  N_18
REMARK   15  A    between atoms: C_17  and  C_19
REMARK   16  A    between atoms: C_19  and  O_21
REMARK   17  A    between atoms: C_22  and  OXT_24
REMARK                            x       y       z     vdW  Elec       q    Type
REMARK                         _______ _______ _______ _____ _____    ______ ____
ROOT
ATOM      1  C   UNK A   1       7.705   5.672  18.671  0.00  0.00    +0.000 C 
ENDROOT
BRANCH   1   3
ATOM      2  N   VAL A   2       5.228   5.876  18.260  0.00  0.00    +0.000 N 
ATOM      3  C   UNK A   1       6.249   5.211  18.897  0.00  0.00    +0.000 C 
ATOM      4  O   UNK A   1       5.973   4.341  19.724  0.00  0.00    +0.000 OA
ATOM      5  H   VAL A   2       5.465   6.662  17.665  0.00  0.00    +0.000 HD
BRANCH   2   6
ATOM      6  CA  VAL A   2       3.816   5.550  18.525  0.00  0.00    +0.000 C 
BRANCH   6   8
ATOM      7  CG1 VAL A   2       3.787   3.329  17.213  0.00  0.00    +0.000 C 
ATOM      8  CB  VAL A   2       3.136   4.672  17.440  0.00  0.00    +0.000 C 
ATOM      9  CG2 VAL A   2       1.664   4.417  17.786  0.00  0.00    +0.000 C 
ENDBRANCH   6   8
BRANCH   6  10
ATOM     10  C   VAL A   2       2.996   6.821  18.878  0.00  0.00    +0.000 C 
ATOM     11  O   VAL A   2       2.665   7.699  18.093  0.00  0.00    +0.000 OA
BRANCH  10  12
ATOM     12  OXT VAL A   2       2.562   6.837  20.169  0.00  0.00    +0.000 OA
ATOM     13  HXT VAL A   2       1.850   7.507  20.297  0.00  0.00    +0.000 HD
ENDBRANCH  10  12
ENDBRANCH   6  10
ENDBRANCH   2   6
ENDBRANCH   1   3
BRANCH   1  14
ATOM     14  N   UNK A   1       7.938   7.118  18.734  0.00  0.00    +0.000 N 
ATOM     15  C   UNK A   1       7.732   7.945  17.661  0.00  0.00    +0.000 C 
ATOM     16  O   UNK A   1       7.167   7.582  16.635  0.00  0.00    +0.000 OA
ATOM     17  H   UNK A   1       8.574   7.417  19.470  0.00  0.00    +0.000 HD
BRANCH  15  18
ATOM     18  C   UNK A   1       8.202   9.372  17.883  0.00  0.00    +0.000 C 
BRANCH  18  19
ATOM     19  C   UNK A   1       9.149   9.473  19.079  0.00  0.00    +0.000 C 
BRANCH  19  20
ATOM     20  C   UNK A   1       9.880  10.820  19.195  0.00  0.00    +0.000 C 
BRANCH  20  21
ATOM     21  C   UNK A   1      10.294  11.434  17.846  0.00  0.00    +0.000 C 
BRANCH  21  22
ATOM     22  N   UNK A   1      11.754  11.540  17.716  0.00  0.00    +0.000 NA
ATOM     23  H   UNK A   1      12.053  12.255  17.057  0.00  0.00    +0.000 HD
ATOM     24  H   UNK A   1      12.157  10.658  17.388  0.00  0.00    +0.000 HD
ENDBRANCH  21  22
BRANCH  21  25
ATOM     25  C   UNK A   1       9.685  12.812  17.631  0.00  0.00    +0.000 C 
ATOM     26  O   UNK A   1       8.494  12.993  17.409  0.00  0.00    +0.000 OA
BRANCH  25  27
ATOM     27  O   UNK A   1      10.579  13.826  17.646  0.00  0.00    +0.000 OA
ATOM     28  H   UNK A   1      10.298  14.580  18.196  0.00  0.00    +0.000 HD
ENDBRANCH  25  27
ENDBRANCH  21  25
ENDBRANCH  20  21
ENDBRANCH  19  20
ENDBRANCH  18  19
ENDBRANCH  15  18
ENDBRANCH   1  14
BRANCH   1  29
ATOM     29  C   UNK A   1       8.560   4.980  19.748  0.00  0.00    +0.000 C 
BRANCH  29  30
ATOM     30  O   UNK A   1       8.140   5.401  21.053  0.00  0.00    +0.000 OA
ATOM     31  H   UNK A   1       7.363   4.868  21.307  0.00  0.00    +0.000 HD
ENDBRANCH  29  30
ENDBRANCH   1  29
TORSDOF 15
ENDMDL
MODEL 6
REMARK VINA RESULT:      -5.3      3.121      5.759
REMARK  Name = 
REMARK  17 active torsions:
REMARK  status: ('A' for Active; 'I' for Inactive)
REMARK    1  A    between atoms: CG1_1  and  CB_2
REMARK    2  A    between atoms: CB_2  and  CG2_3
REMARK    3  A    between atoms: CB_2  and  CA_4
REMARK    4  A    between atoms: CA_4  and  N_5
REMARK    5  A    between atoms: CA_4  and  C_22
REMARK    6  A    between atoms: C_6  and  C_8
REMARK    7  A    between atoms: C_8  and  C_9
REMARK    8  A    between atoms: C_8  and  N_11
REMARK    9  A    between atoms: C_9  and  O_10
REMARK   10  A    between atoms: C_12  and  C_14
REMARK   11  A    between atoms: C_14  and  C_15
REMARK   12  A    between atoms: C_15  and  C_16
REMARK   13  A    between atoms: C_16  and  C_17
REMARK   14  A    between atoms: C_17  and  N_18
REMARK   15  A    between atoms: C_17  and  C_19
REMARK   16  A    between atoms: C_19  and  O_21
REMARK   17  A    between atoms: C_22  and  OXT_24
REMARK                            x       y       z     vdW  Elec       q    Type
REMARK                         _______ _______ _______ _____ _____    ______ ____
ROOT
ATOM      1  C   UNK A   1       3.059   4.808  19.030  0.00  0.00    +0.000 C 
ENDROOT
BRANCH   1   3
ATOM      2  N   VAL A   2       5.286   5.164  17.907  0.00  0.00    +0.000 N 
ATOM      3  C   UNK A   1       4.543   4.442  18.810  0.00  0.00    +0.000 C 
ATOM      4  O   UNK A   1       5.043   3.446  19.336  0.00  0.00    +0.000 OA
ATOM      5  H   VAL A   2       4.829   5.915  17.401  0.00  0.00    +0.000 HD
BRANCH   2   6
ATOM      6  CA  VAL A   2       6.672   4.789  17.578  0.00  0.00    +0.000 C 
BRANCH   6   8
ATOM      7  CG1 VAL A   2       7.440   7.251  17.587  0.00  0.00    +0.000 C 
ATOM      8  CB  VAL A   2       7.745   5.830  17.994  0.00  0.00    +0.000 C 
ATOM      9  CG2 VAL A   2       7.955   5.824  19.514  0.00  0.00    +0.000 C 
ENDBRANCH   6   8
BRANCH   6  10
ATOM     10  C   VAL A   2       6.803   4.342  16.096  0.00  0.00    +0.000 C 
ATOM     11  O   VAL A   2       7.629   4.757  15.295  0.00  0.00    +0.000 OA
BRANCH  10  12
ATOM     12  OXT VAL A   2       5.956   3.329  15.765  0.00  0.00    +0.000 OA
ATOM     13  HXT VAL A   2       6.440   2.587  15.333  0.00  0.00    +0.000 HD
ENDBRANCH  10  12
ENDBRANCH   6  10
ENDBRANCH   2   6
ENDBRANCH   1   3
BRANCH   1  14
ATOM     14  N   UNK A   1       2.760   6.239  19.133  0.00  0.00    +0.000 N 
ATOM     15  C   UNK A   1       1.936   6.752  20.102  0.00  0.00    +0.000 C 
ATOM     16  O   UNK A   1       1.539   6.095  21.058  0.00  0.00    +0.000 OA
ATOM     17  H   UNK A   1       2.899   6.769  18.276  0.00  0.00    +0.000 HD
BRANCH  15  18
ATOM     18  C   UNK A   1       1.617   8.226  19.924  0.00  0.00    +0.000 C 
BRANCH  18  19
ATOM     19  C   UNK A   1       1.918   8.699  18.502  0.00  0.00    +0.000 C 
BRANCH  19  20
ATOM     20  C   UNK A   1       0.892   9.695  17.937  0.00  0.00    +0.000 C 
BRANCH  20  21
ATOM     21  C   UNK A   1       0.133  10.498  19.008  0.00  0.00    +0.000 C 
BRANCH  21  22
ATOM     22  N   UNK A   1      -1.322  10.316  18.902  0.00  0.00    +0.000 NA
ATOM     23  H   UNK A   1      -1.614   9.865  18.039  0.00  0.00    +0.000 HD
ATOM     24  H   UNK A   1      -1.806  11.218  18.935  0.00  0.00    +0.000 HD
ENDBRANCH  21  22
BRANCH  21  25
ATOM     25  C   UNK A   1       0.444  11.986  18.938  0.00  0.00    +0.000 C 
ATOM     26  O   UNK A   1       1.176  12.557  19.737  0.00  0.00    +0.000 OA
BRANCH  25  27
ATOM     27  O   UNK A   1      -0.204  12.646  17.952  0.00  0.00    +0.000 OA
ATOM     28  H   UNK A   1       0.121  13.556  17.819  0.00  0.00    +0.000 HD
ENDBRANCH  25  27
ENDBRANCH  21  25
ENDBRANCH  20  21
ENDBRANCH  19  20
ENDBRANCH  18  19
ENDBRANCH  15  18
ENDBRANCH   1  14
BRANCH   1  29
ATOM     29  C   UNK A   1       2.279   4.219  17.841  0.00  0.00    +0.000 C 
BRANCH  29  30
ATOM     30  O   UNK A   1       3.150   3.423  17.028  0.00  0.00    +0.000 OA
ATOM     31  H   UNK A   1       4.051   3.791  17.099  0.00  0.00    +0.000 HD
ENDBRANCH  29  30
ENDBRANCH   1  29
TORSDOF 15
ENDMDL
MODEL 7
REMARK VINA RESULT:      -5.3      4.464      7.860
REMARK  Name = 
REMARK  17 active torsions:
REMARK  status: ('A' for Active; 'I' for Inactive)
REMARK    1  A    between atoms: CG1_1  and  CB_2
REMARK    2  A    between atoms: CB_2  and  CG2_3
REMARK    3  A    between atoms: CB_2  and  CA_4
REMARK    4  A    between atoms: CA_4  and  N_5
REMARK    5  A    between atoms: CA_4  and  C_22
REMARK    6  A    between atoms: C_6  and  C_8
REMARK    7  A    between atoms: C_8  and  C_9
REMARK    8  A    between atoms: C_8  and  N_11
REMARK    9  A    between atoms: C_9  and  O_10
REMARK   10  A    between atoms: C_12  and  C_14
REMARK   11  A    between atoms: C_14  and  C_15
REMARK   12  A    between atoms: C_15  and  C_16
REMARK   13  A    between atoms: C_16  and  C_17
REMARK   14  A    between atoms: C_17  and  N_18
REMARK   15  A    between atoms: C_17  and  C_19
REMARK   16  A    between atoms: C_19  and  O_21
REMARK   17  A    between atoms: C_22  and  OXT_24
REMARK                            x       y       z     vdW  Elec       q    Type
REMARK                         _______ _______ _______ _____ _____    ______ ____
ROOT
ATOM      1  C   UNK A   1       6.403   5.451  17.632  0.00  0.00    +0.000 C 
ENDROOT
BRANCH   1   3
ATOM      2  N   VAL A   2       4.073   4.884  18.405  0.00  0.00    +0.000 N 
ATOM      3  C   UNK A   1       5.424   4.654  18.520  0.00  0.00    +0.000 C 
ATOM      4  O   UNK A   1       5.830   3.905  19.411  0.00  0.00    +0.000 OA
ATOM      5  H   VAL A   2       3.761   5.585  17.741  0.00  0.00    +0.000 HD
BRANCH   2   6
ATOM      6  CA  VAL A   2       3.104   4.233  19.303  0.00  0.00    +0.000 C 
BRANCH   6   8
ATOM      7  CG1 VAL A   2       0.923   2.869  19.491  0.00  0.00    +0.000 C 
ATOM      8  CB  VAL A   2       2.000   3.413  18.584  0.00  0.00    +0.000 C 
ATOM      9  CG2 VAL A   2       1.308   4.254  17.504  0.00  0.00    +0.000 C 
ENDBRANCH   6   8
BRANCH   6  10
ATOM     10  C   VAL A   2       2.534   5.235  20.345  0.00  0.00    +0.000 C 
ATOM     11  O   VAL A   2       2.085   6.345  20.098  0.00  0.00    +0.000 OA
BRANCH  10  12
ATOM     12  OXT VAL A   2       2.471   4.719  21.604  0.00  0.00    +0.000 OA
ATOM     13  HXT VAL A   2       2.820   3.797  21.629  0.00  0.00    +0.000 HD
ENDBRANCH  10  12
ENDBRANCH   6  10
ENDBRANCH   2   6
ENDBRANCH   1   3
BRANCH   1  14
ATOM     14  N   UNK A   1       7.246   6.430  18.323  0.00  0.00    +0.000 N 
ATOM     15  C   UNK A   1       7.581   7.638  17.766  0.00  0.00    +0.000 C 
ATOM     16  O   UNK A   1       7.060   8.070  16.744  0.00  0.00    +0.000 OA
ATOM     17  H   UNK A   1       7.840   6.045  19.053  0.00  0.00    +0.000 HD
BRANCH  15  18
ATOM     18  C   UNK A   1       8.603   8.424  18.567  0.00  0.00    +0.000 C 
BRANCH  18  19
ATOM     19  C   UNK A   1       8.432   9.931  18.374  0.00  0.00    +0.000 C 
BRANCH  19  20
ATOM     20  C   UNK A   1       9.753  10.704  18.228  0.00  0.00    +0.000 C 
BRANCH  20  21
ATOM     21  C   UNK A   1       9.875  11.929  19.150  0.00  0.00    +0.000 C 
BRANCH  21  22
ATOM     22  N   UNK A   1       9.352  11.658  20.497  0.00  0.00    +0.000 NA
ATOM     23  H   UNK A   1      10.072  11.622  21.213  0.00  0.00    +0.000 HD
ATOM     24  H   UNK A   1       8.868  10.757  20.526  0.00  0.00    +0.000 HD
ENDBRANCH  21  22
BRANCH  21  25
ATOM     25  C   UNK A   1       9.157  13.147  18.586  0.00  0.00    +0.000 C 
ATOM     26  O   UNK A   1       8.408  13.852  19.250  0.00  0.00    +0.000 OA
BRANCH  25  27
ATOM     27  O   UNK A   1       9.366  13.357  17.267  0.00  0.00    +0.000 OA
ATOM     28  H   UNK A   1       8.783  14.041  16.888  0.00  0.00    +0.000 HD
ENDBRANCH  25  27
ENDBRANCH  21  25
ENDBRANCH  20  21
ENDBRANCH  19  20
ENDBRANCH  18  19
ENDBRANCH  15  18
ENDBRANCH   1  14
BRANCH   1  29
ATOM     29  C   UNK A   1       7.306   4.418  16.934  0.00  0.00    +0.000 C 
BRANCH  29  30
ATOM     30  O   UNK A   1       8.362   4.014  17.815  0.00  0.00    +0.000 OA
ATOM     31  H   UNK A   1       8.153   4.346  18.709  0.00  0.00    +0.000 HD
ENDBRANCH  29  30
ENDBRANCH   1  29
TORSDOF 15
ENDMDL
MODEL 8
REMARK VINA RESULT:      -5.2      2.831      6.737
REMARK  Name = 
REMARK  17 active torsions:
REMARK  status: ('A' for Active; 'I' for Inactive)
REMARK    1  A    between atoms: CG1_1  and  CB_2
REMARK    2  A    between atoms: CB_2  and  CG2_3
REMARK    3  A    between atoms: CB_2  and  CA_4
REMARK    4  A    between atoms: CA_4  and  N_5
REMARK    5  A    between atoms: CA_4  and  C_22
REMARK    6  A    between atoms: C_6  and  C_8
REMARK    7  A    between atoms: C_8  and  C_9
REMARK    8  A    between atoms: C_8  and  N_11
REMARK    9  A    between atoms: C_9  and  O_10
REMARK   10  A    between atoms: C_12  and  C_14
REMARK   11  A    between atoms: C_14  and  C_15
REMARK   12  A    between atoms: C_15  and  C_16
REMARK   13  A    between atoms: C_16  and  C_17
REMARK   14  A    between atoms: C_17  and  N_18
REMARK   15  A    between atoms: C_17  and  C_19
REMARK   16  A    between atoms: C_19  and  O_21
REMARK   17  A    between atoms: C_22  and  OXT_24
REMARK                            x       y       z     vdW  Elec       q    Type
REMARK                         _______ _______ _______ _____ _____    ______ ____
ROOT
ATOM      1  C   UNK A   1       5.044   5.947  17.800  0.00  0.00    +0.000 C 
ENDROOT
BRANCH   1   3
ATOM      2  N   VAL A   2       3.519   4.339  18.999  0.00  0.00    +0.000 N 
ATOM      3  C   UNK A   1       4.802   4.787  18.790  0.00  0.00    +0.000 C 
ATOM      4  O   UNK A   1       5.715   4.334  19.483  0.00  0.00    +0.000 OA
ATOM      5  H   VAL A   2       2.764   4.797  18.499  0.00  0.00    +0.000 HD
BRANCH   2   6
ATOM      6  CA  VAL A   2       3.219   3.312  20.011  0.00  0.00    +0.000 C 
BRANCH   6   8
ATOM      7  CG1 VAL A   2       1.190   2.212  18.859  0.00  0.00    +0.000 C 
ATOM      8  CB  VAL A   2       2.564   2.020  19.454  0.00  0.00    +0.000 C 
ATOM      9  CG2 VAL A   2       3.447   1.381  18.375  0.00  0.00    +0.000 C 
ENDBRANCH   6   8
BRANCH   6  10
ATOM     10  C   VAL A   2       2.445   3.913  21.217  0.00  0.00    +0.000 C 
ATOM     11  O   VAL A   2       2.045   3.290  22.191  0.00  0.00    +0.000 OA
BRANCH  10  12
ATOM     12  OXT VAL A   2       2.328   5.268  21.157  0.00  0.00    +0.000 OA
ATOM     13  HXT VAL A   2       2.341   5.586  20.224  0.00  0.00    +0.000 HD
ENDBRANCH  10  12
ENDBRANCH   6  10
ENDBRANCH   2   6
ENDBRANCH   1   3
BRANCH   1  14
ATOM     14  N   UNK A   1       5.406   5.560  16.434  0.00  0.00    +0.000 N 
ATOM     15  C   UNK A   1       6.695   5.272  16.066  0.00  0.00    +0.000 C 
ATOM     16  O   UNK A   1       7.606   5.132  16.875  0.00  0.00    +0.000 OA
ATOM     17  H   UNK A   1       4.744   5.848  15.717  0.00  0.00    +0.000 HD
BRANCH  15  18
ATOM     18  C   UNK A   1       6.880   5.070  14.573  0.00  0.00    +0.000 C 
BRANCH  18  19
ATOM     19  C   UNK A   1       6.010   3.927  14.047  0.00  0.00    +0.000 C 
BRANCH  19  20
ATOM     20  C   UNK A   1       6.286   3.544  12.584  0.00  0.00    +0.000 C 
BRANCH  20  21
ATOM     21  C   UNK A   1       5.304   2.511  12.004  0.00  0.00    +0.000 C 
BRANCH  21  22
ATOM     22  N   UNK A   1       5.990   1.498  11.188  0.00  0.00    +0.000 NA
ATOM     23  H   UNK A   1       5.553   1.340  10.285  0.00  0.00    +0.000 HD
ATOM     24  H   UNK A   1       6.004   0.593  11.666  0.00  0.00    +0.000 HD
ENDBRANCH  21  22
BRANCH  21  25
ATOM     25  C   UNK A   1       4.218   3.162  11.160  0.00  0.00    +0.000 C 
ATOM     26  O   UNK A   1       4.199   4.358  10.895  0.00  0.00    +0.000 OA
BRANCH  25  27
ATOM     27  O   UNK A   1       3.235   2.320  10.769  0.00  0.00    +0.000 OA
ATOM     28  H   UNK A   1       2.653   2.698  10.084  0.00  0.00    +0.000 HD
ENDBRANCH  25  27
ENDBRANCH  21  25
ENDBRANCH  20  21
ENDBRANCH  19  20
ENDBRANCH  18  19
ENDBRANCH  15  18
ENDBRANCH   1  14
BRANCH   1  29
ATOM     29  C   UNK A   1       3.744   6.770  17.759  0.00  0.00    +0.000 C 
BRANCH  29  30
ATOM     30  O   UNK A   1       3.311   7.071  19.092  0.00  0.00    +0.000 OA
ATOM     31  H   UNK A   1       3.630   7.965  19.318  0.00  0.00    +0.000 HD
ENDBRANCH  29  30
ENDBRANCH   1  29
TORSDOF 15
ENDMDL
MODEL 9
REMARK VINA RESULT:      -5.2      3.714      6.822
REMARK  Name = 
REMARK  17 active torsions:
REMARK  status: ('A' for Active; 'I' for Inactive)
REMARK    1  A    between atoms: CG1_1  and  CB_2
REMARK    2  A    between atoms: CB_2  and  CG2_3
REMARK    3  A    between atoms: CB_2  and  CA_4
REMARK    4  A    between atoms: CA_4  and  N_5
REMARK    5  A    between atoms: CA_4  and  C_22
REMARK    6  A    between atoms: C_6  and  C_8
REMARK    7  A    between atoms: C_8  and  C_9
REMARK    8  A    between atoms: C_8  and  N_11
REMARK    9  A    between atoms: C_9  and  O_10
REMARK   10  A    between atoms: C_12  and  C_14
REMARK   11  A    between atoms: C_14  and  C_15
REMARK   12  A    between atoms: C_15  and  C_16
REMARK   13  A    between atoms: C_16  and  C_17
REMARK   14  A    between atoms: C_17  and  N_18
REMARK   15  A    between atoms: C_17  and  C_19
REMARK   16  A    between atoms: C_19  and  O_21
REMARK   17  A    between atoms: C_22  and  OXT_24
REMARK                            x       y       z     vdW  Elec       q    Type
REMARK                         _______ _______ _______ _____ _____    ______ ____
ROOT
ATOM      1  C   UNK A   1       2.567   6.844  18.038  0.00  0.00    +0.000 C 
ENDROOT
BRANCH   1   3
ATOM      2  N   VAL A   2       3.101   4.731  19.302  0.00  0.00    +0.000 N 
ATOM      3  C   UNK A   1       2.517   5.310  18.199  0.00  0.00    +0.000 C 
ATOM      4  O   UNK A   1       2.071   4.584  17.308  0.00  0.00    +0.000 OA
ATOM      5  H   VAL A   2       3.560   5.336  19.974  0.00  0.00    +0.000 HD
BRANCH   2   6
ATOM      6  CA  VAL A   2       3.178   3.268  19.451  0.00  0.00    +0.000 C 
BRANCH   6   8
ATOM      7  CG1 VAL A   2       2.084   3.384  21.784  0.00  0.00    +0.000 C 
ATOM      8  CB  VAL A   2       2.167   2.662  20.461  0.00  0.00    +0.000 C 
ATOM      9  CG2 VAL A   2       0.754   2.627  19.866  0.00  0.00    +0.000 C 
ENDBRANCH   6   8
BRANCH   6  10
ATOM     10  C   VAL A   2       4.639   2.799  19.700  0.00  0.00    +0.000 C 
ATOM     11  O   VAL A   2       4.978   1.868  20.417  0.00  0.00    +0.000 OA
BRANCH  10  12
ATOM     12  OXT VAL A   2       5.552   3.467  18.942  0.00  0.00    +0.000 OA
ATOM     13  HXT VAL A   2       5.556   4.429  19.156  0.00  0.00    +0.000 HD
ENDBRANCH  10  12
ENDBRANCH   6  10
ENDBRANCH   2   6
ENDBRANCH   1   3
BRANCH   1  14
ATOM     14  N   UNK A   1       2.101   7.626  19.186  0.00  0.00    +0.000 N 
ATOM     15  C   UNK A   1       1.457   8.829  19.046  0.00  0.00    +0.000 C 
ATOM     16  O   UNK A   1       1.057   9.251  17.967  0.00  0.00    +0.000 OA
ATOM     17  H   UNK A   1       2.572   7.421  20.064  0.00  0.00    +0.000 HD
BRANCH  15  18
ATOM     18  C   UNK A   1       1.220   9.557  20.357  0.00  0.00    +0.000 C 
BRANCH  18  19
ATOM     19  C   UNK A   1      -0.270   9.787  20.612  0.00  0.00    +0.000 C 
BRANCH  19  20
ATOM     20  C   UNK A   1      -0.734  11.235  20.388  0.00  0.00    +0.000 C 
BRANCH  20  21
ATOM     21  C   UNK A   1      -1.637  11.428  19.157  0.00  0.00    +0.000 C 
BRANCH  21  22
ATOM     22  N   UNK A   1      -1.813  10.178  18.404  0.00  0.00    +0.000 NA
ATOM     23  H   UNK A   1      -0.942   9.691  18.214  0.00  0.00    +0.000 HD
ATOM     24  H   UNK A   1      -2.249  10.358  17.495  0.00  0.00    +0.000 HD
ENDBRANCH  21  22
BRANCH  21  25
ATOM     25  C   UNK A   1      -1.100  12.493  18.212  0.00  0.00    +0.000 C 
ATOM     26  O   UNK A   1      -0.390  13.422  18.580  0.00  0.00    +0.000 OA
BRANCH  25  27
ATOM     27  O   UNK A   1      -1.518  12.367  16.933  0.00  0.00    +0.000 OA
ATOM     28  H   UNK A   1      -2.480  12.486  16.828  0.00  0.00    +0.000 HD
ENDBRANCH  25  27
ENDBRANCH  21  25
ENDBRANCH  20  21
ENDBRANCH  19  20
ENDBRANCH  18  19
ENDBRANCH  15  18
ENDBRANCH   1  14
BRANCH   1  29
ATOM     29  C   UNK A   1       4.034   7.209  17.747  0.00  0.00    +0.000 C 
BRANCH  29  30
ATOM     30  O   UNK A   1       4.775   6.030  17.405  0.00  0.00    +0.000 OA
ATOM     31  H   UNK A   1       5.270   5.744  18.196  0.00  0.00    +0.000 HD
ENDBRANCH  29  30
ENDBRANCH   1  29
TORSDOF 15
ENDMDL
