MODEL 1
REMARK VINA RESULT:      -7.1      0.000      0.000
REMARK  Name = 
REMARK  6 active torsions:
REMARK  status: ('A' for Active; 'I' for Inactive)
REMARK    1  A    between atoms: C_1  and  O_2
REMARK    2  A    between atoms: O_2  and  C_3
REMARK    3  A    between atoms: N_6  and  S_7
REMARK    4  A    between atoms: S_7  and  N_10
REMARK    5  A    between atoms: C_12  and  C_13
REMARK    6  A    between atoms: C_19  and  N_20
REMARK                            x       y       z     vdW  Elec       q    Type
REMARK                         _______ _______ _______ _____ _____    ______ ____
ROOT
ATOM      1  N   UNL     1       5.803   4.765  17.564  0.00  0.00    +0.000 NA
ATOM      2  C   UNL     1       5.056   5.668  16.668  0.00  0.00    +0.000 C 
ATOM      3  C   UNL     1       6.070   6.057  15.582  0.00  0.00    +0.000 C 
ATOM      4  C   UNL     1       7.389   6.150  16.380  0.00  0.00    +0.000 C 
ATOM      5  C   UNL     1       7.250   5.044  17.458  0.00  0.00    +0.000 C 
ENDROOT
BRANCH   3   6
ATOM      6  C   UNL     1       6.167   5.105  14.395  0.00  0.00    +0.000 A 
ATOM      7  C   UNL     1       7.318   5.136  13.592  0.00  0.00    +0.000 A 
ATOM      8  C   UNL     1       7.442   4.293  12.482  0.00  0.00    +0.000 A 
ATOM      9  C   UNL     1       6.425   3.397  12.167  0.00  0.00    +0.000 A 
ATOM     10  C   UNL     1       5.282   3.343  12.959  0.00  0.00    +0.000 A 
ATOM     11  C   UNL     1       5.155   4.194  14.059  0.00  0.00    +0.000 A 
ENDBRANCH   3   6
BRANCH   1  12
ATOM     12  S   UNL     1       5.116   4.389  19.032  0.00  0.00    +0.000 S 
ATOM     13  O   UNL     1       4.811   5.636  19.695  0.00  0.00    +0.000 OA
ATOM     14  O   UNL     1       5.903   3.373  19.685  0.00  0.00    +0.000 OA
BRANCH  12  18
ATOM     15  C   UNL     1       0.844   2.777  18.915  0.00  0.00    +0.000 C 
ATOM     16  C   UNL     1       2.019   1.801  18.951  0.00  0.00    +0.000 C 
ATOM     17  C   UNL     1       3.332   2.467  19.360  0.00  0.00    +0.000 C 
ATOM     18  N   UNL     1       3.623   3.693  18.546  0.00  0.00    +0.000 NA
ATOM     19  C   UNL     1       2.476   4.642  18.588  0.00  0.00    +0.000 C 
ATOM     20  C   UNL     1       1.217   3.974  18.052  0.00  0.00    +0.000 C 
BRANCH  15  22
ATOM     21  C   UNL     1       1.169   2.668  21.287  0.00  0.00    +0.000 C 
ATOM     22  O   UNL     1       0.493   3.290  20.205  0.00  0.00    +0.000 OA
ENDBRANCH  15  22
ENDBRANCH  12  18
ENDBRANCH   1  12
BRANCH   4  23
ATOM     23  N   UNL     1       7.577   7.479  16.990  0.00  0.00    +0.000 NA
ATOM     24  H   UNL     1       7.386   7.447  17.991  0.00  0.00    +0.000 HD
ATOM     25  H   UNL     1       6.921   8.145  16.584  0.00  0.00    +0.000 HD
ENDBRANCH   4  23
TORSDOF 5
ENDMDL
MODEL 2
REMARK VINA RESULT:      -7.1      2.678      6.686
REMARK  Name = 
REMARK  6 active torsions:
REMARK  status: ('A' for Active; 'I' for Inactive)
REMARK    1  A    between atoms: C_1  and  O_2
REMARK    2  A    between atoms: O_2  and  C_3
REMARK    3  A    between atoms: N_6  and  S_7
REMARK    4  A    between atoms: S_7  and  N_10
REMARK    5  A    between atoms: C_12  and  C_13
REMARK    6  A    between atoms: C_19  and  N_20
REMARK                            x       y       z     vdW  Elec       q    Type
REMARK                         _______ _______ _______ _____ _____    ______ ____
ROOT
ATOM      1  N   UNL     1       5.634   5.188  16.855  0.00  0.00    +0.000 NA
ATOM      2  C   UNL     1       5.626   5.170  18.330  0.00  0.00    +0.000 C 
ATOM      3  C   UNL     1       4.155   5.396  18.710  0.00  0.00    +0.000 C 
ATOM      4  C   UNL     1       3.682   6.387  17.624  0.00  0.00    +0.000 C 
ATOM      5  C   UNL     1       4.474   5.960  16.361  0.00  0.00    +0.000 C 
ENDROOT
BRANCH   3   6
ATOM      6  C   UNL     1       3.289   4.143  18.779  0.00  0.00    +0.000 A 
ATOM      7  C   UNL     1       1.894   4.284  18.838  0.00  0.00    +0.000 A 
ATOM      8  C   UNL     1       1.062   3.163  18.921  0.00  0.00    +0.000 A 
ATOM      9  C   UNL     1       1.610   1.884  18.933  0.00  0.00    +0.000 A 
ATOM     10  C   UNL     1       2.990   1.724  18.863  0.00  0.00    +0.000 A 
ATOM     11  C   UNL     1       3.820   2.844  18.793  0.00  0.00    +0.000 A 
ENDBRANCH   3   6
BRANCH   1  12
ATOM     12  S   UNL     1       7.107   5.284  16.089  0.00  0.00    +0.000 S 
ATOM     13  O   UNL     1       7.861   4.108  16.461  0.00  0.00    +0.000 OA
ATOM     14  O   UNL     1       7.655   6.606  16.265  0.00  0.00    +0.000 OA
BRANCH  12  18
ATOM     15  C   UNL     1       6.713   3.854  11.769  0.00  0.00    +0.000 C 
ATOM     16  C   UNL     1       7.489   5.135  12.074  0.00  0.00    +0.000 C 
ATOM     17  C   UNL     1       7.848   5.276  13.553  0.00  0.00    +0.000 C 
ATOM     18  N   UNL     1       6.654   5.096  14.444  0.00  0.00    +0.000 NA
ATOM     19  C   UNL     1       5.963   3.809  14.154  0.00  0.00    +0.000 C 
ATOM     20  C   UNL     1       5.512   3.767  12.700  0.00  0.00    +0.000 C 
BRANCH  15  22
ATOM     21  C   UNL     1       7.102   1.572  11.147  0.00  0.00    +0.000 C 
ATOM     22  O   UNL     1       7.481   2.663  11.973  0.00  0.00    +0.000 OA
ENDBRANCH  15  22
ENDBRANCH  12  18
ENDBRANCH   1  12
BRANCH   4  23
ATOM     23  N   UNL     1       3.961   7.787  17.990  0.00  0.00    +0.000 NA
ATOM     24  H   UNL     1       3.622   8.424  17.269  0.00  0.00    +0.000 HD
ATOM     25  H   UNL     1       4.967   7.934  18.066  0.00  0.00    +0.000 HD
ENDBRANCH   4  23
TORSDOF 5
ENDMDL
MODEL 3
REMARK VINA RESULT:      -7.1      2.658      6.627
REMARK  Name = 
REMARK  6 active torsions:
REMARK  status: ('A' for Active; 'I' for Inactive)
REMARK    1  A    between atoms: C_1  and  O_2
REMARK    2  A    between atoms: O_2  and  C_3
REMARK    3  A    between atoms: N_6  and  S_7
REMARK    4  A    between atoms: S_7  and  N_10
REMARK    5  A    between atoms: C_12  and  C_13
REMARK    6  A    between atoms: C_19  and  N_20
REMARK                            x       y       z     vdW  Elec       q    Type
REMARK                         _______ _______ _______ _____ _____    ______ ____
ROOT
ATOM      1  N   UNL     1       5.601   5.214  16.896  0.00  0.00    +0.000 NA
ATOM      2  C   UNL     1       5.597   5.225  18.372  0.00  0.00    +0.000 C 
ATOM      3  C   UNL     1       4.127   5.461  18.750  0.00  0.00    +0.000 C 
ATOM      4  C   UNL     1       3.653   6.431  17.646  0.00  0.00    +0.000 C 
ATOM      5  C   UNL     1       4.442   5.978  16.389  0.00  0.00    +0.000 C 
ENDROOT
BRANCH   3   6
ATOM      6  C   UNL     1       3.259   4.211  18.846  0.00  0.00    +0.000 A 
ATOM      7  C   UNL     1       3.858   2.953  18.672  0.00  0.00    +0.000 A 
ATOM      8  C   UNL     1       3.097   1.781  18.733  0.00  0.00    +0.000 A 
ATOM      9  C   UNL     1       1.729   1.847  18.982  0.00  0.00    +0.000 A 
ATOM     10  C   UNL     1       1.120   3.083  19.169  0.00  0.00    +0.000 A 
ATOM     11  C   UNL     1       1.879   4.253  19.095  0.00  0.00    +0.000 A 
ENDBRANCH   3   6
BRANCH   1  12
ATOM     12  S   UNL     1       7.073   5.293  16.125  0.00  0.00    +0.000 S 
ATOM     13  O   UNL     1       7.820   4.116  16.506  0.00  0.00    +0.000 OA
ATOM     14  O   UNL     1       7.630   6.612  16.287  0.00  0.00    +0.000 OA
BRANCH  12  18
ATOM     15  C   UNL     1       6.644   3.815  11.825  0.00  0.00    +0.000 C 
ATOM     16  C   UNL     1       7.446   5.085  12.112  0.00  0.00    +0.000 C 
ATOM     17  C   UNL     1       7.809   5.237  13.588  0.00  0.00    +0.000 C 
ATOM     18  N   UNL     1       6.613   5.093  14.483  0.00  0.00    +0.000 NA
ATOM     19  C   UNL     1       5.898   3.816  14.211  0.00  0.00    +0.000 C 
ATOM     20  C   UNL     1       5.444   3.763  12.758  0.00  0.00    +0.000 C 
BRANCH  15  22
ATOM     21  C   UNL     1       7.145   1.590  11.088  0.00  0.00    +0.000 C 
ATOM     22  O   UNL     1       7.390   2.613  12.042  0.00  0.00    +0.000 OA
ENDBRANCH  15  22
ENDBRANCH  12  18
ENDBRANCH   1  12
BRANCH   4  23
ATOM     23  N   UNL     1       3.935   7.838  17.984  0.00  0.00    +0.000 NA
ATOM     24  H   UNL     1       3.124   8.273  18.424  0.00  0.00    +0.000 HD
ATOM     25  H   UNL     1       4.129   8.368  17.134  0.00  0.00    +0.000 HD
ENDBRANCH   4  23
TORSDOF 5
ENDMDL
MODEL 4
REMARK VINA RESULT:      -7.1      2.889      6.899
REMARK  Name = 
REMARK  6 active torsions:
REMARK  status: ('A' for Active; 'I' for Inactive)
REMARK    1  A    between atoms: C_1  and  O_2
REMARK    2  A    between atoms: O_2  and  C_3
REMARK    3  A    between atoms: N_6  and  S_7
REMARK    4  A    between atoms: S_7  and  N_10
REMARK    5  A    between atoms: C_12  and  C_13
REMARK    6  A    between atoms: C_19  and  N_20
REMARK                            x       y       z     vdW  Elec       q    Type
REMARK                         _______ _______ _______ _____ _____    ______ ____
ROOT
ATOM      1  N   UNL     1       5.787   5.192  17.205  0.00  0.00    +0.000 NA
ATOM      2  C   UNL     1       4.510   5.226  16.468  0.00  0.00    +0.000 C 
ATOM      3  C   UNL     1       3.462   4.773  17.496  0.00  0.00    +0.000 C 
ATOM      4  C   UNL     1       4.231   3.707  18.306  0.00  0.00    +0.000 C 
ATOM      5  C   UNL     1       5.688   4.240  18.331  0.00  0.00    +0.000 C 
ENDROOT
BRANCH   3   6
ATOM      6  C   UNL     1       2.880   5.873  18.377  0.00  0.00    +0.000 A 
ATOM      7  C   UNL     1       2.426   5.544  19.664  0.00  0.00    +0.000 A 
ATOM      8  C   UNL     1       1.868   6.518  20.499  0.00  0.00    +0.000 A 
ATOM      9  C   UNL     1       1.769   7.836  20.067  0.00  0.00    +0.000 A 
ATOM     10  C   UNL     1       2.225   8.185  18.800  0.00  0.00    +0.000 A 
ATOM     11  C   UNL     1       2.769   7.209  17.962  0.00  0.00    +0.000 A 
ENDBRANCH   3   6
BRANCH   1  12
ATOM     12  S   UNL     1       7.193   5.322  16.324  0.00  0.00    +0.000 S 
ATOM     13  O   UNL     1       8.008   4.173  16.646  0.00  0.00    +0.000 OA
ATOM     14  O   UNL     1       7.713   6.661  16.443  0.00  0.00    +0.000 OA
BRANCH  12  18
ATOM     15  C   UNL     1       6.522   3.850  12.053  0.00  0.00    +0.000 C 
ATOM     16  C   UNL     1       7.253   5.171  12.291  0.00  0.00    +0.000 C 
ATOM     17  C   UNL     1       7.723   5.338  13.735  0.00  0.00    +0.000 C 
ATOM     18  N   UNL     1       6.617   5.102  14.722  0.00  0.00    +0.000 NA
ATOM     19  C   UNL     1       5.973   3.779  14.491  0.00  0.00    +0.000 C 
ATOM     20  C   UNL     1       5.407   3.706  13.079  0.00  0.00    +0.000 C 
BRANCH  15  22
ATOM     21  C   UNL     1       7.211   1.731  11.169  0.00  0.00    +0.000 C 
ATOM     22  O   UNL     1       7.365   2.701  12.194  0.00  0.00    +0.000 OA
ENDBRANCH  15  22
ENDBRANCH  12  18
ENDBRANCH   1  12
BRANCH   4  23
ATOM     23  N   UNL     1       4.154   2.373  17.683  0.00  0.00    +0.000 NA
ATOM     24  H   UNL     1       4.145   1.642  18.395  0.00  0.00    +0.000 HD
ATOM     25  H   UNL     1       4.977   2.211  17.103  0.00  0.00    +0.000 HD
ENDBRANCH   4  23
TORSDOF 5
ENDMDL
MODEL 5
REMARK VINA RESULT:      -7.1      2.872      6.836
REMARK  Name = 
REMARK  6 active torsions:
REMARK  status: ('A' for Active; 'I' for Inactive)
REMARK    1  A    between atoms: C_1  and  O_2
REMARK    2  A    between atoms: O_2  and  C_3
REMARK    3  A    between atoms: N_6  and  S_7
REMARK    4  A    between atoms: S_7  and  N_10
REMARK    5  A    between atoms: C_12  and  C_13
REMARK    6  A    between atoms: C_19  and  N_20
REMARK                            x       y       z     vdW  Elec       q    Type
REMARK                         _______ _______ _______ _____ _____    ______ ____
ROOT
ATOM      1  N   UNL     1       5.752   5.183  17.245  0.00  0.00    +0.000 NA
ATOM      2  C   UNL     1       4.473   5.218  16.511  0.00  0.00    +0.000 C 
ATOM      3  C   UNL     1       3.430   4.742  17.534  0.00  0.00    +0.000 C 
ATOM      4  C   UNL     1       4.210   3.670  18.327  0.00  0.00    +0.000 C 
ATOM      5  C   UNL     1       5.662   4.213  18.357  0.00  0.00    +0.000 C 
ENDROOT
BRANCH   3   6
ATOM      6  C   UNL     1       2.843   5.825  18.433  0.00  0.00    +0.000 A 
ATOM      7  C   UNL     1       2.750   7.137  17.943  0.00  0.00    +0.000 A 
ATOM      8  C   UNL     1       2.234   8.166  18.739  0.00  0.00    +0.000 A 
ATOM      9  C   UNL     1       1.792   7.896  20.030  0.00  0.00    +0.000 A 
ATOM     10  C   UNL     1       1.864   6.599  20.529  0.00  0.00    +0.000 A 
ATOM     11  C   UNL     1       2.391   5.577  19.737  0.00  0.00    +0.000 A 
ENDBRANCH   3   6
BRANCH   1  12
ATOM     12  S   UNL     1       7.155   5.336  16.363  0.00  0.00    +0.000 S 
ATOM     13  O   UNL     1       7.986   4.197  16.679  0.00  0.00    +0.000 OA
ATOM     14  O   UNL     1       7.656   6.681  16.488  0.00  0.00    +0.000 OA
BRANCH  12  18
ATOM     15  C   UNL     1       6.454   3.830  12.108  0.00  0.00    +0.000 C 
ATOM     16  C   UNL     1       7.232   5.126  12.333  0.00  0.00    +0.000 C 
ATOM     17  C   UNL     1       7.700   5.296  13.777  0.00  0.00    +0.000 C 
ATOM     18  N   UNL     1       6.580   5.115  14.760  0.00  0.00    +0.000 NA
ATOM     19  C   UNL     1       5.889   3.814  14.544  0.00  0.00    +0.000 C 
ATOM     20  C   UNL     1       5.329   3.741  13.129  0.00  0.00    +0.000 C 
BRANCH  15  22
ATOM     21  C   UNL     1       7.225   1.767  11.161  0.00  0.00    +0.000 C 
ATOM     22  O   UNL     1       7.254   2.653  12.270  0.00  0.00    +0.000 OA
ENDBRANCH  15  22
ENDBRANCH  12  18
ENDBRANCH   1  12
BRANCH   4  23
ATOM     23  N   UNL     1       4.141   2.345  17.686  0.00  0.00    +0.000 NA
ATOM     24  H   UNL     1       3.566   1.707  18.235  0.00  0.00    +0.000 HD
ATOM     25  H   UNL     1       5.072   1.934  17.634  0.00  0.00    +0.000 HD
ENDBRANCH   4  23
TORSDOF 5
ENDMDL
MODEL 6
REMARK VINA RESULT:      -7.0      0.060      1.004
REMARK  Name = 
REMARK  6 active torsions:
REMARK  status: ('A' for Active; 'I' for Inactive)
REMARK    1  A    between atoms: C_1  and  O_2
REMARK    2  A    between atoms: O_2  and  C_3
REMARK    3  A    between atoms: N_6  and  S_7
REMARK    4  A    between atoms: S_7  and  N_10
REMARK    5  A    between atoms: C_12  and  C_13
REMARK    6  A    between atoms: C_19  and  N_20
REMARK                            x       y       z     vdW  Elec       q    Type
REMARK                         _______ _______ _______ _____ _____    ______ ____
ROOT
ATOM      1  N   UNL     1       5.817   4.791  17.560  0.00  0.00    +0.000 NA
ATOM      2  C   UNL     1       5.065   5.692  16.665  0.00  0.00    +0.000 C 
ATOM      3  C   UNL     1       6.081   6.097  15.586  0.00  0.00    +0.000 C 
ATOM      4  C   UNL     1       7.395   6.197  16.390  0.00  0.00    +0.000 C 
ATOM      5  C   UNL     1       7.262   5.084  17.462  0.00  0.00    +0.000 C 
ENDROOT
BRANCH   3   6
ATOM      6  C   UNL     1       6.193   5.152  14.395  0.00  0.00    +0.000 A 
ATOM      7  C   UNL     1       5.135   4.269  14.126  0.00  0.00    +0.000 A 
ATOM      8  C   UNL     1       5.202   3.373  13.054  0.00  0.00    +0.000 A 
ATOM      9  C   UNL     1       6.322   3.353  12.228  0.00  0.00    +0.000 A 
ATOM     10  C   UNL     1       7.375   4.228  12.471  0.00  0.00    +0.000 A 
ATOM     11  C   UNL     1       7.311   5.114  13.549  0.00  0.00    +0.000 A 
ENDBRANCH   3   6
BRANCH   1  12
ATOM     12  S   UNL     1       5.127   4.401  19.022  0.00  0.00    +0.000 S 
ATOM     13  O   UNL     1       4.817   5.642  19.695  0.00  0.00    +0.000 OA
ATOM     14  O   UNL     1       5.914   3.380  19.668  0.00  0.00    +0.000 OA
BRANCH  12  18
ATOM     15  C   UNL     1       0.851   2.801  18.874  0.00  0.00    +0.000 C 
ATOM     16  C   UNL     1       2.024   1.821  18.925  0.00  0.00    +0.000 C 
ATOM     17  C   UNL     1       3.335   2.485  19.343  0.00  0.00    +0.000 C 
ATOM     18  N   UNL     1       3.636   3.707  18.526  0.00  0.00    +0.000 NA
ATOM     19  C   UNL     1       2.492   4.660  18.553  0.00  0.00    +0.000 C 
ATOM     20  C   UNL     1       1.236   3.992  18.009  0.00  0.00    +0.000 C 
BRANCH  15  22
ATOM     21  C   UNL     1       1.149   2.697  21.250  0.00  0.00    +0.000 C 
ATOM     22  O   UNL     1       0.490   3.320  20.158  0.00  0.00    +0.000 OA
ENDBRANCH  15  22
ENDBRANCH  12  18
ENDBRANCH   1  12
BRANCH   4  23
ATOM     23  N   UNL     1       7.568   7.525  17.008  0.00  0.00    +0.000 NA
ATOM     24  H   UNL     1       6.811   7.720  17.662  0.00  0.00    +0.000 HD
ATOM     25  H   UNL     1       7.535   8.250  16.292  0.00  0.00    +0.000 HD
ENDBRANCH   4  23
TORSDOF 5
ENDMDL
MODEL 7
REMARK VINA RESULT:      -7.0      3.202      4.951
REMARK  Name = 
REMARK  6 active torsions:
REMARK  status: ('A' for Active; 'I' for Inactive)
REMARK    1  A    between atoms: C_1  and  O_2
REMARK    2  A    between atoms: O_2  and  C_3
REMARK    3  A    between atoms: N_6  and  S_7
REMARK    4  A    between atoms: S_7  and  N_10
REMARK    5  A    between atoms: C_12  and  C_13
REMARK    6  A    between atoms: C_19  and  N_20
REMARK                            x       y       z     vdW  Elec       q    Type
REMARK                         _______ _______ _______ _____ _____    ______ ____
ROOT
ATOM      1  N   UNL     1       2.701   4.465  19.098  0.00  0.00    +0.000 NA
ATOM      2  C   UNL     1       4.110   4.080  19.304  0.00  0.00    +0.000 C 
ATOM      3  C   UNL     1       4.474   3.269  18.051  0.00  0.00    +0.000 C 
ATOM      4  C   UNL     1       3.162   2.509  17.757  0.00  0.00    +0.000 C 
ATOM      5  C   UNL     1       2.051   3.506  18.180  0.00  0.00    +0.000 C 
ENDROOT
BRANCH   3   6
ATOM      6  C   UNL     1       4.962   4.080  16.856  0.00  0.00    +0.000 A 
ATOM      7  C   UNL     1       5.585   3.412  15.790  0.00  0.00    +0.000 A 
ATOM      8  C   UNL     1       6.065   4.118  14.682  0.00  0.00    +0.000 A 
ATOM      9  C   UNL     1       5.918   5.500  14.617  0.00  0.00    +0.000 A 
ATOM     10  C   UNL     1       5.294   6.179  15.658  0.00  0.00    +0.000 A 
ATOM     11  C   UNL     1       4.826   5.474  16.769  0.00  0.00    +0.000 A 
ENDBRANCH   3   6
BRANCH   1  12
ATOM     12  S   UNL     1       1.871   5.090  20.397  0.00  0.00    +0.000 S 
ATOM     13  O   UNL     1       2.604   4.726  21.589  0.00  0.00    +0.000 OA
ATOM     14  O   UNL     1       0.469   4.787  20.264  0.00  0.00    +0.000 OA
BRANCH  12  18
ATOM     15  C   UNL     1       1.340   9.478  19.243  0.00  0.00    +0.000 C 
ATOM     16  C   UNL     1       2.297   8.595  18.442  0.00  0.00    +0.000 C 
ATOM     17  C   UNL     1       2.088   7.104  18.700  0.00  0.00    +0.000 C 
ATOM     18  N   UNL     1       2.089   6.778  20.165  0.00  0.00    +0.000 NA
ATOM     19  C   UNL     1       1.100   7.617  20.896  0.00  0.00    +0.000 C 
ATOM     20  C   UNL     1       1.423   9.094  20.713  0.00  0.00    +0.000 C 
BRANCH  15  22
ATOM     21  C   UNL     1      -0.881  10.378  19.285  0.00  0.00    +0.000 C 
ATOM     22  O   UNL     1      -0.030   9.328  18.853  0.00  0.00    +0.000 OA
ENDBRANCH  15  22
ENDBRANCH  12  18
ENDBRANCH   1  12
BRANCH   4  23
ATOM     23  N   UNL     1       3.070   1.245  18.511  0.00  0.00    +0.000 NA
ATOM     24  H   UNL     1       2.211   0.748  18.281  0.00  0.00    +0.000 HD
ATOM     25  H   UNL     1       3.041   1.439  19.512  0.00  0.00    +0.000 HD
ENDBRANCH   4  23
TORSDOF 5
ENDMDL
MODEL 8
REMARK VINA RESULT:      -6.9      3.177      4.977
REMARK  Name = 
REMARK  6 active torsions:
REMARK  status: ('A' for Active; 'I' for Inactive)
REMARK    1  A    between atoms: C_1  and  O_2
REMARK    2  A    between atoms: O_2  and  C_3
REMARK    3  A    between atoms: N_6  and  S_7
REMARK    4  A    between atoms: S_7  and  N_10
REMARK    5  A    between atoms: C_12  and  C_13
REMARK    6  A    between atoms: C_19  and  N_20
REMARK                            x       y       z     vdW  Elec       q    Type
REMARK                         _______ _______ _______ _____ _____    ______ ____
ROOT
ATOM      1  N   UNL     1       2.706   4.401  19.127  0.00  0.00    +0.000 NA
ATOM      2  C   UNL     1       4.127   4.066  19.339  0.00  0.00    +0.000 C 
ATOM      3  C   UNL     1       4.524   3.268  18.088  0.00  0.00    +0.000 C 
ATOM      4  C   UNL     1       3.241   2.462  17.789  0.00  0.00    +0.000 C 
ATOM      5  C   UNL     1       2.095   3.419  18.207  0.00  0.00    +0.000 C 
ENDROOT
BRANCH   3   6
ATOM      6  C   UNL     1       4.989   4.096  16.894  0.00  0.00    +0.000 A 
ATOM      7  C   UNL     1       4.839   5.491  16.935  0.00  0.00    +0.000 A 
ATOM      8  C   UNL     1       5.234   6.287  15.855  0.00  0.00    +0.000 A 
ATOM      9  C   UNL     1       5.797   5.703  14.725  0.00  0.00    +0.000 A 
ATOM     10  C   UNL     1       5.965   4.324  14.671  0.00  0.00    +0.000 A 
ATOM     11  C   UNL     1       5.558   3.529  15.744  0.00  0.00    +0.000 A 
ENDBRANCH   3   6
BRANCH   1  12
ATOM     12  S   UNL     1       1.850   4.998  20.423  0.00  0.00    +0.000 S 
ATOM     13  O   UNL     1       2.561   4.610  21.621  0.00  0.00    +0.000 OA
ATOM     14  O   UNL     1       0.451   4.694  20.256  0.00  0.00    +0.000 OA
BRANCH  12  18
ATOM     15  C   UNL     1       1.301   9.416  19.403  0.00  0.00    +0.000 C 
ATOM     16  C   UNL     1       2.231   8.553  18.550  0.00  0.00    +0.000 C 
ATOM     17  C   UNL     1       2.025   7.056  18.775  0.00  0.00    +0.000 C 
ATOM     18  N   UNL     1       2.067   6.690  20.230  0.00  0.00    +0.000 NA
ATOM     19  C   UNL     1       1.103   7.513  21.012  0.00  0.00    +0.000 C 
ATOM     20  C   UNL     1       1.426   8.993  20.859  0.00  0.00    +0.000 C 
BRANCH  15  22
ATOM     21  C   UNL     1      -0.635  10.419  18.408  0.00  0.00    +0.000 C 
ATOM     22  O   UNL     1      -0.079   9.281  19.049  0.00  0.00    +0.000 OA
ENDBRANCH  15  22
ENDBRANCH  12  18
ENDBRANCH   1  12
BRANCH   4  23
ATOM     23  N   UNL     1       3.191   1.197  18.544  0.00  0.00    +0.000 NA
ATOM     24  H   UNL     1       3.153   1.375  19.547  0.00  0.00    +0.000 HD
ATOM     25  H   UNL     1       4.038   0.655  18.372  0.00  0.00    +0.000 HD
ENDBRANCH   4  23
TORSDOF 5
ENDMDL
MODEL 9
REMARK VINA RESULT:      -6.9      2.818      6.862
REMARK  Name = 
REMARK  6 active torsions:
REMARK  status: ('A' for Active; 'I' for Inactive)
REMARK    1  A    between atoms: C_1  and  O_2
REMARK    2  A    between atoms: O_2  and  C_3
REMARK    3  A    between atoms: N_6  and  S_7
REMARK    4  A    between atoms: S_7  and  N_10
REMARK    5  A    between atoms: C_12  and  C_13
REMARK    6  A    between atoms: C_19  and  N_20
REMARK                            x       y       z     vdW  Elec       q    Type
REMARK                         _______ _______ _______ _____ _____    ______ ____
ROOT
ATOM      1  N   UNL     1       2.921   4.038  18.877  0.00  0.00    +0.000 NA
ATOM      2  C   UNL     1       1.472   4.221  19.083  0.00  0.00    +0.000 C 
ATOM      3  C   UNL     1       1.369   5.043  20.377  0.00  0.00    +0.000 C 
ATOM      4  C   UNL     1       2.534   4.480  21.220  0.00  0.00    +0.000 C 
ATOM      5  C   UNL     1       3.627   4.149  20.171  0.00  0.00    +0.000 C 
ENDROOT
BRANCH   3   6
ATOM      6  C   UNL     1       1.446   6.557  20.207  0.00  0.00    +0.000 A 
ATOM      7  C   UNL     1       1.051   7.381  21.272  0.00  0.00    +0.000 A 
ATOM      8  C   UNL     1       1.087   8.774  21.153  0.00  0.00    +0.000 A 
ATOM      9  C   UNL     1       1.531   9.364  19.974  0.00  0.00    +0.000 A 
ATOM     10  C   UNL     1       1.939   8.565  18.912  0.00  0.00    +0.000 A 
ATOM     11  C   UNL     1       1.890   7.174  19.028  0.00  0.00    +0.000 A 
ENDBRANCH   3   6
BRANCH   1  12
ATOM     12  S   UNL     1       3.407   2.927  17.737  0.00  0.00    +0.000 S 
ATOM     13  O   UNL     1       2.219   2.464  17.056  0.00  0.00    +0.000 OA
ATOM     14  O   UNL     1       4.331   1.997  18.336  0.00  0.00    +0.000 OA
BRANCH  12  18
ATOM     15  C   UNL     1       6.448   5.716  15.779  0.00  0.00    +0.000 C 
ATOM     16  C   UNL     1       5.077   6.257  16.185  0.00  0.00    +0.000 C 
ATOM     17  C   UNL     1       4.332   5.330  17.143  0.00  0.00    +0.000 C 
ATOM     18  N   UNL     1       4.270   3.920  16.634  0.00  0.00    +0.000 NA
ATOM     19  C   UNL     1       5.632   3.413  16.309  0.00  0.00    +0.000 C 
ATOM     20  C   UNL     1       6.287   4.296  15.256  0.00  0.00    +0.000 C 
BRANCH  15  22
ATOM     21  C   UNL     1       7.466   6.847  17.630  0.00  0.00    +0.000 C 
ATOM     22  O   UNL     1       7.377   5.654  16.867  0.00  0.00    +0.000 OA
ENDBRANCH  15  22
ENDBRANCH  12  18
ENDBRANCH   1  12
BRANCH   4  23
ATOM     23  N   UNL     1       2.138   3.284  21.985  0.00  0.00    +0.000 NA
ATOM     24  H   UNL     1       2.938   2.890  22.480  0.00  0.00    +0.000 HD
ATOM     25  H   UNL     1       1.798   2.561  21.351  0.00  0.00    +0.000 HD
ENDBRANCH   4  23
TORSDOF 5
ENDMDL
