MODEL 1
REMARK VINA RESULT:      -7.0      0.000      0.000
REMARK  Name = 
REMARK  5 active torsions:
REMARK  status: ('A' for Active; 'I' for Inactive)
REMARK    1  A    between atoms: C_2  and  C_3
REMARK    2  A    between atoms: C_3  and  N_4
REMARK    3  A    between atoms: C_5  and  C_6
REMARK    4  A    between atoms: C_15  and  C_16
REMARK    5  A    between atoms: C_17  and  C_18
REMARK                            x       y       z     vdW  Elec       q    Type
REMARK                         _______ _______ _______ _____ _____    ______ ____
ROOT
ATOM      1  N   UNL     1       4.620   4.568  19.289  0.00  0.00    +0.000 NA
ATOM      2  C   UNL     1       5.075   3.630  18.246  0.00  0.00    +0.000 C 
ATOM      3  C   UNL     1       4.346   2.294  18.399  0.00  0.00    +0.000 C 
ATOM      4  C   UNL     1       2.860   2.420  18.609  0.00  0.00    +0.000 C 
ATOM      5  O   UNL     1       2.167   1.398  18.651  0.00  0.00    +0.000 OA
ATOM      6  C   UNL     1       2.243   3.804  18.681  0.00  0.00    +0.000 C 
ATOM      7  C   UNL     1       0.815   3.734  19.232  0.00  0.00    +0.000 C 
ATOM      8  C   UNL     1       3.157   4.778  19.460  0.00  0.00    +0.000 C 
ENDROOT
BRANCH   2   9
ATOM      9  C   UNL     1       5.121   4.207  16.827  0.00  0.00    +0.000 A 
ATOM     10  C   UNL     1       5.511   3.364  15.773  0.00  0.00    +0.000 A 
ATOM     11  C   UNL     1       5.855   3.869  14.518  0.00  0.00    +0.000 A 
ATOM     12  C   UNL     1       5.785   5.241  14.289  0.00  0.00    +0.000 A 
ATOM     13  C   UNL     1       5.258   6.073  15.266  0.00  0.00    +0.000 A 
ATOM     14  C   UNL     1       4.877   5.546  16.508  0.00  0.00    +0.000 A 
ENDBRANCH   2   9
BRANCH   8  15
ATOM     15  C   UNL     1       2.689   6.222  19.210  0.00  0.00    +0.000 A 
ATOM     16  C   UNL     1       2.745   6.781  17.925  0.00  0.00    +0.000 A 
ATOM     17  C   UNL     1       2.291   8.084  17.693  0.00  0.00    +0.000 A 
ATOM     18  C   UNL     1       1.778   8.847  18.740  0.00  0.00    +0.000 A 
ATOM     19  C   UNL     1       1.717   8.316  20.023  0.00  0.00    +0.000 A 
ATOM     20  C   UNL     1       2.169   7.016  20.249  0.00  0.00    +0.000 A 
ENDBRANCH   8  15
BRANCH   1  21
ATOM     21  C   UNL     1       5.447   5.750  19.554  0.00  0.00    +0.000 C 
BRANCH  21  23
ATOM     22  C   UNL     1       7.763   6.242  18.709  0.00  0.00    +0.000 C 
ATOM     23  C   UNL     1       6.933   5.528  19.490  0.00  0.00    +0.000 C 
ENDBRANCH  21  23
ENDBRANCH   1  21
TORSDOF 4
ENDMDL
MODEL 2
REMARK VINA RESULT:      -6.9      0.048      1.006
REMARK  Name = 
REMARK  5 active torsions:
REMARK  status: ('A' for Active; 'I' for Inactive)
REMARK    1  A    between atoms: C_2  and  C_3
REMARK    2  A    between atoms: C_3  and  N_4
REMARK    3  A    between atoms: C_5  and  C_6
REMARK    4  A    between atoms: C_15  and  C_16
REMARK    5  A    between atoms: C_17  and  C_18
REMARK                            x       y       z     vdW  Elec       q    Type
REMARK                         _______ _______ _______ _____ _____    ______ ____
ROOT
ATOM      1  N   UNL     1       4.607   4.534  19.272  0.00  0.00    +0.000 NA
ATOM      2  C   UNL     1       5.077   3.607  18.227  0.00  0.00    +0.000 C 
ATOM      3  C   UNL     1       4.361   2.263  18.367  0.00  0.00    +0.000 C 
ATOM      4  C   UNL     1       2.873   2.372  18.569  0.00  0.00    +0.000 C 
ATOM      5  O   UNL     1       2.190   1.344  18.601  0.00  0.00    +0.000 OA
ATOM      6  C   UNL     1       2.241   3.750  18.647  0.00  0.00    +0.000 C 
ATOM      7  C   UNL     1       0.811   3.662  19.190  0.00  0.00    +0.000 C 
ATOM      8  C   UNL     1       3.141   4.728  19.437  0.00  0.00    +0.000 C 
ENDROOT
BRANCH   2   9
ATOM      9  C   UNL     1       5.125   4.193  16.812  0.00  0.00    +0.000 A 
ATOM     10  C   UNL     1       5.519   3.358  15.752  0.00  0.00    +0.000 A 
ATOM     11  C   UNL     1       5.864   3.872  14.501  0.00  0.00    +0.000 A 
ATOM     12  C   UNL     1       5.793   5.245  14.281  0.00  0.00    +0.000 A 
ATOM     13  C   UNL     1       5.262   6.069  15.263  0.00  0.00    +0.000 A 
ATOM     14  C   UNL     1       4.880   5.534  16.501  0.00  0.00    +0.000 A 
ENDBRANCH   2   9
BRANCH   8  15
ATOM     15  C   UNL     1       2.660   6.169  19.194  0.00  0.00    +0.000 A 
ATOM     16  C   UNL     1       2.163   6.947  20.251  0.00  0.00    +0.000 A 
ATOM     17  C   UNL     1       1.755   8.267  20.034  0.00  0.00    +0.000 A 
ATOM     18  C   UNL     1       1.832   8.828  18.760  0.00  0.00    +0.000 A 
ATOM     19  C   UNL     1       2.316   8.074  17.697  0.00  0.00    +0.000 A 
ATOM     20  C   UNL     1       2.725   6.759  17.919  0.00  0.00    +0.000 A 
ENDBRANCH   8  15
BRANCH   1  21
ATOM     21  C   UNL     1       5.421   5.723  19.550  0.00  0.00    +0.000 C 
BRANCH  21  23
ATOM     22  C   UNL     1       7.736   6.224  18.710  0.00  0.00    +0.000 C 
ATOM     23  C   UNL     1       6.909   5.514  19.498  0.00  0.00    +0.000 C 
ENDBRANCH  21  23
ENDBRANCH   1  21
TORSDOF 4
ENDMDL
MODEL 3
REMARK VINA RESULT:      -6.7      1.769      4.671
REMARK  Name = 
REMARK  5 active torsions:
REMARK  status: ('A' for Active; 'I' for Inactive)
REMARK    1  A    between atoms: C_2  and  C_3
REMARK    2  A    between atoms: C_3  and  N_4
REMARK    3  A    between atoms: C_5  and  C_6
REMARK    4  A    between atoms: C_15  and  C_16
REMARK    5  A    between atoms: C_17  and  C_18
REMARK                            x       y       z     vdW  Elec       q    Type
REMARK                         _______ _______ _______ _____ _____    ______ ____
ROOT
ATOM      1  N   UNL     1       4.355   5.629  19.636  0.00  0.00    +0.000 NA
ATOM      2  C   UNL     1       3.224   5.158  20.456  0.00  0.00    +0.000 C 
ATOM      3  C   UNL     1       2.320   6.337  20.818  0.00  0.00    +0.000 C 
ATOM      4  C   UNL     1       1.998   7.247  19.662  0.00  0.00    +0.000 C 
ATOM      5  O   UNL     1       1.202   8.176  19.828  0.00  0.00    +0.000 OA
ATOM      6  C   UNL     1       2.599   6.947  18.301  0.00  0.00    +0.000 C 
ATOM      7  C   UNL     1       2.442   8.147  17.362  0.00  0.00    +0.000 C 
ATOM      8  C   UNL     1       4.060   6.459  18.437  0.00  0.00    +0.000 C 
ENDROOT
BRANCH   2   9
ATOM      9  C   UNL     1       2.512   3.908  19.926  0.00  0.00    +0.000 A 
ATOM     10  C   UNL     1       3.286   2.779  19.609  0.00  0.00    +0.000 A 
ATOM     11  C   UNL     1       2.767   1.720  18.862  0.00  0.00    +0.000 A 
ATOM     12  C   UNL     1       1.441   1.763  18.441  0.00  0.00    +0.000 A 
ATOM     13  C   UNL     1       0.619   2.795  18.873  0.00  0.00    +0.000 A 
ATOM     14  C   UNL     1       1.143   3.831  19.658  0.00  0.00    +0.000 A 
ENDBRANCH   2   9
BRANCH   8  15
ATOM     15  C   UNL     1       4.511   5.833  17.105  0.00  0.00    +0.000 A 
ATOM     16  C   UNL     1       5.263   6.576  16.183  0.00  0.00    +0.000 A 
ATOM     17  C   UNL     1       5.699   5.997  14.986  0.00  0.00    +0.000 A 
ATOM     18  C   UNL     1       5.387   4.670  14.693  0.00  0.00    +0.000 A 
ATOM     19  C   UNL     1       4.640   3.917  15.589  0.00  0.00    +0.000 A 
ATOM     20  C   UNL     1       4.210   4.498  16.782  0.00  0.00    +0.000 A 
ENDBRANCH   8  15
BRANCH   1  21
ATOM     21  C   UNL     1       5.519   4.746  19.504  0.00  0.00    +0.000 C 
BRANCH  21  23
ATOM     22  C   UNL     1       7.778   5.170  18.485  0.00  0.00    +0.000 C 
ATOM     23  C   UNL     1       6.851   5.440  19.421  0.00  0.00    +0.000 C 
ENDBRANCH  21  23
ENDBRANCH   1  21
TORSDOF 4
ENDMDL
MODEL 4
REMARK VINA RESULT:      -6.6      6.713      9.183
REMARK  Name = 
REMARK  5 active torsions:
REMARK  status: ('A' for Active; 'I' for Inactive)
REMARK    1  A    between atoms: C_2  and  C_3
REMARK    2  A    between atoms: C_3  and  N_4
REMARK    3  A    between atoms: C_5  and  C_6
REMARK    4  A    between atoms: C_15  and  C_16
REMARK    5  A    between atoms: C_17  and  C_18
REMARK                            x       y       z     vdW  Elec       q    Type
REMARK                         _______ _______ _______ _____ _____    ______ ____
ROOT
ATOM      1  N   UNL     1       0.075  12.111  20.197  0.00  0.00    +0.000 NA
ATOM      2  C   UNL     1      -0.196  11.154  19.109  0.00  0.00    +0.000 C 
ATOM      3  C   UNL     1       0.584   9.862  19.349  0.00  0.00    +0.000 C 
ATOM      4  C   UNL     1       0.499   9.340  20.759  0.00  0.00    +0.000 C 
ATOM      5  O   UNL     1       1.018   8.254  21.034  0.00  0.00    +0.000 OA
ATOM      6  C   UNL     1      -0.294  10.126  21.787  0.00  0.00    +0.000 C 
ATOM      7  C   UNL     1       0.017   9.636  23.205  0.00  0.00    +0.000 C 
ATOM      8  C   UNL     1      -0.085  11.647  21.602  0.00  0.00    +0.000 C 
ENDROOT
BRANCH   2   9
ATOM      9  C   UNL     1      -1.676  10.984  18.747  0.00  0.00    +0.000 A 
ATOM     10  C   UNL     1      -2.056   9.865  17.986  0.00  0.00    +0.000 A 
ATOM     11  C   UNL     1      -3.309   9.782  17.377  0.00  0.00    +0.000 A 
ATOM     12  C   UNL     1      -4.222  10.820  17.546  0.00  0.00    +0.000 A 
ATOM     13  C   UNL     1      -3.925  11.859  18.416  0.00  0.00    +0.000 A 
ATOM     14  C   UNL     1      -2.678  11.908  19.054  0.00  0.00    +0.000 A 
ENDBRANCH   2   9
BRANCH   8  15
ATOM     15  C   UNL     1      -1.157  12.407  22.402  0.00  0.00    +0.000 A 
ATOM     16  C   UNL     1      -2.475  11.929  22.469  0.00  0.00    +0.000 A 
ATOM     17  C   UNL     1      -3.441  12.604  23.223  0.00  0.00    +0.000 A 
ATOM     18  C   UNL     1      -3.107  13.767  23.917  0.00  0.00    +0.000 A 
ATOM     19  C   UNL     1      -1.809  14.261  23.861  0.00  0.00    +0.000 A 
ATOM     20  C   UNL     1      -0.848  13.583  23.110  0.00  0.00    +0.000 A 
ENDBRANCH   8  15
BRANCH   1  21
ATOM     21  C   UNL     1      -0.265  13.520  19.971  0.00  0.00    +0.000 C 
BRANCH  21  23
ATOM     22  C   UNL     1       2.118  14.044  19.365  0.00  0.00    +0.000 C 
ATOM     23  C   UNL     1       0.809  14.348  19.319  0.00  0.00    +0.000 C 
ENDBRANCH  21  23
ENDBRANCH   1  21
TORSDOF 4
ENDMDL
MODEL 5
REMARK VINA RESULT:      -6.6      6.699      9.173
REMARK  Name = 
REMARK  5 active torsions:
REMARK  status: ('A' for Active; 'I' for Inactive)
REMARK    1  A    between atoms: C_2  and  C_3
REMARK    2  A    between atoms: C_3  and  N_4
REMARK    3  A    between atoms: C_5  and  C_6
REMARK    4  A    between atoms: C_15  and  C_16
REMARK    5  A    between atoms: C_17  and  C_18
REMARK                            x       y       z     vdW  Elec       q    Type
REMARK                         _______ _______ _______ _____ _____    ______ ____
ROOT
ATOM      1  N   UNL     1       0.081  12.104  20.197  0.00  0.00    +0.000 NA
ATOM      2  C   UNL     1      -0.178  11.151  19.102  0.00  0.00    +0.000 C 
ATOM      3  C   UNL     1       0.605   9.860  19.342  0.00  0.00    +0.000 C 
ATOM      4  C   UNL     1       0.511   9.331  20.749  0.00  0.00    +0.000 C 
ATOM      5  O   UNL     1       1.032   8.246  21.023  0.00  0.00    +0.000 OA
ATOM      6  C   UNL     1      -0.293  10.110  21.774  0.00  0.00    +0.000 C 
ATOM      7  C   UNL     1       0.008   9.614  23.192  0.00  0.00    +0.000 C 
ATOM      8  C   UNL     1      -0.089  11.633  21.598  0.00  0.00    +0.000 C 
ENDROOT
BRANCH   2   9
ATOM      9  C   UNL     1      -1.654  10.976  18.727  0.00  0.00    +0.000 A 
ATOM     10  C   UNL     1      -2.025   9.856  17.964  0.00  0.00    +0.000 A 
ATOM     11  C   UNL     1      -3.272   9.770  17.344  0.00  0.00    +0.000 A 
ATOM     12  C   UNL     1      -4.190  10.805  17.505  0.00  0.00    +0.000 A 
ATOM     13  C   UNL     1      -3.903  11.846  18.376  0.00  0.00    +0.000 A 
ATOM     14  C   UNL     1      -2.661  11.898  19.026  0.00  0.00    +0.000 A 
ENDBRANCH   2   9
BRANCH   8  15
ATOM     15  C   UNL     1      -1.170  12.385  22.393  0.00  0.00    +0.000 A 
ATOM     16  C   UNL     1      -0.852  13.546  23.114  0.00  0.00    +0.000 A 
ATOM     17  C   UNL     1      -1.842  14.246  23.812  0.00  0.00    +0.000 A 
ATOM     18  C   UNL     1      -3.161  13.795  23.804  0.00  0.00    +0.000 A 
ATOM     19  C   UNL     1      -3.498  12.645  23.102  0.00  0.00    +0.000 A 
ATOM     20  C   UNL     1      -2.508  11.951  22.405  0.00  0.00    +0.000 A 
ENDBRANCH   8  15
BRANCH   1  21
ATOM     21  C   UNL     1      -0.263  13.512  19.974  0.00  0.00    +0.000 C 
BRANCH  21  23
ATOM     22  C   UNL     1       2.183  14.024  19.700  0.00  0.00    +0.000 C 
ATOM     23  C   UNL     1       0.904  14.436  19.758  0.00  0.00    +0.000 C 
ENDBRANCH  21  23
ENDBRANCH   1  21
TORSDOF 4
ENDMDL
MODEL 6
REMARK VINA RESULT:      -6.5      1.775      4.698
REMARK  Name = 
REMARK  5 active torsions:
REMARK  status: ('A' for Active; 'I' for Inactive)
REMARK    1  A    between atoms: C_2  and  C_3
REMARK    2  A    between atoms: C_3  and  N_4
REMARK    3  A    between atoms: C_5  and  C_6
REMARK    4  A    between atoms: C_15  and  C_16
REMARK    5  A    between atoms: C_17  and  C_18
REMARK                            x       y       z     vdW  Elec       q    Type
REMARK                         _______ _______ _______ _____ _____    ______ ____
ROOT
ATOM      1  N   UNL     1       4.365   5.631  19.646  0.00  0.00    +0.000 NA
ATOM      2  C   UNL     1       3.224   5.166  20.457  0.00  0.00    +0.000 C 
ATOM      3  C   UNL     1       2.318   6.347  20.802  0.00  0.00    +0.000 C 
ATOM      4  C   UNL     1       2.009   7.252  19.638  0.00  0.00    +0.000 C 
ATOM      5  O   UNL     1       1.212   8.183  19.790  0.00  0.00    +0.000 OA
ATOM      6  C   UNL     1       2.625   6.945  18.285  0.00  0.00    +0.000 C 
ATOM      7  C   UNL     1       2.480   8.139  17.337  0.00  0.00    +0.000 C 
ATOM      8  C   UNL     1       4.084   6.455  18.439  0.00  0.00    +0.000 C 
ENDROOT
BRANCH   2   9
ATOM      9  C   UNL     1       2.517   3.914  19.925  0.00  0.00    +0.000 A 
ATOM     10  C   UNL     1       3.289   2.773  19.649  0.00  0.00    +0.000 A 
ATOM     11  C   UNL     1       2.783   1.707  18.904  0.00  0.00    +0.000 A 
ATOM     12  C   UNL     1       1.470   1.755  18.443  0.00  0.00    +0.000 A 
ATOM     13  C   UNL     1       0.645   2.801  18.834  0.00  0.00    +0.000 A 
ATOM     14  C   UNL     1       1.155   3.845  19.617  0.00  0.00    +0.000 A 
ENDBRANCH   2   9
BRANCH   8  15
ATOM     15  C   UNL     1       4.549   5.822  17.116  0.00  0.00    +0.000 A 
ATOM     16  C   UNL     1       4.208   4.499  16.796  0.00  0.00    +0.000 A 
ATOM     17  C   UNL     1       4.605   3.934  15.580  0.00  0.00    +0.000 A 
ATOM     18  C   UNL     1       5.350   4.680  14.668  0.00  0.00    +0.000 A 
ATOM     19  C   UNL     1       5.704   5.991  14.966  0.00  0.00    +0.000 A 
ATOM     20  C   UNL     1       5.304   6.550  16.179  0.00  0.00    +0.000 A 
ENDBRANCH   8  15
BRANCH   1  21
ATOM     21  C   UNL     1       5.529   4.747  19.531  0.00  0.00    +0.000 C 
BRANCH  21  23
ATOM     22  C   UNL     1       7.790   5.167  18.514  0.00  0.00    +0.000 C 
ATOM     23  C   UNL     1       6.862   5.439  19.449  0.00  0.00    +0.000 C 
ENDBRANCH  21  23
ENDBRANCH   1  21
TORSDOF 4
ENDMDL
MODEL 7
REMARK VINA RESULT:      -6.4      2.234      4.873
REMARK  Name = 
REMARK  5 active torsions:
REMARK  status: ('A' for Active; 'I' for Inactive)
REMARK    1  A    between atoms: C_2  and  C_3
REMARK    2  A    between atoms: C_3  and  N_4
REMARK    3  A    between atoms: C_5  and  C_6
REMARK    4  A    between atoms: C_15  and  C_16
REMARK    5  A    between atoms: C_17  and  C_18
REMARK                            x       y       z     vdW  Elec       q    Type
REMARK                         _______ _______ _______ _____ _____    ______ ____
ROOT
ATOM      1  N   UNL     1       4.772   4.968  16.084  0.00  0.00    +0.000 NA
ATOM      2  C   UNL     1       5.594   6.192  16.097  0.00  0.00    +0.000 C 
ATOM      3  C   UNL     1       4.688   7.424  16.122  0.00  0.00    +0.000 C 
ATOM      4  C   UNL     1       3.560   7.343  17.116  0.00  0.00    +0.000 C 
ATOM      5  O   UNL     1       2.827   8.323  17.279  0.00  0.00    +0.000 OA
ATOM      6  C   UNL     1       3.405   6.085  17.951  0.00  0.00    +0.000 C 
ATOM      7  C   UNL     1       2.034   6.052  18.634  0.00  0.00    +0.000 C 
ATOM      8  C   UNL     1       3.706   4.822  17.111  0.00  0.00    +0.000 C 
ENDROOT
BRANCH   2   9
ATOM      9  C   UNL     1       6.746   6.191  17.108  0.00  0.00    +0.000 A 
ATOM     10  C   UNL     1       7.144   4.966  17.671  0.00  0.00    +0.000 A 
ATOM     11  C   UNL     1       7.972   4.908  18.793  0.00  0.00    +0.000 A 
ATOM     12  C   UNL     1       8.444   6.090  19.358  0.00  0.00    +0.000 A 
ATOM     13  C   UNL     1       8.189   7.300  18.728  0.00  0.00    +0.000 A 
ATOM     14  C   UNL     1       7.390   7.340  17.578  0.00  0.00    +0.000 A 
ENDBRANCH   2   9
BRANCH   8  15
ATOM     15  C   UNL     1       3.891   3.619  18.052  0.00  0.00    +0.000 A 
ATOM     16  C   UNL     1       3.412   2.350  17.694  0.00  0.00    +0.000 A 
ATOM     17  C   UNL     1       3.608   1.250  18.537  0.00  0.00    +0.000 A 
ATOM     18  C   UNL     1       4.280   1.403  19.749  0.00  0.00    +0.000 A 
ATOM     19  C   UNL     1       4.758   2.652  20.126  0.00  0.00    +0.000 A 
ATOM     20  C   UNL     1       4.563   3.745  19.281  0.00  0.00    +0.000 A 
ENDBRANCH   8  15
BRANCH   1  21
ATOM     21  C   UNL     1       5.419   3.714  15.685  0.00  0.00    +0.000 C 
BRANCH  21  23
ATOM     22  C   UNL     1       5.641   3.814  13.183  0.00  0.00    +0.000 C 
ATOM     23  C   UNL     1       6.204   3.769  14.403  0.00  0.00    +0.000 C 
ENDBRANCH  21  23
ENDBRANCH   1  21
TORSDOF 4
ENDMDL
MODEL 8
REMARK VINA RESULT:      -6.4      1.955      4.706
REMARK  Name = 
REMARK  5 active torsions:
REMARK  status: ('A' for Active; 'I' for Inactive)
REMARK    1  A    between atoms: C_2  and  C_3
REMARK    2  A    between atoms: C_3  and  N_4
REMARK    3  A    between atoms: C_5  and  C_6
REMARK    4  A    between atoms: C_15  and  C_16
REMARK    5  A    between atoms: C_17  and  C_18
REMARK                            x       y       z     vdW  Elec       q    Type
REMARK                         _______ _______ _______ _____ _____    ______ ____
ROOT
ATOM      1  N   UNL     1       3.714   5.402  17.002  0.00  0.00    +0.000 NA
ATOM      2  C   UNL     1       4.365   6.708  17.213  0.00  0.00    +0.000 C 
ATOM      3  C   UNL     1       3.340   7.720  17.725  0.00  0.00    +0.000 C 
ATOM      4  C   UNL     1       2.460   7.205  18.834  0.00  0.00    +0.000 C 
ATOM      5  O   UNL     1       1.662   7.973  19.379  0.00  0.00    +0.000 OA
ATOM      6  C   UNL     1       2.637   5.773  19.306  0.00  0.00    +0.000 C 
ATOM      7  C   UNL     1       1.452   5.337  20.173  0.00  0.00    +0.000 C 
ATOM      8  C   UNL     1       2.909   4.827  18.114  0.00  0.00    +0.000 C 
ENDROOT
BRANCH   2   9
ATOM      9  C   UNL     1       5.692   6.657  17.977  0.00  0.00    +0.000 A 
ATOM     10  C   UNL     1       6.722   7.532  17.591  0.00  0.00    +0.000 A 
ATOM     11  C   UNL     1       8.035   7.359  18.031  0.00  0.00    +0.000 A 
ATOM     12  C   UNL     1       8.336   6.311  18.896  0.00  0.00    +0.000 A 
ATOM     13  C   UNL     1       7.309   5.530  19.409  0.00  0.00    +0.000 A 
ATOM     14  C   UNL     1       5.988   5.742  18.991  0.00  0.00    +0.000 A 
ENDBRANCH   2   9
BRANCH   8  15
ATOM     15  C   UNL     1       3.430   3.480  18.644  0.00  0.00    +0.000 A 
ATOM     16  C   UNL     1       3.167   2.287  17.954  0.00  0.00    +0.000 A 
ATOM     17  C   UNL     1       3.668   1.067  18.420  0.00  0.00    +0.000 A 
ATOM     18  C   UNL     1       4.435   1.020  19.584  0.00  0.00    +0.000 A 
ATOM     19  C   UNL     1       4.704   2.188  20.287  0.00  0.00    +0.000 A 
ATOM     20  C   UNL     1       4.205   3.403  19.816  0.00  0.00    +0.000 A 
ENDBRANCH   8  15
BRANCH   1  21
ATOM     21  C   UNL     1       4.413   4.415  16.172  0.00  0.00    +0.000 C 
BRANCH  21  23
ATOM     22  C   UNL     1       6.660   4.495  15.049  0.00  0.00    +0.000 C 
ATOM     23  C   UNL     1       5.414   4.978  15.202  0.00  0.00    +0.000 C 
ENDBRANCH  21  23
ENDBRANCH   1  21
TORSDOF 4
ENDMDL
MODEL 9
REMARK VINA RESULT:      -6.4      1.957      4.815
REMARK  Name = 
REMARK  5 active torsions:
REMARK  status: ('A' for Active; 'I' for Inactive)
REMARK    1  A    between atoms: C_2  and  C_3
REMARK    2  A    between atoms: C_3  and  N_4
REMARK    3  A    between atoms: C_5  and  C_6
REMARK    4  A    between atoms: C_15  and  C_16
REMARK    5  A    between atoms: C_17  and  C_18
REMARK                            x       y       z     vdW  Elec       q    Type
REMARK                         _______ _______ _______ _____ _____    ______ ____
ROOT
ATOM      1  N   UNL     1       3.978   5.363  16.799  0.00  0.00    +0.000 NA
ATOM      2  C   UNL     1       4.604   6.680  17.018  0.00  0.00    +0.000 C 
ATOM      3  C   UNL     1       3.536   7.702  17.409  0.00  0.00    +0.000 C 
ATOM      4  C   UNL     1       2.569   7.218  18.458  0.00  0.00    +0.000 C 
ATOM      5  O   UNL     1       1.726   7.999  18.909  0.00  0.00    +0.000 OA
ATOM      6  C   UNL     1       2.712   5.804  18.991  0.00  0.00    +0.000 C 
ATOM      7  C   UNL     1       1.461   5.390  19.772  0.00  0.00    +0.000 C 
ATOM      8  C   UNL     1       3.086   4.820  17.859  0.00  0.00    +0.000 C 
ENDROOT
BRANCH   2   9
ATOM      9  C   UNL     1       5.864   6.664  17.891  0.00  0.00    +0.000 A 
ATOM     10  C   UNL     1       6.891   7.578  17.603  0.00  0.00    +0.000 A 
ATOM     11  C   UNL     1       8.168   7.444  18.150  0.00  0.00    +0.000 A 
ATOM     12  C   UNL     1       8.431   6.395  19.026  0.00  0.00    +0.000 A 
ATOM     13  C   UNL     1       7.394   5.572  19.441  0.00  0.00    +0.000 A 
ATOM     14  C   UNL     1       6.106   5.745  18.916  0.00  0.00    +0.000 A 
ENDBRANCH   2   9
BRANCH   8  15
ATOM     15  C   UNL     1       3.567   3.496  18.477  0.00  0.00    +0.000 A 
ATOM     16  C   UNL     1       4.252   3.483  19.701  0.00  0.00    +0.000 A 
ATOM     17  C   UNL     1       4.661   2.276  20.277  0.00  0.00    +0.000 A 
ATOM     18  C   UNL     1       4.397   1.065  19.638  0.00  0.00    +0.000 A 
ATOM     19  C   UNL     1       3.725   1.054  18.422  0.00  0.00    +0.000 A 
ATOM     20  C   UNL     1       3.315   2.260  17.852  0.00  0.00    +0.000 A 
ENDBRANCH   8  15
BRANCH   1  21
ATOM     21  C   UNL     1       4.747   4.353  16.064  0.00  0.00    +0.000 C 
BRANCH  21  23
ATOM     22  C   UNL     1       6.884   4.800  14.817  0.00  0.00    +0.000 C 
ATOM     23  C   UNL     1       5.542   4.869  14.897  0.00  0.00    +0.000 C 
ENDBRANCH  21  23
ENDBRANCH   1  21
TORSDOF 4
ENDMDL
