MODEL 1
REMARK VINA RESULT:      -7.5      0.000      0.000
REMARK  Name = 
REMARK  16 active torsions:
REMARK  status: ('A' for Active; 'I' for Inactive)
REMARK    1  A    between atoms: C_1  and  C_2
REMARK    2  A    between atoms: C_2  and  C_3
REMARK    3  A    between atoms: C_3  and  C_4
REMARK    4  A    between atoms: C_4  and  C_5
REMARK    5  A    between atoms: C_5  and  N_6
REMARK    6  A    between atoms: N_6  and  C_7
REMARK    7  A    between atoms: N_6  and  C_12
REMARK    8  A    between atoms: C_7  and  C_8
REMARK    9  A    between atoms: C_8  and  C_9
REMARK   10  A    between atoms: C_9  and  C_10
REMARK   11  A    between atoms: C_10  and  C_11
REMARK   12  A    between atoms: C_12  and  C_13
REMARK   13  A    between atoms: N_15  and  N_16
REMARK   14  A    between atoms: C_17  and  S_18
REMARK   15  A    between atoms: C_21  and  C_22
REMARK   16  A    between atoms: C_25  and  C_26
REMARK                            x       y       z     vdW  Elec       q    Type
REMARK                         _______ _______ _______ _____ _____    ______ ____
ROOT
ATOM      1  C   UNL     1       4.060   4.392  17.132  0.00  0.00    +0.000 C 
ATOM      2  O   UNL     1       3.178   3.580  16.859  0.00  0.00    +0.000 OA
ATOM      3  N   UNL     1       4.226   4.930  18.383  0.00  0.00    +0.000 N 
ATOM      4  H   UNL     1       4.936   5.626  18.582  0.00  0.00    +0.000 HD
ENDROOT
BRANCH   3   5
ATOM      5  N   UNL     1       3.335   4.620  19.375  0.00  0.00    +0.000 N 
ATOM      6  C   UNL     1       3.343   3.497  20.166  0.00  0.00    +0.000 A 
ATOM      7  N   UNL     1       2.398   3.597  21.072  0.00  0.00    +0.000 NA
ATOM      8  N   UNL     1       1.794   4.821  20.911  0.00  0.00    +0.000 NA
ATOM      9  C   UNL     1       2.376   5.466  19.908  0.00  0.00    +0.000 A 
BRANCH   9  10
ATOM     10  C   UNL     1       2.075   6.858  19.551  0.00  0.00    +0.000 A 
ATOM     11  C   UNL     1       1.515   7.697  20.533  0.00  0.00    +0.000 A 
ATOM     12  C   UNL     1       1.217   9.042  20.266  0.00  0.00    +0.000 A 
ATOM     13  C   UNL     1       1.473   9.573  19.002  0.00  0.00    +0.000 A 
ATOM     14  C   UNL     1       1.177  11.011  18.697  0.00  0.00    +0.000 C 
ATOM     15  C   UNL     1       2.009   8.741  18.012  0.00  0.00    +0.000 A 
ATOM     16  C   UNL     1       2.298   7.396  18.281  0.00  0.00    +0.000 A 
ENDBRANCH   9  10
BRANCH   6  17
ATOM     17  S   UNL     1       4.461   2.181  20.059  0.00  0.00    +0.000 S 
ATOM     18  H   UNL     1       3.632   1.193  20.420  0.00  0.00    +0.000 HD
ENDBRANCH   6  17
ENDBRANCH   3   5
BRANCH   1  19
ATOM     19  C   UNL     1       4.999   4.904  16.046  0.00  0.00    +0.000 C 
BRANCH  19  20
ATOM     20  N   UNL     1       6.200   4.054  15.790  0.00  0.00    +0.000 NA
BRANCH  20  21
ATOM     21  C   UNL     1       6.346   3.825  14.325  0.00  0.00    +0.000 C 
BRANCH  21  22
ATOM     22  C   UNL     1       5.068   3.832  13.459  0.00  0.00    +0.000 C 
BRANCH  22  23
ATOM     23  C   UNL     1       5.241   3.331  12.022  0.00  0.00    +0.000 C 
BRANCH  23  25
ATOM     24  C   UNL     1       6.658   1.446  11.060  0.00  0.00    +0.000 C 
ATOM     25  C   UNL     1       6.653   2.758  11.831  0.00  0.00    +0.000 C 
ENDBRANCH  23  25
ENDBRANCH  22  23
ENDBRANCH  21  22
ENDBRANCH  20  21
BRANCH  20  26
ATOM     26  C   UNL     1       7.393   4.788  16.302  0.00  0.00    +0.000 C 
BRANCH  26  27
ATOM     27  C   UNL     1       7.589   4.744  17.831  0.00  0.00    +0.000 C 
BRANCH  27  28
ATOM     28  C   UNL     1       7.792   6.113  18.484  0.00  0.00    +0.000 C 
BRANCH  28  29
ATOM     29  C   UNL     1       7.331   7.258  17.582  0.00  0.00    +0.000 C 
ATOM     30  C   UNL     1       8.085   8.542  17.870  0.00  0.00    +0.000 C 
ENDBRANCH  28  29
ENDBRANCH  27  28
ENDBRANCH  26  27
ENDBRANCH  20  26
ENDBRANCH  19  20
ENDBRANCH   1  19
TORSDOF 13
ENDMDL
MODEL 2
REMARK VINA RESULT:      -7.3      1.409      2.005
REMARK  Name = 
REMARK  16 active torsions:
REMARK  status: ('A' for Active; 'I' for Inactive)
REMARK    1  A    between atoms: C_1  and  C_2
REMARK    2  A    between atoms: C_2  and  C_3
REMARK    3  A    between atoms: C_3  and  C_4
REMARK    4  A    between atoms: C_4  and  C_5
REMARK    5  A    between atoms: C_5  and  N_6
REMARK    6  A    between atoms: N_6  and  C_7
REMARK    7  A    between atoms: N_6  and  C_12
REMARK    8  A    between atoms: C_7  and  C_8
REMARK    9  A    between atoms: C_8  and  C_9
REMARK   10  A    between atoms: C_9  and  C_10
REMARK   11  A    between atoms: C_10  and  C_11
REMARK   12  A    between atoms: C_12  and  C_13
REMARK   13  A    between atoms: N_15  and  N_16
REMARK   14  A    between atoms: C_17  and  S_18
REMARK   15  A    between atoms: C_21  and  C_22
REMARK   16  A    between atoms: C_25  and  C_26
REMARK                            x       y       z     vdW  Elec       q    Type
REMARK                         _______ _______ _______ _____ _____    ______ ____
ROOT
ATOM      1  C   UNL     1       5.857   4.629  18.674  0.00  0.00    +0.000 C 
ATOM      2  O   UNL     1       6.202   4.975  19.803  0.00  0.00    +0.000 OA
ATOM      3  N   UNL     1       4.606   4.145  18.386  0.00  0.00    +0.000 N 
ATOM      4  H   UNL     1       4.350   3.829  17.457  0.00  0.00    +0.000 HD
ENDROOT
BRANCH   3   5
ATOM      5  N   UNL     1       3.703   3.960  19.399  0.00  0.00    +0.000 N 
ATOM      6  C   UNL     1       3.669   2.914  20.288  0.00  0.00    +0.000 A 
ATOM      7  N   UNL     1       2.729   3.130  21.178  0.00  0.00    +0.000 NA
ATOM      8  N   UNL     1       2.172   4.357  20.906  0.00  0.00    +0.000 NA
ATOM      9  C   UNL     1       2.777   4.886  19.849  0.00  0.00    +0.000 A 
BRANCH   9  10
ATOM     10  C   UNL     1       2.528   6.250  19.368  0.00  0.00    +0.000 A 
ATOM     11  C   UNL     1       1.924   7.172  20.242  0.00  0.00    +0.000 A 
ATOM     12  C   UNL     1       1.671   8.496  19.853  0.00  0.00    +0.000 A 
ATOM     13  C   UNL     1       2.019   8.923  18.572  0.00  0.00    +0.000 A 
ATOM     14  C   UNL     1       1.773  10.337  18.138  0.00  0.00    +0.000 C 
ATOM     15  C   UNL     1       2.601   8.007  17.686  0.00  0.00    +0.000 A 
ATOM     16  C   UNL     1       2.844   6.683  18.077  0.00  0.00    +0.000 A 
ENDBRANCH   9  10
BRANCH   6  17
ATOM     17  S   UNL     1       4.737   1.553  20.304  0.00  0.00    +0.000 S 
ATOM     18  H   UNL     1       5.505   1.897  19.261  0.00  0.00    +0.000 HD
ENDBRANCH   6  17
ENDBRANCH   3   5
BRANCH   1  19
ATOM     19  C   UNL     1       6.852   4.660  17.521  0.00  0.00    +0.000 C 
BRANCH  19  20
ATOM     20  N   UNL     1       6.733   5.836  16.608  0.00  0.00    +0.000 NA
BRANCH  20  21
ATOM     21  C   UNL     1       5.519   5.685  15.757  0.00  0.00    +0.000 C 
BRANCH  21  22
ATOM     22  C   UNL     1       5.711   5.256  14.287  0.00  0.00    +0.000 C 
BRANCH  22  23
ATOM     23  C   UNL     1       6.177   3.811  14.076  0.00  0.00    +0.000 C 
BRANCH  23  25
ATOM     24  C   UNL     1       4.884   3.301  11.942  0.00  0.00    +0.000 C 
ATOM     25  C   UNL     1       6.254   3.499  12.574  0.00  0.00    +0.000 C 
ENDBRANCH  23  25
ENDBRANCH  22  23
ENDBRANCH  21  22
ENDBRANCH  20  21
BRANCH  20  26
ATOM     26  C   UNL     1       6.603   7.057  17.453  0.00  0.00    +0.000 C 
BRANCH  26  27
ATOM     27  C   UNL     1       7.926   7.621  18.007  0.00  0.00    +0.000 C 
BRANCH  27  28
ATOM     28  C   UNL     1       8.130   9.117  17.762  0.00  0.00    +0.000 C 
BRANCH  28  29
ATOM     29  C   UNL     1       9.011   9.763  18.832  0.00  0.00    +0.000 C 
ATOM     30  C   UNL     1       9.265  11.231  18.543  0.00  0.00    +0.000 C 
ENDBRANCH  28  29
ENDBRANCH  27  28
ENDBRANCH  26  27
ENDBRANCH  20  26
ENDBRANCH  19  20
ENDBRANCH   1  19
TORSDOF 13
ENDMDL
MODEL 3
REMARK VINA RESULT:      -7.1      1.080      4.088
REMARK  Name = 
REMARK  16 active torsions:
REMARK  status: ('A' for Active; 'I' for Inactive)
REMARK    1  A    between atoms: C_1  and  C_2
REMARK    2  A    between atoms: C_2  and  C_3
REMARK    3  A    between atoms: C_3  and  C_4
REMARK    4  A    between atoms: C_4  and  C_5
REMARK    5  A    between atoms: C_5  and  N_6
REMARK    6  A    between atoms: N_6  and  C_7
REMARK    7  A    between atoms: N_6  and  C_12
REMARK    8  A    between atoms: C_7  and  C_8
REMARK    9  A    between atoms: C_8  and  C_9
REMARK   10  A    between atoms: C_9  and  C_10
REMARK   11  A    between atoms: C_10  and  C_11
REMARK   12  A    between atoms: C_12  and  C_13
REMARK   13  A    between atoms: N_15  and  N_16
REMARK   14  A    between atoms: C_17  and  S_18
REMARK   15  A    between atoms: C_21  and  C_22
REMARK   16  A    between atoms: C_25  and  C_26
REMARK                            x       y       z     vdW  Elec       q    Type
REMARK                         _______ _______ _______ _____ _____    ______ ____
ROOT
ATOM      1  C   UNL     1       4.790   3.816  17.782  0.00  0.00    +0.000 C 
ATOM      2  O   UNL     1       3.941   3.115  17.234  0.00  0.00    +0.000 OA
ATOM      3  N   UNL     1       4.696   4.227  19.088  0.00  0.00    +0.000 N 
ATOM      4  H   UNL     1       5.386   4.835  19.513  0.00  0.00    +0.000 HD
ENDROOT
BRANCH   3   5
ATOM      5  N   UNL     1       3.578   3.917  19.815  0.00  0.00    +0.000 N 
ATOM      6  C   UNL     1       3.400   2.819  20.621  0.00  0.00    +0.000 A 
ATOM      7  N   UNL     1       2.244   2.913  21.235  0.00  0.00    +0.000 NA
ATOM      8  N   UNL     1       1.676   4.110  20.872  0.00  0.00    +0.000 NA
ATOM      9  C   UNL     1       2.490   4.745  20.038  0.00  0.00    +0.000 A 
BRANCH   9  10
ATOM     10  C   UNL     1       2.262   6.114  19.561  0.00  0.00    +0.000 A 
ATOM     11  C   UNL     1       1.803   7.078  20.479  0.00  0.00    +0.000 A 
ATOM     12  C   UNL     1       1.579   8.408  20.096  0.00  0.00    +0.000 A 
ATOM     13  C   UNL     1       1.808   8.800  18.777  0.00  0.00    +0.000 A 
ATOM     14  C   UNL     1       1.590  10.220  18.347  0.00  0.00    +0.000 C 
ATOM     15  C   UNL     1       2.243   7.845  17.851  0.00  0.00    +0.000 A 
ATOM     16  C   UNL     1       2.459   6.514  18.237  0.00  0.00    +0.000 A 
ENDBRANCH   9  10
BRANCH   6  17
ATOM     17  S   UNL     1       4.539   1.539  20.868  0.00  0.00    +0.000 S 
ATOM     18  H   UNL     1       4.038   0.662  19.989  0.00  0.00    +0.000 HD
ENDBRANCH   6  17
ENDBRANCH   3   5
BRANCH   1  19
ATOM     19  C   UNL     1       5.989   4.331  16.996  0.00  0.00    +0.000 C 
BRANCH  19  20
ATOM     20  N   UNL     1       5.663   4.989  15.695  0.00  0.00    +0.000 NA
BRANCH  20  21
ATOM     21  C   UNL     1       5.382   6.434  15.924  0.00  0.00    +0.000 C 
BRANCH  21  22
ATOM     22  C   UNL     1       6.013   7.109  17.160  0.00  0.00    +0.000 C 
BRANCH  22  23
ATOM     23  C   UNL     1       7.535   7.279  17.116  0.00  0.00    +0.000 C 
BRANCH  23  25
ATOM     24  C   UNL     1       8.054   5.981  19.244  0.00  0.00    +0.000 C 
ATOM     25  C   UNL     1       8.100   7.330  18.543  0.00  0.00    +0.000 C 
ENDBRANCH  23  25
ENDBRANCH  22  23
ENDBRANCH  21  22
ENDBRANCH  20  21
BRANCH  20  26
ATOM     26  C   UNL     1       6.849   4.846  14.803  0.00  0.00    +0.000 C 
BRANCH  26  27
ATOM     27  C   UNL     1       6.533   4.497  13.335  0.00  0.00    +0.000 C 
BRANCH  27  28
ATOM     28  C   UNL     1       5.425   3.457  13.155  0.00  0.00    +0.000 C 
BRANCH  28  29
ATOM     29  C   UNL     1       5.297   2.995  11.703  0.00  0.00    +0.000 C 
ATOM     30  C   UNL     1       3.922   3.295  11.134  0.00  0.00    +0.000 C 
ENDBRANCH  28  29
ENDBRANCH  27  28
ENDBRANCH  26  27
ENDBRANCH  20  26
ENDBRANCH  19  20
ENDBRANCH   1  19
TORSDOF 13
ENDMDL
MODEL 4
REMARK VINA RESULT:      -7.0      1.288      4.680
REMARK  Name = 
REMARK  16 active torsions:
REMARK  status: ('A' for Active; 'I' for Inactive)
REMARK    1  A    between atoms: C_1  and  C_2
REMARK    2  A    between atoms: C_2  and  C_3
REMARK    3  A    between atoms: C_3  and  C_4
REMARK    4  A    between atoms: C_4  and  C_5
REMARK    5  A    between atoms: C_5  and  N_6
REMARK    6  A    between atoms: N_6  and  C_7
REMARK    7  A    between atoms: N_6  and  C_12
REMARK    8  A    between atoms: C_7  and  C_8
REMARK    9  A    between atoms: C_8  and  C_9
REMARK   10  A    between atoms: C_9  and  C_10
REMARK   11  A    between atoms: C_10  and  C_11
REMARK   12  A    between atoms: C_12  and  C_13
REMARK   13  A    between atoms: N_15  and  N_16
REMARK   14  A    between atoms: C_17  and  S_18
REMARK   15  A    between atoms: C_21  and  C_22
REMARK   16  A    between atoms: C_25  and  C_26
REMARK                            x       y       z     vdW  Elec       q    Type
REMARK                         _______ _______ _______ _____ _____    ______ ____
ROOT
ATOM      1  C   UNL     1       5.029   4.223  18.481  0.00  0.00    +0.000 C 
ATOM      2  O   UNL     1       4.429   3.457  17.728  0.00  0.00    +0.000 OA
ATOM      3  N   UNL     1       4.499   4.687  19.659  0.00  0.00    +0.000 N 
ATOM      4  H   UNL     1       4.992   5.347  20.249  0.00  0.00    +0.000 HD
ENDROOT
BRANCH   3   5
ATOM      5  N   UNL     1       3.215   4.355  19.998  0.00  0.00    +0.000 N 
ATOM      6  C   UNL     1       2.802   3.206  20.629  0.00  0.00    +0.000 A 
ATOM      7  N   UNL     1       1.517   3.286  20.882  0.00  0.00    +0.000 NA
ATOM      8  N   UNL     1       1.086   4.522  20.462  0.00  0.00    +0.000 NA
ATOM      9  C   UNL     1       2.113   5.194  19.956  0.00  0.00    +0.000 A 
BRANCH   9  10
ATOM     10  C   UNL     1       2.041   6.600  19.541  0.00  0.00    +0.000 A 
ATOM     11  C   UNL     1       2.468   6.941  18.244  0.00  0.00    +0.000 A 
ATOM     12  C   UNL     1       2.413   8.262  17.777  0.00  0.00    +0.000 A 
ATOM     13  C   UNL     1       1.928   9.273  18.606  0.00  0.00    +0.000 A 
ATOM     14  C   UNL     1       1.846  10.691  18.124  0.00  0.00    +0.000 C 
ATOM     15  C   UNL     1       1.523   8.949  19.906  0.00  0.00    +0.000 A 
ATOM     16  C   UNL     1       1.587   7.628  20.372  0.00  0.00    +0.000 A 
ENDBRANCH   9  10
BRANCH   6  17
ATOM     17  S   UNL     1       3.812   1.882  21.099  0.00  0.00    +0.000 S 
ATOM     18  H   UNL     1       4.994   2.407  20.752  0.00  0.00    +0.000 HD
ENDBRANCH   6  17
ENDBRANCH   3   5
BRANCH   1  19
ATOM     19  C   UNL     1       6.402   4.761  18.099  0.00  0.00    +0.000 C 
BRANCH  19  20
ATOM     20  N   UNL     1       6.411   6.145  17.538  0.00  0.00    +0.000 NA
BRANCH  20  21
ATOM     21  C   UNL     1       7.699   6.813  17.881  0.00  0.00    +0.000 C 
BRANCH  21  22
ATOM     22  C   UNL     1       7.809   8.335  17.655  0.00  0.00    +0.000 C 
BRANCH  22  23
ATOM     23  C   UNL     1       8.655   9.097  18.680  0.00  0.00    +0.000 C 
BRANCH  23  25
ATOM     24  C   UNL     1      10.081  11.191  18.932  0.00  0.00    +0.000 C 
ATOM     25  C   UNL     1       8.956  10.512  18.166  0.00  0.00    +0.000 C 
ENDBRANCH  23  25
ENDBRANCH  22  23
ENDBRANCH  21  22
ENDBRANCH  20  21
BRANCH  20  26
ATOM     26  C   UNL     1       6.283   6.037  16.057  0.00  0.00    +0.000 C 
BRANCH  26  27
ATOM     27  C   UNL     1       6.963   4.807  15.423  0.00  0.00    +0.000 C 
BRANCH  27  28
ATOM     28  C   UNL     1       6.828   4.722  13.902  0.00  0.00    +0.000 C 
BRANCH  28  29
ATOM     29  C   UNL     1       5.651   3.845  13.474  0.00  0.00    +0.000 C 
ATOM     30  C   UNL     1       5.911   3.158  12.147  0.00  0.00    +0.000 C 
ENDBRANCH  28  29
ENDBRANCH  27  28
ENDBRANCH  26  27
ENDBRANCH  20  26
ENDBRANCH  19  20
ENDBRANCH   1  19
TORSDOF 13
ENDMDL
MODEL 5
REMARK VINA RESULT:      -6.9      1.422      4.592
REMARK  Name = 
REMARK  16 active torsions:
REMARK  status: ('A' for Active; 'I' for Inactive)
REMARK    1  A    between atoms: C_1  and  C_2
REMARK    2  A    between atoms: C_2  and  C_3
REMARK    3  A    between atoms: C_3  and  C_4
REMARK    4  A    between atoms: C_4  and  C_5
REMARK    5  A    between atoms: C_5  and  N_6
REMARK    6  A    between atoms: N_6  and  C_7
REMARK    7  A    between atoms: N_6  and  C_12
REMARK    8  A    between atoms: C_7  and  C_8
REMARK    9  A    between atoms: C_8  and  C_9
REMARK   10  A    between atoms: C_9  and  C_10
REMARK   11  A    between atoms: C_10  and  C_11
REMARK   12  A    between atoms: C_12  and  C_13
REMARK   13  A    between atoms: N_15  and  N_16
REMARK   14  A    between atoms: C_17  and  S_18
REMARK   15  A    between atoms: C_21  and  C_22
REMARK   16  A    between atoms: C_25  and  C_26
REMARK                            x       y       z     vdW  Elec       q    Type
REMARK                         _______ _______ _______ _____ _____    ______ ____
ROOT
ATOM      1  C   UNL     1       5.741   4.481  18.858  0.00  0.00    +0.000 C 
ATOM      2  O   UNL     1       6.069   4.866  19.979  0.00  0.00    +0.000 OA
ATOM      3  N   UNL     1       4.506   3.954  18.576  0.00  0.00    +0.000 N 
ATOM      4  H   UNL     1       4.265   3.608  17.654  0.00  0.00    +0.000 HD
ENDROOT
BRANCH   3   5
ATOM      5  N   UNL     1       3.603   3.769  19.589  0.00  0.00    +0.000 N 
ATOM      6  C   UNL     1       3.568   2.721  20.477  0.00  0.00    +0.000 A 
ATOM      7  N   UNL     1       2.629   2.938  21.367  0.00  0.00    +0.000 NA
ATOM      8  N   UNL     1       2.073   4.166  21.097  0.00  0.00    +0.000 NA
ATOM      9  C   UNL     1       2.678   4.696  20.041  0.00  0.00    +0.000 A 
BRANCH   9  10
ATOM     10  C   UNL     1       2.431   6.060  19.561  0.00  0.00    +0.000 A 
ATOM     11  C   UNL     1       2.760   6.374  18.229  0.00  0.00    +0.000 A 
ATOM     12  C   UNL     1       2.536   7.654  17.700  0.00  0.00    +0.000 A 
ATOM     13  C   UNL     1       1.979   8.650  18.501  0.00  0.00    +0.000 A 
ATOM     14  C   UNL     1       1.716  10.022  17.953  0.00  0.00    +0.000 C 
ATOM     15  C   UNL     1       1.669   8.355  19.834  0.00  0.00    +0.000 A 
ATOM     16  C   UNL     1       1.901   7.076  20.361  0.00  0.00    +0.000 A 
ENDBRANCH   9  10
BRANCH   6  17
ATOM     17  S   UNL     1       4.635   1.359  20.491  0.00  0.00    +0.000 S 
ATOM     18  H   UNL     1       4.386   0.906  19.255  0.00  0.00    +0.000 HD
ENDBRANCH   6  17
ENDBRANCH   3   5
BRANCH   1  19
ATOM     19  C   UNL     1       6.742   4.511  17.709  0.00  0.00    +0.000 C 
BRANCH  19  20
ATOM     20  N   UNL     1       6.300   5.268  16.500  0.00  0.00    +0.000 NA
BRANCH  20  21
ATOM     21  C   UNL     1       6.292   6.727  16.801  0.00  0.00    +0.000 C 
BRANCH  21  22
ATOM     22  C   UNL     1       7.307   7.262  17.832  0.00  0.00    +0.000 C 
BRANCH  22  23
ATOM     23  C   UNL     1       8.248   8.360  17.326  0.00  0.00    +0.000 C 
BRANCH  23  25
ATOM     24  C   UNL     1       9.190  10.073  18.958  0.00  0.00    +0.000 C 
ATOM     25  C   UNL     1       8.001   9.662  18.103  0.00  0.00    +0.000 C 
ENDBRANCH  23  25
ENDBRANCH  22  23
ENDBRANCH  21  22
ENDBRANCH  20  21
BRANCH  20  26
ATOM     26  C   UNL     1       7.275   4.988  15.407  0.00  0.00    +0.000 C 
BRANCH  26  27
ATOM     27  C   UNL     1       6.685   4.975  13.983  0.00  0.00    +0.000 C 
BRANCH  27  28
ATOM     28  C   UNL     1       5.753   3.797  13.693  0.00  0.00    +0.000 C 
BRANCH  28  29
ATOM     29  C   UNL     1       5.850   3.327  12.242  0.00  0.00    +0.000 C 
ATOM     30  C   UNL     1       4.485   3.243  11.584  0.00  0.00    +0.000 C 
ENDBRANCH  28  29
ENDBRANCH  27  28
ENDBRANCH  26  27
ENDBRANCH  20  26
ENDBRANCH  19  20
ENDBRANCH   1  19
TORSDOF 13
ENDMDL
MODEL 6
REMARK VINA RESULT:      -6.9      0.628      1.153
REMARK  Name = 
REMARK  16 active torsions:
REMARK  status: ('A' for Active; 'I' for Inactive)
REMARK    1  A    between atoms: C_1  and  C_2
REMARK    2  A    between atoms: C_2  and  C_3
REMARK    3  A    between atoms: C_3  and  C_4
REMARK    4  A    between atoms: C_4  and  C_5
REMARK    5  A    between atoms: C_5  and  N_6
REMARK    6  A    between atoms: N_6  and  C_7
REMARK    7  A    between atoms: N_6  and  C_12
REMARK    8  A    between atoms: C_7  and  C_8
REMARK    9  A    between atoms: C_8  and  C_9
REMARK   10  A    between atoms: C_9  and  C_10
REMARK   11  A    between atoms: C_10  and  C_11
REMARK   12  A    between atoms: C_12  and  C_13
REMARK   13  A    between atoms: N_15  and  N_16
REMARK   14  A    between atoms: C_17  and  S_18
REMARK   15  A    between atoms: C_21  and  C_22
REMARK   16  A    between atoms: C_25  and  C_26
REMARK                            x       y       z     vdW  Elec       q    Type
REMARK                         _______ _______ _______ _____ _____    ______ ____
ROOT
ATOM      1  C   UNL     1       3.928   4.803  17.336  0.00  0.00    +0.000 C 
ATOM      2  O   UNL     1       3.041   4.041  16.953  0.00  0.00    +0.000 OA
ATOM      3  N   UNL     1       4.077   5.182  18.647  0.00  0.00    +0.000 N 
ATOM      4  H   UNL     1       4.791   5.839  18.940  0.00  0.00    +0.000 HD
ENDROOT
BRANCH   3   5
ATOM      5  N   UNL     1       3.165   4.765  19.579  0.00  0.00    +0.000 N 
ATOM      6  C   UNL     1       3.173   3.573  20.262  0.00  0.00    +0.000 A 
ATOM      7  N   UNL     1       2.201   3.572  21.145  0.00  0.00    +0.000 NA
ATOM      8  N   UNL     1       1.579   4.795  21.081  0.00  0.00    +0.000 NA
ATOM      9  C   UNL     1       2.175   5.541  20.159  0.00  0.00    +0.000 A 
BRANCH   9  10
ATOM     10  C   UNL     1       1.856   6.955  19.925  0.00  0.00    +0.000 A 
ATOM     11  C   UNL     1       2.136   7.506  18.661  0.00  0.00    +0.000 A 
ATOM     12  C   UNL     1       1.844   8.846  18.364  0.00  0.00    +0.000 A 
ATOM     13  C   UNL     1       1.264   9.663  19.334  0.00  0.00    +0.000 A 
ATOM     14  C   UNL     1       0.928  11.094  19.034  0.00  0.00    +0.000 C 
ATOM     15  C   UNL     1       1.002   9.130  20.601  0.00  0.00    +0.000 A 
ATOM     16  C   UNL     1       1.303   7.793  20.897  0.00  0.00    +0.000 A 
ENDBRANCH   9  10
BRANCH   6  17
ATOM     17  S   UNL     1       4.320   2.293  20.066  0.00  0.00    +0.000 S 
ATOM     18  H   UNL     1       3.544   1.442  19.381  0.00  0.00    +0.000 HD
ENDBRANCH   6  17
ENDBRANCH   3   5
BRANCH   1  19
ATOM     19  C   UNL     1       4.891   5.430  16.337  0.00  0.00    +0.000 C 
BRANCH  19  20
ATOM     20  N   UNL     1       5.862   4.485  15.709  0.00  0.00    +0.000 NA
BRANCH  20  21
ATOM     21  C   UNL     1       5.835   4.654  14.228  0.00  0.00    +0.000 C 
BRANCH  21  22
ATOM     22  C   UNL     1       6.217   3.442  13.353  0.00  0.00    +0.000 C 
BRANCH  22  23
ATOM     23  C   UNL     1       5.421   3.287  12.053  0.00  0.00    +0.000 C 
BRANCH  23  25
ATOM     24  C   UNL     1       7.179   1.729  11.071  0.00  0.00    +0.000 C 
ATOM     25  C   UNL     1       5.711   1.918  11.419  0.00  0.00    +0.000 C 
ENDBRANCH  23  25
ENDBRANCH  22  23
ENDBRANCH  21  22
ENDBRANCH  20  21
BRANCH  20  26
ATOM     26  C   UNL     1       7.220   4.819  16.225  0.00  0.00    +0.000 C 
BRANCH  26  27
ATOM     27  C   UNL     1       7.248   5.683  17.502  0.00  0.00    +0.000 C 
BRANCH  27  28
ATOM     28  C   UNL     1       7.475   7.176  17.253  0.00  0.00    +0.000 C 
BRANCH  28  29
ATOM     29  C   UNL     1       8.268   7.835  18.381  0.00  0.00    +0.000 C 
ATOM     30  C   UNL     1       8.428   9.328  18.160  0.00  0.00    +0.000 C 
ENDBRANCH  28  29
ENDBRANCH  27  28
ENDBRANCH  26  27
ENDBRANCH  20  26
ENDBRANCH  19  20
ENDBRANCH   1  19
TORSDOF 13
ENDMDL
MODEL 7
REMARK VINA RESULT:      -6.8      1.216      4.423
REMARK  Name = 
REMARK  16 active torsions:
REMARK  status: ('A' for Active; 'I' for Inactive)
REMARK    1  A    between atoms: C_1  and  C_2
REMARK    2  A    between atoms: C_2  and  C_3
REMARK    3  A    between atoms: C_3  and  C_4
REMARK    4  A    between atoms: C_4  and  C_5
REMARK    5  A    between atoms: C_5  and  N_6
REMARK    6  A    between atoms: N_6  and  C_7
REMARK    7  A    between atoms: N_6  and  C_12
REMARK    8  A    between atoms: C_7  and  C_8
REMARK    9  A    between atoms: C_8  and  C_9
REMARK   10  A    between atoms: C_9  and  C_10
REMARK   11  A    between atoms: C_10  and  C_11
REMARK   12  A    between atoms: C_12  and  C_13
REMARK   13  A    between atoms: N_15  and  N_16
REMARK   14  A    between atoms: C_17  and  S_18
REMARK   15  A    between atoms: C_21  and  C_22
REMARK   16  A    between atoms: C_25  and  C_26
REMARK                            x       y       z     vdW  Elec       q    Type
REMARK                         _______ _______ _______ _____ _____    ______ ____
ROOT
ATOM      1  C   UNL     1       5.403   4.298  18.288  0.00  0.00    +0.000 C 
ATOM      2  O   UNL     1       5.965   4.442  19.373  0.00  0.00    +0.000 OA
ATOM      3  N   UNL     1       4.063   4.028  18.166  0.00  0.00    +0.000 N 
ATOM      4  H   UNL     1       3.623   3.876  17.266  0.00  0.00    +0.000 HD
ENDROOT
BRANCH   3   5
ATOM      5  N   UNL     1       3.309   3.832  19.292  0.00  0.00    +0.000 N 
ATOM      6  C   UNL     1       3.361   2.751  20.139  0.00  0.00    +0.000 A 
ATOM      7  N   UNL     1       2.567   2.963  21.163  0.00  0.00    +0.000 NA
ATOM      8  N   UNL     1       2.026   4.218  21.018  0.00  0.00    +0.000 NA
ATOM      9  C   UNL     1       2.493   4.769  19.905  0.00  0.00    +0.000 A 
BRANCH   9  10
ATOM     10  C   UNL     1       2.232   6.160  19.513  0.00  0.00    +0.000 A 
ATOM     11  C   UNL     1       1.776   7.060  20.494  0.00  0.00    +0.000 A 
ATOM     12  C   UNL     1       1.521   8.406  20.194  0.00  0.00    +0.000 A 
ATOM     13  C   UNL     1       1.718   8.878  18.896  0.00  0.00    +0.000 A 
ATOM     14  C   UNL     1       1.466  10.316  18.554  0.00  0.00    +0.000 C 
ATOM     15  C   UNL     1       2.150   7.986  17.908  0.00  0.00    +0.000 A 
ATOM     16  C   UNL     1       2.396   6.639  18.211  0.00  0.00    +0.000 A 
ENDBRANCH   9  10
BRANCH   6  17
ATOM     17  S   UNL     1       4.366   1.356  19.951  0.00  0.00    +0.000 S 
ATOM     18  H   UNL     1       3.411   0.419  20.018  0.00  0.00    +0.000 HD
ENDBRANCH   6  17
ENDBRANCH   3   5
BRANCH   1  19
ATOM     19  C   UNL     1       6.204   4.349  16.993  0.00  0.00    +0.000 C 
BRANCH  19  20
ATOM     20  N   UNL     1       5.477   4.916  15.817  0.00  0.00    +0.000 NA
BRANCH  20  21
ATOM     21  C   UNL     1       5.435   6.402  15.928  0.00  0.00    +0.000 C 
BRANCH  21  22
ATOM     22  C   UNL     1       6.100   7.057  17.157  0.00  0.00    +0.000 C 
BRANCH  22  23
ATOM     23  C   UNL     1       7.614   7.266  17.057  0.00  0.00    +0.000 C 
BRANCH  23  25
ATOM     24  C   UNL     1       8.372   9.400  18.222  0.00  0.00    +0.000 C 
ATOM     25  C   UNL     1       8.144   7.902  18.352  0.00  0.00    +0.000 C 
ENDBRANCH  23  25
ENDBRANCH  22  23
ENDBRANCH  21  22
ENDBRANCH  20  21
BRANCH  20  26
ATOM     26  C   UNL     1       6.226   4.528  14.589  0.00  0.00    +0.000 C 
BRANCH  26  27
ATOM     27  C   UNL     1       5.369   3.934  13.453  0.00  0.00    +0.000 C 
BRANCH  27  28
ATOM     28  C   UNL     1       6.173   3.296  12.318  0.00  0.00    +0.000 C 
BRANCH  28  29
ATOM     29  C   UNL     1       5.395   2.187  11.611  0.00  0.00    +0.000 C 
ATOM     30  C   UNL     1       6.318   1.126  11.040  0.00  0.00    +0.000 C 
ENDBRANCH  28  29
ENDBRANCH  27  28
ENDBRANCH  26  27
ENDBRANCH  20  26
ENDBRANCH  19  20
ENDBRANCH   1  19
TORSDOF 13
ENDMDL
MODEL 8
REMARK VINA RESULT:      -6.7      2.243      8.174
REMARK  Name = 
REMARK  16 active torsions:
REMARK  status: ('A' for Active; 'I' for Inactive)
REMARK    1  A    between atoms: C_1  and  C_2
REMARK    2  A    between atoms: C_2  and  C_3
REMARK    3  A    between atoms: C_3  and  C_4
REMARK    4  A    between atoms: C_4  and  C_5
REMARK    5  A    between atoms: C_5  and  N_6
REMARK    6  A    between atoms: N_6  and  C_7
REMARK    7  A    between atoms: N_6  and  C_12
REMARK    8  A    between atoms: C_7  and  C_8
REMARK    9  A    between atoms: C_8  and  C_9
REMARK   10  A    between atoms: C_9  and  C_10
REMARK   11  A    between atoms: C_10  and  C_11
REMARK   12  A    between atoms: C_12  and  C_13
REMARK   13  A    between atoms: N_15  and  N_16
REMARK   14  A    between atoms: C_17  and  S_18
REMARK   15  A    between atoms: C_21  and  C_22
REMARK   16  A    between atoms: C_25  and  C_26
REMARK                            x       y       z     vdW  Elec       q    Type
REMARK                         _______ _______ _______ _____ _____    ______ ____
ROOT
ATOM      1  C   UNL     1       2.749   6.337  18.560  0.00  0.00    +0.000 C 
ATOM      2  O   UNL     1       1.955   5.701  17.868  0.00  0.00    +0.000 OA
ATOM      3  N   UNL     1       3.762   5.748  19.276  0.00  0.00    +0.000 N 
ATOM      4  H   UNL     1       4.385   6.284  19.870  0.00  0.00    +0.000 HD
ENDROOT
BRANCH   3   5
ATOM      5  N   UNL     1       3.869   4.383  19.296  0.00  0.00    +0.000 N 
ATOM      6  C   UNL     1       3.189   3.518  20.119  0.00  0.00    +0.000 A 
ATOM      7  N   UNL     1       3.473   2.282  19.780  0.00  0.00    +0.000 NA
ATOM      8  N   UNL     1       4.307   2.331  18.688  0.00  0.00    +0.000 NA
ATOM      9  C   UNL     1       4.528   3.599  18.364  0.00  0.00    +0.000 A 
BRANCH   9  10
ATOM     10  C   UNL     1       5.261   4.016  17.163  0.00  0.00    +0.000 A 
ATOM     11  C   UNL     1       6.611   4.393  17.297  0.00  0.00    +0.000 A 
ATOM     12  C   UNL     1       7.376   4.787  16.189  0.00  0.00    +0.000 A 
ATOM     13  C   UNL     1       6.799   4.814  14.919  0.00  0.00    +0.000 A 
ATOM     14  C   UNL     1       7.601   5.218  13.718  0.00  0.00    +0.000 C 
ATOM     15  C   UNL     1       5.451   4.464  14.779  0.00  0.00    +0.000 A 
ATOM     16  C   UNL     1       4.688   4.078  15.890  0.00  0.00    +0.000 A 
ENDBRANCH   9  10
BRANCH   6  17
ATOM     17  S   UNL     1       2.068   3.960  21.360  0.00  0.00    +0.000 S 
ATOM     18  H   UNL     1       1.839   2.737  21.859  0.00  0.00    +0.000 HD
ENDBRANCH   6  17
ENDBRANCH   3   5
BRANCH   1  19
ATOM     19  C   UNL     1       2.603   7.846  18.711  0.00  0.00    +0.000 C 
BRANCH  19  20
ATOM     20  N   UNL     1       1.368   8.298  19.419  0.00  0.00    +0.000 NA
BRANCH  20  21
ATOM     21  C   UNL     1       1.466   7.947  20.864  0.00  0.00    +0.000 C 
BRANCH  21  22
ATOM     22  C   UNL     1       1.063   9.018  21.900  0.00  0.00    +0.000 C 
BRANCH  22  23
ATOM     23  C   UNL     1      -0.349   8.883  22.476  0.00  0.00    +0.000 C 
BRANCH  23  25
ATOM     24  C   UNL     1      -0.651  11.391  22.154  0.00  0.00    +0.000 C 
ATOM     25  C   UNL     1      -0.789  10.213  23.107  0.00  0.00    +0.000 C 
ENDBRANCH  23  25
ENDBRANCH  22  23
ENDBRANCH  21  22
ENDBRANCH  20  21
BRANCH  20  26
ATOM     26  C   UNL     1       1.274   9.778  19.269  0.00  0.00    +0.000 C 
BRANCH  26  27
ATOM     27  C   UNL     1       0.392  10.269  18.103  0.00  0.00    +0.000 C 
BRANCH  27  28
ATOM     28  C   UNL     1      -1.105  10.313  18.415  0.00  0.00    +0.000 C 
BRANCH  28  29
ATOM     29  C   UNL     1      -1.959   9.940  17.203  0.00  0.00    +0.000 C 
ATOM     30  C   UNL     1      -3.423   9.788  17.570  0.00  0.00    +0.000 C 
ENDBRANCH  28  29
ENDBRANCH  27  28
ENDBRANCH  26  27
ENDBRANCH  20  26
ENDBRANCH  19  20
ENDBRANCH   1  19
TORSDOF 13
ENDMDL
MODEL 9
REMARK VINA RESULT:      -6.7      1.327      2.245
REMARK  Name = 
REMARK  16 active torsions:
REMARK  status: ('A' for Active; 'I' for Inactive)
REMARK    1  A    between atoms: C_1  and  C_2
REMARK    2  A    between atoms: C_2  and  C_3
REMARK    3  A    between atoms: C_3  and  C_4
REMARK    4  A    between atoms: C_4  and  C_5
REMARK    5  A    between atoms: C_5  and  N_6
REMARK    6  A    between atoms: N_6  and  C_7
REMARK    7  A    between atoms: N_6  and  C_12
REMARK    8  A    between atoms: C_7  and  C_8
REMARK    9  A    between atoms: C_8  and  C_9
REMARK   10  A    between atoms: C_9  and  C_10
REMARK   11  A    between atoms: C_10  and  C_11
REMARK   12  A    between atoms: C_12  and  C_13
REMARK   13  A    between atoms: N_15  and  N_16
REMARK   14  A    between atoms: C_17  and  S_18
REMARK   15  A    between atoms: C_21  and  C_22
REMARK   16  A    between atoms: C_25  and  C_26
REMARK                            x       y       z     vdW  Elec       q    Type
REMARK                         _______ _______ _______ _____ _____    ______ ____
ROOT
ATOM      1  C   UNL     1       4.327   5.887  17.879  0.00  0.00    +0.000 C 
ATOM      2  O   UNL     1       3.513   5.381  17.107  0.00  0.00    +0.000 OA
ATOM      3  N   UNL     1       4.215   5.811  19.245  0.00  0.00    +0.000 N 
ATOM      4  H   UNL     1       4.875   6.265  19.866  0.00  0.00    +0.000 HD
ENDROOT
BRANCH   3   5
ATOM      5  N   UNL     1       3.115   5.214  19.800  0.00  0.00    +0.000 N 
ATOM      6  C   UNL     1       3.010   3.907  20.212  0.00  0.00    +0.000 A 
ATOM      7  N   UNL     1       1.844   3.726  20.787  0.00  0.00    +0.000 NA
ATOM      8  N   UNL     1       1.194   4.937  20.802  0.00  0.00    +0.000 NA
ATOM      9  C   UNL     1       1.968   5.855  20.238  0.00  0.00    +0.000 A 
BRANCH   9  10
ATOM     10  C   UNL     1       1.646   7.287  20.211  0.00  0.00    +0.000 A 
ATOM     11  C   UNL     1       1.785   7.985  18.996  0.00  0.00    +0.000 A 
ATOM     12  C   UNL     1       1.480   9.350  18.895  0.00  0.00    +0.000 A 
ATOM     13  C   UNL     1       1.029  10.047  20.016  0.00  0.00    +0.000 A 
ATOM     14  C   UNL     1       0.683  11.503  19.929  0.00  0.00    +0.000 C 
ATOM     15  C   UNL     1       0.909   9.368  21.234  0.00  0.00    +0.000 A 
ATOM     16  C   UNL     1       1.223   8.004  21.333  0.00  0.00    +0.000 A 
ENDBRANCH   9  10
BRANCH   6  17
ATOM     17  S   UNL     1       4.236   2.694  20.079  0.00  0.00    +0.000 S 
ATOM     18  H   UNL     1       5.093   3.369  19.301  0.00  0.00    +0.000 HD
ENDBRANCH   6  17
ENDBRANCH   3   5
BRANCH   1  19
ATOM     19  C   UNL     1       5.497   6.700  17.340  0.00  0.00    +0.000 C 
BRANCH  19  20
ATOM     20  N   UNL     1       6.826   6.020  17.398  0.00  0.00    +0.000 NA
BRANCH  20  21
ATOM     21  C   UNL     1       7.204   5.549  16.036  0.00  0.00    +0.000 C 
BRANCH  21  22
ATOM     22  C   UNL     1       6.637   4.197  15.552  0.00  0.00    +0.000 C 
BRANCH  22  23
ATOM     23  C   UNL     1       5.639   4.275  14.393  0.00  0.00    +0.000 C 
BRANCH  23  25
ATOM     24  C   UNL     1       5.189   3.419  12.037  0.00  0.00    +0.000 C 
ATOM     25  C   UNL     1       6.201   3.541  13.166  0.00  0.00    +0.000 C 
ENDBRANCH  23  25
ENDBRANCH  22  23
ENDBRANCH  21  22
ENDBRANCH  20  21
BRANCH  20  26
ATOM     26  C   UNL     1       7.826   7.016  17.878  0.00  0.00    +0.000 C 
BRANCH  26  27
ATOM     27  C   UNL     1       7.433   8.494  17.683  0.00  0.00    +0.000 C 
BRANCH  27  28
ATOM     28  C   UNL     1       8.594   9.482  17.815  0.00  0.00    +0.000 C 
BRANCH  28  29
ATOM     29  C   UNL     1       8.930   9.786  19.275  0.00  0.00    +0.000 C 
ATOM     30  C   UNL     1       9.924  10.926  19.399  0.00  0.00    +0.000 C 
ENDBRANCH  28  29
ENDBRANCH  27  28
ENDBRANCH  26  27
ENDBRANCH  20  26
ENDBRANCH  19  20
ENDBRANCH   1  19
TORSDOF 13
ENDMDL
