MODEL 1
REMARK VINA RESULT:      -6.4      0.000      0.000
REMARK  Name = 
REMARK  9 active torsions:
REMARK  status: ('A' for Active; 'I' for Inactive)
REMARK    1  A    between atoms: C_1  and  N_2
REMARK    2  A    between atoms: N_2  and  C_3
REMARK    3  A    between atoms: N_2  and  C_4
REMARK    4  A    between atoms: C_5  and  N_6
REMARK    5  A    between atoms: N_6  and  C_7
REMARK    6  A    between atoms: N_6  and  S_12
REMARK    7  A    between atoms: C_7  and  C_8
REMARK    8  A    between atoms: C_8  and  C_9
REMARK    9  A    between atoms: S_12  and  C_15
REMARK                            x       y       z     vdW  Elec       q    Type
REMARK                         _______ _______ _______ _____ _____    ______ ____
ROOT
ATOM      1  N   UNL     1      -0.339  10.742  20.283  0.00  0.00    +0.000 N 
ENDROOT
BRANCH   1   3
ATOM      2  C   UNL     1       0.018  13.078  20.784  0.00  0.00    +0.000 C 
ATOM      3  C   UNL     1      -0.699  11.946  21.014  0.00  0.00    +0.000 C 
ATOM      4  S   UNL     1      -1.712  12.127  22.455  0.00  0.00    +0.000 S 
ATOM      5  O   UNL     1      -3.121  12.190  22.112  0.00  0.00    +0.000 OA
ATOM      6  O   UNL     1      -1.208  11.403  23.602  0.00  0.00    +0.000 OA
ATOM      7  C   UNL     1      -1.201  13.784  22.730  0.00  0.00    +0.000 A 
ATOM      8  C   UNL     1      -1.492  14.571  23.838  0.00  0.00    +0.000 A 
ATOM      9  C   UNL     1      -0.873  15.819  23.928  0.00  0.00    +0.000 A 
ATOM     10  C   UNL     1      -0.016  16.260  22.910  0.00  0.00    +0.000 A 
ATOM     11  C   UNL     1       0.253  15.440  21.808  0.00  0.00    +0.000 A 
ATOM     12  C   UNL     1      -0.311  14.164  21.743  0.00  0.00    +0.000 A 
BRANCH   2  14
ATOM     13  C   UNL     1       1.066  13.375  18.520  0.00  0.00    +0.000 C 
ATOM     14  N   UNL     1       1.122  13.326  19.972  0.00  0.00    +0.000 N 
ATOM     15  C   UNL     1       2.460  13.084  20.524  0.00  0.00    +0.000 C 
ENDBRANCH   2  14
ENDBRANCH   1   3
BRANCH   1  16
ATOM     16  S   UNL     1       0.477   9.529  21.150  0.00  0.00    +0.000 S 
ATOM     17  O   UNL     1       1.327  10.136  22.142  0.00  0.00    +0.000 OA
ATOM     18  O   UNL     1      -0.511   8.557  21.563  0.00  0.00    +0.000 OA
BRANCH  16  19
ATOM     19  C   UNL     1       1.453   8.678  19.939  0.00  0.00    +0.000 A 
ATOM     20  C   UNL     1       1.926   7.392  20.185  0.00  0.00    +0.000 A 
ATOM     21  C   UNL     1       2.639   6.720  19.189  0.00  0.00    +0.000 A 
ATOM     22  C   UNL     1       2.864   7.327  17.951  0.00  0.00    +0.000 A 
ATOM     23  C   UNL     1       2.353   8.597  17.694  0.00  0.00    +0.000 A 
ATOM     24  C   UNL     1       1.631   9.270  18.682  0.00  0.00    +0.000 A 
ENDBRANCH  16  19
ENDBRANCH   1  16
BRANCH   1  25
ATOM     25  C   UNL     1      -1.162  10.293  19.120  0.00  0.00    +0.000 C 
BRANCH  25  26
ATOM     26  C   UNL     1      -2.286  11.228  18.646  0.00  0.00    +0.000 C 
BRANCH  26  27
ATOM     27  C   UNL     1      -3.347  10.553  17.828  0.00  0.00    +0.000 C 
ATOM     28  C   UNL     1      -3.790  11.198  16.536  0.00  0.00    +0.000 C 
ATOM     29  C   UNL     1      -3.010   9.918  16.506  0.00  0.00    +0.000 C 
ENDBRANCH  26  27
ENDBRANCH  25  26
ENDBRANCH   1  25
TORSDOF 7
ENDMDL
MODEL 2
REMARK VINA RESULT:      -6.4      0.330      1.154
REMARK  Name = 
REMARK  9 active torsions:
REMARK  status: ('A' for Active; 'I' for Inactive)
REMARK    1  A    between atoms: C_1  and  N_2
REMARK    2  A    between atoms: N_2  and  C_3
REMARK    3  A    between atoms: N_2  and  C_4
REMARK    4  A    between atoms: C_5  and  N_6
REMARK    5  A    between atoms: N_6  and  C_7
REMARK    6  A    between atoms: N_6  and  S_12
REMARK    7  A    between atoms: C_7  and  C_8
REMARK    8  A    between atoms: C_8  and  C_9
REMARK    9  A    between atoms: S_12  and  C_15
REMARK                            x       y       z     vdW  Elec       q    Type
REMARK                         _______ _______ _______ _____ _____    ______ ____
ROOT
ATOM      1  N   UNL     1      -0.412  10.594  20.262  0.00  0.00    +0.000 N 
ENDROOT
BRANCH   1   3
ATOM      2  C   UNL     1       0.054  12.922  20.710  0.00  0.00    +0.000 C 
ATOM      3  C   UNL     1      -0.718  11.832  20.961  0.00  0.00    +0.000 C 
ATOM      4  S   UNL     1      -1.731  12.097  22.390  0.00  0.00    +0.000 S 
ATOM      5  O   UNL     1      -3.132  12.219  22.035  0.00  0.00    +0.000 OA
ATOM      6  O   UNL     1      -1.270  11.376  23.557  0.00  0.00    +0.000 OA
ATOM      7  C   UNL     1      -1.142  13.733  22.629  0.00  0.00    +0.000 A 
ATOM      8  C   UNL     1      -1.401  14.559  23.716  0.00  0.00    +0.000 A 
ATOM      9  C   UNL     1      -0.724  15.778  23.781  0.00  0.00    +0.000 A 
ATOM     10  C   UNL     1       0.160  16.152  22.759  0.00  0.00    +0.000 A 
ATOM     11  C   UNL     1       0.397  15.294  21.679  0.00  0.00    +0.000 A 
ATOM     12  C   UNL     1      -0.228  14.045  21.640  0.00  0.00    +0.000 A 
BRANCH   2  14
ATOM     13  C   UNL     1       2.524  13.278  20.412  0.00  0.00    +0.000 C 
ATOM     14  N   UNL     1       1.174  13.096  19.901  0.00  0.00    +0.000 N 
ATOM     15  C   UNL     1       0.974  13.567  18.526  0.00  0.00    +0.000 C 
ENDBRANCH   2  14
ENDBRANCH   1   3
BRANCH   1  16
ATOM     16  S   UNL     1       0.500   9.437  21.108  0.00  0.00    +0.000 S 
ATOM     17  O   UNL     1       1.396  10.101  22.019  0.00  0.00    +0.000 OA
ATOM     18  O   UNL     1      -0.425   8.449  21.619  0.00  0.00    +0.000 OA
BRANCH  16  19
ATOM     19  C   UNL     1       1.418   8.575  19.859  0.00  0.00    +0.000 A 
ATOM     20  C   UNL     1       1.711   9.187  18.644  0.00  0.00    +0.000 A 
ATOM     21  C   UNL     1       2.489   8.509  17.702  0.00  0.00    +0.000 A 
ATOM     22  C   UNL     1       2.980   7.232  17.982  0.00  0.00    +0.000 A 
ATOM     23  C   UNL     1       2.719   6.639  19.216  0.00  0.00    +0.000 A 
ATOM     24  C   UNL     1       1.951   7.316  20.165  0.00  0.00    +0.000 A 
ENDBRANCH  16  19
ENDBRANCH   1  16
BRANCH   1  25
ATOM     25  C   UNL     1      -1.336  10.077  19.208  0.00  0.00    +0.000 C 
BRANCH  25  26
ATOM     26  C   UNL     1      -1.988  11.107  18.272  0.00  0.00    +0.000 C 
BRANCH  26  27
ATOM     27  C   UNL     1      -2.904  10.513  17.243  0.00  0.00    +0.000 C 
ATOM     28  C   UNL     1      -3.977  11.385  16.634  0.00  0.00    +0.000 C 
ATOM     29  C   UNL     1      -2.815  10.935  15.801  0.00  0.00    +0.000 C 
ENDBRANCH  26  27
ENDBRANCH  25  26
ENDBRANCH   1  25
TORSDOF 7
ENDMDL
MODEL 3
REMARK VINA RESULT:      -6.3      1.932      2.887
REMARK  Name = 
REMARK  9 active torsions:
REMARK  status: ('A' for Active; 'I' for Inactive)
REMARK    1  A    between atoms: C_1  and  N_2
REMARK    2  A    between atoms: N_2  and  C_3
REMARK    3  A    between atoms: N_2  and  C_4
REMARK    4  A    between atoms: C_5  and  N_6
REMARK    5  A    between atoms: N_6  and  C_7
REMARK    6  A    between atoms: N_6  and  S_12
REMARK    7  A    between atoms: C_7  and  C_8
REMARK    8  A    between atoms: C_8  and  C_9
REMARK    9  A    between atoms: S_12  and  C_15
REMARK                            x       y       z     vdW  Elec       q    Type
REMARK                         _______ _______ _______ _____ _____    ______ ____
ROOT
ATOM      1  N   UNL     1      -0.364  10.842  19.910  0.00  0.00    +0.000 N 
ENDROOT
BRANCH   1   3
ATOM      2  C   UNL     1      -1.038  12.819  21.124  0.00  0.00    +0.000 C 
ATOM      3  C   UNL     1      -0.168  12.241  20.254  0.00  0.00    +0.000 C 
ATOM      4  S   UNL     1       0.825  13.468  19.451  0.00  0.00    +0.000 S 
ATOM      5  O   UNL     1       2.208  13.405  19.888  0.00  0.00    +0.000 OA
ATOM      6  O   UNL     1       0.439  13.705  18.077  0.00  0.00    +0.000 OA
ATOM      7  C   UNL     1       0.090  14.790  20.342  0.00  0.00    +0.000 A 
ATOM      8  C   UNL     1       0.280  16.149  20.120  0.00  0.00    +0.000 A 
ATOM      9  C   UNL     1      -0.506  17.042  20.851  0.00  0.00    +0.000 A 
ATOM     10  C   UNL     1      -1.426  16.566  21.795  0.00  0.00    +0.000 A 
ATOM     11  C   UNL     1      -1.590  15.190  21.992  0.00  0.00    +0.000 A 
ATOM     12  C   UNL     1      -0.854  14.290  21.219  0.00  0.00    +0.000 A 
BRANCH   2  14
ATOM     13  C   UNL     1      -3.532  12.719  21.416  0.00  0.00    +0.000 C 
ATOM     14  N   UNL     1      -2.174  12.327  21.761  0.00  0.00    +0.000 N 
ATOM     15  C   UNL     1      -2.027  11.754  23.104  0.00  0.00    +0.000 C 
ENDBRANCH   2  14
ENDBRANCH   1   3
BRANCH   1  16
ATOM     16  S   UNL     1       0.375   9.690  20.918  0.00  0.00    +0.000 S 
ATOM     17  O   UNL     1       1.238  10.356  21.859  0.00  0.00    +0.000 OA
ATOM     18  O   UNL     1      -0.669   8.817  21.410  0.00  0.00    +0.000 OA
BRANCH  16  19
ATOM     19  C   UNL     1       1.326   8.667  19.826  0.00  0.00    +0.000 A 
ATOM     20  C   UNL     1       1.683   9.122  18.559  0.00  0.00    +0.000 A 
ATOM     21  C   UNL     1       2.486   8.322  17.742  0.00  0.00    +0.000 A 
ATOM     22  C   UNL     1       2.938   7.080  18.198  0.00  0.00    +0.000 A 
ATOM     23  C   UNL     1       2.613   6.647  19.481  0.00  0.00    +0.000 A 
ATOM     24  C   UNL     1       1.819   7.448  20.306  0.00  0.00    +0.000 A 
ENDBRANCH  16  19
ENDBRANCH   1  16
BRANCH   1  25
ATOM     25  C   UNL     1      -1.602  10.408  19.195  0.00  0.00    +0.000 C 
BRANCH  25  26
ATOM     26  C   UNL     1      -1.571  10.417  17.659  0.00  0.00    +0.000 C 
BRANCH  26  27
ATOM     27  C   UNL     1      -2.857   9.993  17.013  0.00  0.00    +0.000 C 
ATOM     28  C   UNL     1      -3.585  10.977  16.127  0.00  0.00    +0.000 C 
ATOM     29  C   UNL     1      -2.932   9.768  15.526  0.00  0.00    +0.000 C 
ENDBRANCH  26  27
ENDBRANCH  25  26
ENDBRANCH   1  25
TORSDOF 7
ENDMDL
MODEL 4
REMARK VINA RESULT:      -6.1      2.223      4.414
REMARK  Name = 
REMARK  9 active torsions:
REMARK  status: ('A' for Active; 'I' for Inactive)
REMARK    1  A    between atoms: C_1  and  N_2
REMARK    2  A    between atoms: N_2  and  C_3
REMARK    3  A    between atoms: N_2  and  C_4
REMARK    4  A    between atoms: C_5  and  N_6
REMARK    5  A    between atoms: N_6  and  C_7
REMARK    6  A    between atoms: N_6  and  S_12
REMARK    7  A    between atoms: C_7  and  C_8
REMARK    8  A    between atoms: C_8  and  C_9
REMARK    9  A    between atoms: S_12  and  C_15
REMARK                            x       y       z     vdW  Elec       q    Type
REMARK                         _______ _______ _______ _____ _____    ______ ____
ROOT
ATOM      1  N   UNL     1       0.324  11.550  20.745  0.00  0.00    +0.000 N 
ENDROOT
BRANCH   1   3
ATOM      2  C   UNL     1      -1.883  12.482  21.060  0.00  0.00    +0.000 C 
ATOM      3  C   UNL     1      -0.978  11.920  20.215  0.00  0.00    +0.000 C 
ATOM      4  S   UNL     1      -1.753  11.439  18.697  0.00  0.00    +0.000 S 
ATOM      5  O   UNL     1      -1.321  12.271  17.590  0.00  0.00    +0.000 OA
ATOM      6  O   UNL     1      -1.947  10.009  18.584  0.00  0.00    +0.000 OA
ATOM      7  C   UNL     1      -3.323  12.052  19.187  0.00  0.00    +0.000 A 
ATOM      8  C   UNL     1      -4.528  11.882  18.516  0.00  0.00    +0.000 A 
ATOM      9  C   UNL     1      -5.690  12.332  19.145  0.00  0.00    +0.000 A 
ATOM     10  C   UNL     1      -5.620  12.962  20.396  0.00  0.00    +0.000 A 
ATOM     11  C   UNL     1      -4.388  13.116  21.041  0.00  0.00    +0.000 A 
ATOM     12  C   UNL     1      -3.230  12.611  20.448  0.00  0.00    +0.000 A 
BRANCH   2  14
ATOM     13  C   UNL     1      -1.046  13.832  23.007  0.00  0.00    +0.000 C 
ATOM     14  N   UNL     1      -1.829  12.754  22.425  0.00  0.00    +0.000 N 
ATOM     15  C   UNL     1      -2.185  11.683  23.363  0.00  0.00    +0.000 C 
ENDBRANCH   2  14
ENDBRANCH   1   3
BRANCH   1  16
ATOM     16  S   UNL     1       0.502   9.958  21.312  0.00  0.00    +0.000 S 
ATOM     17  O   UNL     1       1.360   9.952  22.468  0.00  0.00    +0.000 OA
ATOM     18  O   UNL     1      -0.824   9.387  21.411  0.00  0.00    +0.000 OA
BRANCH  16  19
ATOM     19  C   UNL     1       1.262   9.077  19.974  0.00  0.00    +0.000 A 
ATOM     20  C   UNL     1       1.406   9.672  18.723  0.00  0.00    +0.000 A 
ATOM     21  C   UNL     1       2.065   8.980  17.704  0.00  0.00    +0.000 A 
ATOM     22  C   UNL     1       2.587   7.705  17.942  0.00  0.00    +0.000 A 
ATOM     23  C   UNL     1       2.476   7.130  19.206  0.00  0.00    +0.000 A 
ATOM     24  C   UNL     1       1.828   7.822  20.231  0.00  0.00    +0.000 A 
ENDBRANCH  16  19
ENDBRANCH   1  16
BRANCH   1  25
ATOM     25  C   UNL     1       1.561  12.222  20.242  0.00  0.00    +0.000 C 
BRANCH  25  26
ATOM     26  C   UNL     1       1.589  13.759  20.263  0.00  0.00    +0.000 C 
BRANCH  26  27
ATOM     27  C   UNL     1       1.391  14.399  18.921  0.00  0.00    +0.000 C 
ATOM     28  C   UNL     1       0.656  15.717  18.846  0.00  0.00    +0.000 C 
ATOM     29  C   UNL     1       2.127  15.661  18.556  0.00  0.00    +0.000 C 
ENDBRANCH  26  27
ENDBRANCH  25  26
ENDBRANCH   1  25
TORSDOF 7
ENDMDL
MODEL 5
REMARK VINA RESULT:      -6.1      2.249      4.278
REMARK  Name = 
REMARK  9 active torsions:
REMARK  status: ('A' for Active; 'I' for Inactive)
REMARK    1  A    between atoms: C_1  and  N_2
REMARK    2  A    between atoms: N_2  and  C_3
REMARK    3  A    between atoms: N_2  and  C_4
REMARK    4  A    between atoms: C_5  and  N_6
REMARK    5  A    between atoms: N_6  and  C_7
REMARK    6  A    between atoms: N_6  and  S_12
REMARK    7  A    between atoms: C_7  and  C_8
REMARK    8  A    between atoms: C_8  and  C_9
REMARK    9  A    between atoms: S_12  and  C_15
REMARK                            x       y       z     vdW  Elec       q    Type
REMARK                         _______ _______ _______ _____ _____    ______ ____
ROOT
ATOM      1  N   UNL     1       0.252  11.535  20.509  0.00  0.00    +0.000 N 
ENDROOT
BRANCH   1   3
ATOM      2  C   UNL     1      -1.939  12.494  20.854  0.00  0.00    +0.000 C 
ATOM      3  C   UNL     1      -1.065  11.890  20.006  0.00  0.00    +0.000 C 
ATOM      4  S   UNL     1      -1.892  11.348  18.536  0.00  0.00    +0.000 S 
ATOM      5  O   UNL     1      -1.492  12.128  17.380  0.00  0.00    +0.000 OA
ATOM      6  O   UNL     1      -2.097   9.916  18.493  0.00  0.00    +0.000 OA
ATOM      7  C   UNL     1      -3.442  11.992  19.050  0.00  0.00    +0.000 A 
ATOM      8  C   UNL     1      -4.669  11.800  18.427  0.00  0.00    +0.000 A 
ATOM      9  C   UNL     1      -5.808  12.286  19.074  0.00  0.00    +0.000 A 
ATOM     10  C   UNL     1      -5.693  12.969  20.292  0.00  0.00    +0.000 A 
ATOM     11  C   UNL     1      -4.440  13.143  20.890  0.00  0.00    +0.000 A 
ATOM     12  C   UNL     1      -3.304  12.605  20.282  0.00  0.00    +0.000 A 
BRANCH   2  14
ATOM     13  C   UNL     1      -0.986  13.884  22.718  0.00  0.00    +0.000 C 
ATOM     14  N   UNL     1      -1.839  12.825  22.203  0.00  0.00    +0.000 N 
ATOM     15  C   UNL     1      -2.230  11.819  23.199  0.00  0.00    +0.000 C 
ENDBRANCH   2  14
ENDBRANCH   1   3
BRANCH   1  16
ATOM     16  S   UNL     1       0.423   9.991  21.199  0.00  0.00    +0.000 S 
ATOM     17  O   UNL     1       1.194  10.089  22.412  0.00  0.00    +0.000 OA
ATOM     18  O   UNL     1      -0.893   9.391  21.243  0.00  0.00    +0.000 OA
BRANCH  16  19
ATOM     19  C   UNL     1       1.300   9.041  19.985  0.00  0.00    +0.000 A 
ATOM     20  C   UNL     1       1.842   7.801  20.310  0.00  0.00    +0.000 A 
ATOM     21  C   UNL     1       2.473   7.045  19.320  0.00  0.00    +0.000 A 
ATOM     22  C   UNL     1       2.548   7.523  18.009  0.00  0.00    +0.000 A 
ATOM     23  C   UNL     1       1.968   8.746  17.678  0.00  0.00    +0.000 A 
ATOM     24  C   UNL     1       1.327   9.501  18.662  0.00  0.00    +0.000 A 
ENDBRANCH  16  19
ENDBRANCH   1  16
BRANCH   1  25
ATOM     25  C   UNL     1       1.477  12.134  19.899  0.00  0.00    +0.000 C 
BRANCH  25  26
ATOM     26  C   UNL     1       1.281  13.296  18.912  0.00  0.00    +0.000 C 
BRANCH  26  27
ATOM     27  C   UNL     1       1.004  14.618  19.563  0.00  0.00    +0.000 C 
ATOM     28  C   UNL     1       1.230  15.882  18.766  0.00  0.00    +0.000 C 
ATOM     29  C   UNL     1      -0.164  15.461  19.125  0.00  0.00    +0.000 C 
ENDBRANCH  26  27
ENDBRANCH  25  26
ENDBRANCH   1  25
TORSDOF 7
ENDMDL
MODEL 6
REMARK VINA RESULT:      -6.0      2.882      4.059
REMARK  Name = 
REMARK  9 active torsions:
REMARK  status: ('A' for Active; 'I' for Inactive)
REMARK    1  A    between atoms: C_1  and  N_2
REMARK    2  A    between atoms: N_2  and  C_3
REMARK    3  A    between atoms: N_2  and  C_4
REMARK    4  A    between atoms: C_5  and  N_6
REMARK    5  A    between atoms: N_6  and  C_7
REMARK    6  A    between atoms: N_6  and  S_12
REMARK    7  A    between atoms: C_7  and  C_8
REMARK    8  A    between atoms: C_8  and  C_9
REMARK    9  A    between atoms: S_12  and  C_15
REMARK                            x       y       z     vdW  Elec       q    Type
REMARK                         _______ _______ _______ _____ _____    ______ ____
ROOT
ATOM      1  N   UNL     1      -1.540  13.491  20.896  0.00  0.00    +0.000 N 
ENDROOT
BRANCH   1   3
ATOM      2  C   UNL     1      -3.170  15.130  21.598  0.00  0.00    +0.000 C 
ATOM      3  C   UNL     1      -2.868  13.822  21.386  0.00  0.00    +0.000 C 
ATOM      4  S   UNL     1      -4.094  12.770  22.112  0.00  0.00    +0.000 S 
ATOM      5  O   UNL     1      -4.885  12.094  21.100  0.00  0.00    +0.000 OA
ATOM      6  O   UNL     1      -3.644  12.124  23.327  0.00  0.00    +0.000 OA
ATOM      7  C   UNL     1      -5.066  14.120  22.673  0.00  0.00    +0.000 A 
ATOM      8  C   UNL     1      -6.176  14.055  23.505  0.00  0.00    +0.000 A 
ATOM      9  C   UNL     1      -6.728  15.259  23.947  0.00  0.00    +0.000 A 
ATOM     10  C   UNL     1      -6.186  16.482  23.527  0.00  0.00    +0.000 A 
ATOM     11  C   UNL     1      -5.066  16.508  22.688  0.00  0.00    +0.000 A 
ATOM     12  C   UNL     1      -4.470  15.309  22.295  0.00  0.00    +0.000 A 
BRANCH   2  14
ATOM     13  C   UNL     1      -2.117  16.938  20.207  0.00  0.00    +0.000 C 
ATOM     14  N   UNL     1      -2.406  16.288  21.475  0.00  0.00    +0.000 N 
ATOM     15  C   UNL     1      -1.481  16.631  22.562  0.00  0.00    +0.000 C 
ENDBRANCH   2  14
ENDBRANCH   1   3
BRANCH   1  16
ATOM     16  S   UNL     1      -0.380  13.046  22.056  0.00  0.00    +0.000 S 
ATOM     17  O   UNL     1       0.846  13.760  21.810  0.00  0.00    +0.000 OA
ATOM     18  O   UNL     1      -1.010  13.146  23.354  0.00  0.00    +0.000 OA
BRANCH  16  19
ATOM     19  C   UNL     1      -0.139  11.305  21.816  0.00  0.00    +0.000 A 
ATOM     20  C   UNL     1       0.769  10.838  20.870  0.00  0.00    +0.000 A 
ATOM     21  C   UNL     1       0.986   9.463  20.745  0.00  0.00    +0.000 A 
ATOM     22  C   UNL     1       0.308   8.565  21.573  0.00  0.00    +0.000 A 
ATOM     23  C   UNL     1      -0.569   9.038  22.547  0.00  0.00    +0.000 A 
ATOM     24  C   UNL     1      -0.782  10.412  22.683  0.00  0.00    +0.000 A 
ENDBRANCH  16  19
ENDBRANCH   1  16
BRANCH   1  25
ATOM     25  C   UNL     1      -1.361  12.931  19.523  0.00  0.00    +0.000 C 
BRANCH  25  26
ATOM     26  C   UNL     1      -2.497  12.061  18.960  0.00  0.00    +0.000 C 
BRANCH  26  27
ATOM     27  C   UNL     1      -2.142  10.613  18.797  0.00  0.00    +0.000 C 
ATOM     28  C   UNL     1      -2.683   9.863  17.602  0.00  0.00    +0.000 C 
ATOM     29  C   UNL     1      -1.218  10.169  17.695  0.00  0.00    +0.000 C 
ENDBRANCH  26  27
ENDBRANCH  25  26
ENDBRANCH   1  25
TORSDOF 7
ENDMDL
MODEL 7
REMARK VINA RESULT:      -5.9      3.279      6.857
REMARK  Name = 
REMARK  9 active torsions:
REMARK  status: ('A' for Active; 'I' for Inactive)
REMARK    1  A    between atoms: C_1  and  N_2
REMARK    2  A    between atoms: N_2  and  C_3
REMARK    3  A    between atoms: N_2  and  C_4
REMARK    4  A    between atoms: C_5  and  N_6
REMARK    5  A    between atoms: N_6  and  C_7
REMARK    6  A    between atoms: N_6  and  S_12
REMARK    7  A    between atoms: C_7  and  C_8
REMARK    8  A    between atoms: C_8  and  C_9
REMARK    9  A    between atoms: S_12  and  C_15
REMARK                            x       y       z     vdW  Elec       q    Type
REMARK                         _______ _______ _______ _____ _____    ______ ____
ROOT
ATOM      1  N   UNL     1      -3.561  14.042  20.872  0.00  0.00    +0.000 N 
ENDROOT
BRANCH   1   3
ATOM      2  C   UNL     1      -1.907  12.335  20.441  0.00  0.00    +0.000 C 
ATOM      3  C   UNL     1      -2.549  13.114  21.350  0.00  0.00    +0.000 C 
ATOM      4  S   UNL     1      -2.233  12.546  22.998  0.00  0.00    +0.000 S 
ATOM      5  O   UNL     1      -1.398  13.478  23.733  0.00  0.00    +0.000 OA
ATOM      6  O   UNL     1      -3.359  11.856  23.589  0.00  0.00    +0.000 OA
ATOM      7  C   UNL     1      -1.170  11.258  22.457  0.00  0.00    +0.000 A 
ATOM      8  C   UNL     1      -0.630  10.244  23.238  0.00  0.00    +0.000 A 
ATOM      9  C   UNL     1       0.083   9.234  22.589  0.00  0.00    +0.000 A 
ATOM     10  C   UNL     1       0.264   9.276  21.199  0.00  0.00    +0.000 A 
ATOM     11  C   UNL     1      -0.295  10.314  20.445  0.00  0.00    +0.000 A 
ATOM     12  C   UNL     1      -1.063  11.293  21.079  0.00  0.00    +0.000 A 
BRANCH   2  14
ATOM     13  C   UNL     1      -2.932  11.227  18.432  0.00  0.00    +0.000 C 
ATOM     14  N   UNL     1      -2.059  12.204  19.063  0.00  0.00    +0.000 N 
ATOM     15  C   UNL     1      -1.000  12.728  18.192  0.00  0.00    +0.000 C 
ENDBRANCH   2  14
ENDBRANCH   1   3
BRANCH   1  16
ATOM     16  S   UNL     1      -5.179  13.530  20.959  0.00  0.00    +0.000 S 
ATOM     17  O   UNL     1      -5.223  12.104  21.151  0.00  0.00    +0.000 OA
ATOM     18  O   UNL     1      -5.853  14.393  21.905  0.00  0.00    +0.000 OA
BRANCH  16  19
ATOM     19  C   UNL     1      -5.882  13.964  19.390  0.00  0.00    +0.000 A 
ATOM     20  C   UNL     1      -6.089  12.994  18.412  0.00  0.00    +0.000 A 
ATOM     21  C   UNL     1      -6.702  13.351  17.209  0.00  0.00    +0.000 A 
ATOM     22  C   UNL     1      -7.117  14.667  16.992  0.00  0.00    +0.000 A 
ATOM     23  C   UNL     1      -6.946  15.626  17.989  0.00  0.00    +0.000 A 
ATOM     24  C   UNL     1      -6.343  15.272  19.198  0.00  0.00    +0.000 A 
ENDBRANCH  16  19
ENDBRANCH   1  16
BRANCH   1  25
ATOM     25  C   UNL     1      -3.322  15.516  20.935  0.00  0.00    +0.000 C 
BRANCH  25  26
ATOM     26  C   UNL     1      -1.966  16.035  20.431  0.00  0.00    +0.000 C 
BRANCH  26  27
ATOM     27  C   UNL     1      -1.963  17.486  20.051  0.00  0.00    +0.000 C 
ATOM     28  C   UNL     1      -1.629  17.863  18.626  0.00  0.00    +0.000 C 
ATOM     29  C   UNL     1      -3.025  18.044  19.142  0.00  0.00    +0.000 C 
ENDBRANCH  26  27
ENDBRANCH  25  26
ENDBRANCH   1  25
TORSDOF 7
ENDMDL
MODEL 8
REMARK VINA RESULT:      -5.9      1.031      1.120
REMARK  Name = 
REMARK  9 active torsions:
REMARK  status: ('A' for Active; 'I' for Inactive)
REMARK    1  A    between atoms: C_1  and  N_2
REMARK    2  A    between atoms: N_2  and  C_3
REMARK    3  A    between atoms: N_2  and  C_4
REMARK    4  A    between atoms: C_5  and  N_6
REMARK    5  A    between atoms: N_6  and  C_7
REMARK    6  A    between atoms: N_6  and  S_12
REMARK    7  A    between atoms: C_7  and  C_8
REMARK    8  A    between atoms: C_8  and  C_9
REMARK    9  A    between atoms: S_12  and  C_15
REMARK                            x       y       z     vdW  Elec       q    Type
REMARK                         _______ _______ _______ _____ _____    ______ ____
ROOT
ATOM      1  N   UNL     1      -0.074  10.944  19.533  0.00  0.00    +0.000 N 
ENDROOT
BRANCH   1   3
ATOM      2  C   UNL     1       0.132  13.316  19.945  0.00  0.00    +0.000 C 
ATOM      3  C   UNL     1      -0.635  12.196  20.017  0.00  0.00    +0.000 C 
ATOM      4  S   UNL     1      -2.055  12.473  21.037  0.00  0.00    +0.000 S 
ATOM      5  O   UNL     1      -3.278  12.492  20.256  0.00  0.00    +0.000 OA
ATOM      6  O   UNL     1      -1.956  11.843  22.336  0.00  0.00    +0.000 OA
ATOM      7  C   UNL     1      -1.639  14.152  21.336  0.00  0.00    +0.000 A 
ATOM      8  C   UNL     1      -2.260  15.016  22.229  0.00  0.00    +0.000 A 
ATOM      9  C   UNL     1      -1.688  16.275  22.419  0.00  0.00    +0.000 A 
ATOM     10  C   UNL     1      -0.544  16.648  21.700  0.00  0.00    +0.000 A 
ATOM     11  C   UNL     1       0.056  15.751  20.809  0.00  0.00    +0.000 A 
ATOM     12  C   UNL     1      -0.473  14.467  20.662  0.00  0.00    +0.000 A 
BRANCH   2  14
ATOM     13  C   UNL     1       1.866  13.405  18.128  0.00  0.00    +0.000 C 
ATOM     14  N   UNL     1       1.441  13.515  19.515  0.00  0.00    +0.000 N 
ATOM     15  C   UNL     1       2.525  13.385  20.497  0.00  0.00    +0.000 C 
ENDBRANCH   2  14
ENDBRANCH   1   3
BRANCH   1  16
ATOM     16  S   UNL     1       0.451   9.832  20.705  0.00  0.00    +0.000 S 
ATOM     17  O   UNL     1       1.208  10.521  21.719  0.00  0.00    +0.000 OA
ATOM     18  O   UNL     1      -0.697   9.042  21.094  0.00  0.00    +0.000 OA
BRANCH  16  19
ATOM     19  C   UNL     1       1.491   8.696  19.825  0.00  0.00    +0.000 A 
ATOM     20  C   UNL     1       1.764   7.435  20.347  0.00  0.00    +0.000 A 
ATOM     21  C   UNL     1       2.534   6.536  19.604  0.00  0.00    +0.000 A 
ATOM     22  C   UNL     1       3.015   6.895  18.342  0.00  0.00    +0.000 A 
ATOM     23  C   UNL     1       2.705   8.143  17.806  0.00  0.00    +0.000 A 
ATOM     24  C   UNL     1       1.926   9.041  18.540  0.00  0.00    +0.000 A 
ENDBRANCH  16  19
ENDBRANCH   1  16
BRANCH   1  25
ATOM     25  C   UNL     1      -0.518  10.377  18.224  0.00  0.00    +0.000 C 
BRANCH  25  26
ATOM     26  C   UNL     1      -2.030  10.246  17.986  0.00  0.00    +0.000 C 
BRANCH  26  27
ATOM     27  C   UNL     1      -2.544  11.050  16.828  0.00  0.00    +0.000 C 
ATOM     28  C   UNL     1      -3.089  10.320  15.621  0.00  0.00    +0.000 C 
ATOM     29  C   UNL     1      -4.016  11.089  16.514  0.00  0.00    +0.000 C 
ENDBRANCH  26  27
ENDBRANCH  25  26
ENDBRANCH   1  25
TORSDOF 7
ENDMDL
MODEL 9
REMARK VINA RESULT:      -5.8      3.050      5.870
REMARK  Name = 
REMARK  9 active torsions:
REMARK  status: ('A' for Active; 'I' for Inactive)
REMARK    1  A    between atoms: C_1  and  N_2
REMARK    2  A    between atoms: N_2  and  C_3
REMARK    3  A    between atoms: N_2  and  C_4
REMARK    4  A    between atoms: C_5  and  N_6
REMARK    5  A    between atoms: N_6  and  C_7
REMARK    6  A    between atoms: N_6  and  S_12
REMARK    7  A    between atoms: C_7  and  C_8
REMARK    8  A    between atoms: C_8  and  C_9
REMARK    9  A    between atoms: S_12  and  C_15
REMARK                            x       y       z     vdW  Elec       q    Type
REMARK                         _______ _______ _______ _____ _____    ______ ____
ROOT
ATOM      1  N   UNL     1      -1.349  13.197  21.645  0.00  0.00    +0.000 N 
ENDROOT
BRANCH   1   3
ATOM      2  C   UNL     1      -2.289  12.186  19.661  0.00  0.00    +0.000 C 
ATOM      3  C   UNL     1      -2.501  12.739  20.885  0.00  0.00    +0.000 C 
ATOM      4  S   UNL     1      -4.219  13.097  21.121  0.00  0.00    +0.000 S 
ATOM      5  O   UNL     1      -4.815  12.224  22.115  0.00  0.00    +0.000 OA
ATOM      6  O   UNL     1      -4.526  14.508  21.021  0.00  0.00    +0.000 OA
ATOM      7  C   UNL     1      -4.674  12.443  19.557  0.00  0.00    +0.000 A 
ATOM      8  C   UNL     1      -5.924  12.521  18.956  0.00  0.00    +0.000 A 
ATOM      9  C   UNL     1      -6.044  12.055  17.645  0.00  0.00    +0.000 A 
ATOM     10  C   UNL     1      -4.937  11.502  16.986  0.00  0.00    +0.000 A 
ATOM     11  C   UNL     1      -3.693  11.440  17.624  0.00  0.00    +0.000 A 
ATOM     12  C   UNL     1      -3.550  11.962  18.911  0.00  0.00    +0.000 A 
BRANCH   2  14
ATOM     13  C   UNL     1      -0.560  12.991  18.024  0.00  0.00    +0.000 C 
ATOM     14  N   UNL     1      -1.124  11.995  18.922  0.00  0.00    +0.000 N 
ATOM     15  C   UNL     1      -0.680  10.620  18.664  0.00  0.00    +0.000 C 
ENDBRANCH   2  14
ENDBRANCH   1   3
BRANCH   1  16
ATOM     16  S   UNL     1      -0.943  14.841  21.514  0.00  0.00    +0.000 S 
ATOM     17  O   UNL     1      -1.645  15.423  20.398  0.00  0.00    +0.000 OA
ATOM     18  O   UNL     1      -1.093  15.427  22.828  0.00  0.00    +0.000 OA
BRANCH  16  19
ATOM     19  C   UNL     1       0.805  14.860  21.220  0.00  0.00    +0.000 A 
ATOM     20  C   UNL     1       1.505  13.673  21.021  0.00  0.00    +0.000 A 
ATOM     21  C   UNL     1       2.870  13.719  20.729  0.00  0.00    +0.000 A 
ATOM     22  C   UNL     1       3.527  14.949  20.624  0.00  0.00    +0.000 A 
ATOM     23  C   UNL     1       2.815  16.136  20.783  0.00  0.00    +0.000 A 
ATOM     24  C   UNL     1       1.447  16.095  21.064  0.00  0.00    +0.000 A 
ENDBRANCH  16  19
ENDBRANCH   1  16
BRANCH   1  25
ATOM     25  C   UNL     1      -0.966  12.513  22.918  0.00  0.00    +0.000 C 
BRANCH  25  26
ATOM     26  C   UNL     1      -1.526  11.102  23.159  0.00  0.00    +0.000 C 
BRANCH  26  27
ATOM     27  C   UNL     1      -0.491  10.017  23.151  0.00  0.00    +0.000 C 
ATOM     28  C   UNL     1      -0.543   8.970  22.063  0.00  0.00    +0.000 C 
ATOM     29  C   UNL     1       0.570   9.975  22.083  0.00  0.00    +0.000 C 
ENDBRANCH  26  27
ENDBRANCH  25  26
ENDBRANCH   1  25
TORSDOF 7
ENDMDL
