MODEL 1
REMARK VINA RESULT:      -6.1      0.000      0.000
REMARK  Name = 
REMARK  6 active torsions:
REMARK  status: ('A' for Active; 'I' for Inactive)
REMARK    1  A    between atoms: C_1  and  C_2
REMARK    2  A    between atoms: C_8  and  C_9
REMARK    3  A    between atoms: N_11  and  C_12
REMARK    4  A    between atoms: C_12  and  C_13
REMARK    5  A    between atoms: C_13  and  C_14
REMARK    6  A    between atoms: C_14  and  O_15
REMARK                            x       y       z     vdW  Elec       q    Type
REMARK                         _______ _______ _______ _____ _____    ______ ____
ROOT
ATOM      1  C   UNL     1       3.313   6.328  18.069  0.00  0.00    +0.000 C 
ATOM      2  O   UNL     1       4.514   6.471  17.833  0.00  0.00    +0.000 OA
ATOM      3  N   UNL     1       2.662   5.142  17.832  0.00  0.00    +0.000 N 
ATOM      4  H   UNL     1       1.656   5.103  17.851  0.00  0.00    +0.000 HD
ENDROOT
BRANCH   1  12
ATOM      5  C   UNL     1       1.936   6.496  20.820  0.00  0.00    +0.000 C 
ATOM      6  C   UNL     1       1.867   7.609  19.808  0.00  0.00    +0.000 A 
ATOM      7  C   UNL     1       1.162   8.808  20.075  0.00  0.00    +0.000 A 
ATOM      8  I   UNL     1       0.084   9.170  21.857  0.00  0.00    +0.000 I 
ATOM      9  C   UNL     1       1.138   9.865  19.151  0.00  0.00    +0.000 A 
ATOM     10  C   UNL     1       1.798   9.751  17.935  0.00  0.00    +0.000 A 
ATOM     11  C   UNL     1       2.475   8.576  17.637  0.00  0.00    +0.000 A 
ATOM     12  C   UNL     1       2.512   7.499  18.547  0.00  0.00    +0.000 A 
ENDBRANCH   1  12
BRANCH   3  13
ATOM     13  C   UNL     1       3.365   3.970  17.355  0.00  0.00    +0.000 C 
BRANCH  13  14
ATOM     14  C   UNL     1       3.553   2.993  18.488  0.00  0.00    +0.000 C 
ATOM     15  C   UNL     1       2.302   2.340  19.042  0.00  0.00    +0.000 C 
ATOM     16  C   UNL     1       3.265   1.525  18.228  0.00  0.00    +0.000 C 
BRANCH  14  17
ATOM     17  C   UNL     1       4.681   3.315  19.443  0.00  0.00    +0.000 C 
BRANCH  17  18
ATOM     18  O   UNL     1       5.802   3.818  18.733  0.00  0.00    +0.000 OA
ATOM     19  H   UNL     1       5.538   4.680  18.361  0.00  0.00    +0.000 HD
ENDBRANCH  17  18
ENDBRANCH  14  17
ENDBRANCH  13  14
ENDBRANCH   3  13
TORSDOF 5
ENDMDL
MODEL 2
REMARK VINA RESULT:      -5.9      3.719      5.030
REMARK  Name = 
REMARK  6 active torsions:
REMARK  status: ('A' for Active; 'I' for Inactive)
REMARK    1  A    between atoms: C_1  and  C_2
REMARK    2  A    between atoms: C_8  and  C_9
REMARK    3  A    between atoms: N_11  and  C_12
REMARK    4  A    between atoms: C_12  and  C_13
REMARK    5  A    between atoms: C_13  and  C_14
REMARK    6  A    between atoms: C_14  and  O_15
REMARK                            x       y       z     vdW  Elec       q    Type
REMARK                         _______ _______ _______ _____ _____    ______ ____
ROOT
ATOM      1  C   UNL     1       3.531   3.464  17.339  0.00  0.00    +0.000 C 
ATOM      2  O   UNL     1       2.488   3.458  16.684  0.00  0.00    +0.000 OA
ATOM      3  N   UNL     1       3.617   2.870  18.575  0.00  0.00    +0.000 N 
ATOM      4  H   UNL     1       4.410   3.048  19.170  0.00  0.00    +0.000 HD
ENDROOT
BRANCH   1  12
ATOM      5  C   UNL     1       4.776   5.928  18.708  0.00  0.00    +0.000 C 
ATOM      6  C   UNL     1       5.320   5.348  17.429  0.00  0.00    +0.000 A 
ATOM      7  C   UNL     1       6.450   5.907  16.785  0.00  0.00    +0.000 A 
ATOM      8  I   UNL     1       7.468   7.627  17.475  0.00  0.00    +0.000 I 
ATOM      9  C   UNL     1       6.987   5.338  15.620  0.00  0.00    +0.000 A 
ATOM     10  C   UNL     1       6.406   4.210  15.057  0.00  0.00    +0.000 A 
ATOM     11  C   UNL     1       5.281   3.656  15.653  0.00  0.00    +0.000 A 
ATOM     12  C   UNL     1       4.722   4.211  16.823  0.00  0.00    +0.000 A 
ENDBRANCH   1  12
BRANCH   3  13
ATOM     13  C   UNL     1       2.504   2.143  19.149  0.00  0.00    +0.000 C 
BRANCH  13  14
ATOM     14  C   UNL     1       1.897   2.947  20.272  0.00  0.00    +0.000 C 
ATOM     15  C   UNL     1       1.441   4.353  19.936  0.00  0.00    +0.000 C 
ATOM     16  C   UNL     1       0.419   3.284  20.197  0.00  0.00    +0.000 C 
BRANCH  14  17
ATOM     17  C   UNL     1       2.476   2.686  21.644  0.00  0.00    +0.000 C 
BRANCH  17  18
ATOM     18  O   UNL     1       3.739   2.048  21.536  0.00  0.00    +0.000 OA
ATOM     19  H   UNL     1       3.618   1.128  21.839  0.00  0.00    +0.000 HD
ENDBRANCH  17  18
ENDBRANCH  14  17
ENDBRANCH  13  14
ENDBRANCH   3  13
TORSDOF 5
ENDMDL
MODEL 3
REMARK VINA RESULT:      -5.8      2.013      2.541
REMARK  Name = 
REMARK  6 active torsions:
REMARK  status: ('A' for Active; 'I' for Inactive)
REMARK    1  A    between atoms: C_1  and  C_2
REMARK    2  A    between atoms: C_8  and  C_9
REMARK    3  A    between atoms: N_11  and  C_12
REMARK    4  A    between atoms: C_12  and  C_13
REMARK    5  A    between atoms: C_13  and  C_14
REMARK    6  A    between atoms: C_14  and  O_15
REMARK                            x       y       z     vdW  Elec       q    Type
REMARK                         _______ _______ _______ _____ _____    ______ ____
ROOT
ATOM      1  C   UNL     1       2.829   5.794  17.977  0.00  0.00    +0.000 C 
ATOM      2  O   UNL     1       2.035   4.889  17.715  0.00  0.00    +0.000 OA
ATOM      3  N   UNL     1       4.188   5.620  17.878  0.00  0.00    +0.000 N 
ATOM      4  H   UNL     1       4.817   6.300  18.275  0.00  0.00    +0.000 HD
ENDROOT
BRANCH   1  12
ATOM      5  C   UNL     1       1.802   6.240  20.847  0.00  0.00    +0.000 C 
ATOM      6  C   UNL     1       1.834   7.338  19.816  0.00  0.00    +0.000 A 
ATOM      7  C   UNL     1       1.395   8.649  20.119  0.00  0.00    +0.000 A 
ATOM      8  I   UNL     1       0.595   9.221  21.990  0.00  0.00    +0.000 I 
ATOM      9  C   UNL     1       1.469   9.684  19.174  0.00  0.00    +0.000 A 
ATOM     10  C   UNL     1       1.966   9.438  17.901  0.00  0.00    +0.000 A 
ATOM     11  C   UNL     1       2.379   8.155  17.569  0.00  0.00    +0.000 A 
ATOM     12  C   UNL     1       2.312   7.098  18.500  0.00  0.00    +0.000 A 
ENDBRANCH   1  12
BRANCH   3  13
ATOM     13  C   UNL     1       4.764   4.383  17.396  0.00  0.00    +0.000 C 
BRANCH  13  14
ATOM     14  C   UNL     1       5.930   4.685  16.489  0.00  0.00    +0.000 C 
ATOM     15  C   UNL     1       6.086   3.808  15.262  0.00  0.00    +0.000 C 
ATOM     16  C   UNL     1       5.641   5.234  15.104  0.00  0.00    +0.000 C 
BRANCH  14  17
ATOM     17  C   UNL     1       7.179   5.184  17.181  0.00  0.00    +0.000 C 
BRANCH  17  18
ATOM     18  O   UNL     1       8.119   4.130  17.326  0.00  0.00    +0.000 OA
ATOM     19  H   UNL     1       7.915   3.472  16.635  0.00  0.00    +0.000 HD
ENDBRANCH  17  18
ENDBRANCH  14  17
ENDBRANCH  13  14
ENDBRANCH   3  13
TORSDOF 5
ENDMDL
MODEL 4
REMARK VINA RESULT:      -5.8      3.911      5.217
REMARK  Name = 
REMARK  6 active torsions:
REMARK  status: ('A' for Active; 'I' for Inactive)
REMARK    1  A    between atoms: C_1  and  C_2
REMARK    2  A    between atoms: C_8  and  C_9
REMARK    3  A    between atoms: N_11  and  C_12
REMARK    4  A    between atoms: C_12  and  C_13
REMARK    5  A    between atoms: C_13  and  C_14
REMARK    6  A    between atoms: C_14  and  O_15
REMARK                            x       y       z     vdW  Elec       q    Type
REMARK                         _______ _______ _______ _____ _____    ______ ____
ROOT
ATOM      1  C   UNL     1       3.673   3.186  17.517  0.00  0.00    +0.000 C 
ATOM      2  O   UNL     1       2.625   3.079  16.880  0.00  0.00    +0.000 OA
ATOM      3  N   UNL     1       3.825   2.633  18.765  0.00  0.00    +0.000 N 
ATOM      4  H   UNL     1       4.610   2.891  19.342  0.00  0.00    +0.000 HD
ENDROOT
BRANCH   1  12
ATOM      5  C   UNL     1       4.932   5.607  18.947  0.00  0.00    +0.000 C 
ATOM      6  C   UNL     1       5.394   5.133  17.595  0.00  0.00    +0.000 A 
ATOM      7  C   UNL     1       6.448   5.779  16.905  0.00  0.00    +0.000 A 
ATOM      8  I   UNL     1       7.453   7.493  17.628  0.00  0.00    +0.000 I 
ATOM      9  C   UNL     1       6.912   5.308  15.667  0.00  0.00    +0.000 A 
ATOM     10  C   UNL     1       6.329   4.195  15.076  0.00  0.00    +0.000 A 
ATOM     11  C   UNL     1       5.276   3.558  15.718  0.00  0.00    +0.000 A 
ATOM     12  C   UNL     1       4.791   4.013  16.961  0.00  0.00    +0.000 A 
ENDBRANCH   1  12
BRANCH   3  13
ATOM     13  C   UNL     1       2.784   1.834  19.375  0.00  0.00    +0.000 C 
BRANCH  13  14
ATOM     14  C   UNL     1       1.812   2.732  20.099  0.00  0.00    +0.000 C 
ATOM     15  C   UNL     1       1.785   2.631  21.612  0.00  0.00    +0.000 C 
ATOM     16  C   UNL     1       2.371   3.851  20.960  0.00  0.00    +0.000 C 
BRANCH  14  17
ATOM     17  C   UNL     1       0.514   3.005  19.373  0.00  0.00    +0.000 C 
BRANCH  17  18
ATOM     18  O   UNL     1       0.281   2.011  18.387  0.00  0.00    +0.000 OA
ATOM     19  H   UNL     1       0.601   2.373  17.539  0.00  0.00    +0.000 HD
ENDBRANCH  17  18
ENDBRANCH  14  17
ENDBRANCH  13  14
ENDBRANCH   3  13
TORSDOF 5
ENDMDL
MODEL 5
REMARK VINA RESULT:      -5.8      2.273      2.884
REMARK  Name = 
REMARK  6 active torsions:
REMARK  status: ('A' for Active; 'I' for Inactive)
REMARK    1  A    between atoms: C_1  and  C_2
REMARK    2  A    between atoms: C_8  and  C_9
REMARK    3  A    between atoms: N_11  and  C_12
REMARK    4  A    between atoms: C_12  and  C_13
REMARK    5  A    between atoms: C_13  and  C_14
REMARK    6  A    between atoms: C_14  and  O_15
REMARK                            x       y       z     vdW  Elec       q    Type
REMARK                         _______ _______ _______ _____ _____    ______ ____
ROOT
ATOM      1  C   UNL     1       3.211   5.842  18.056  0.00  0.00    +0.000 C 
ATOM      2  O   UNL     1       2.540   4.933  17.567  0.00  0.00    +0.000 OA
ATOM      3  N   UNL     1       4.562   5.714  18.269  0.00  0.00    +0.000 N 
ATOM      4  H   UNL     1       5.052   6.386  18.839  0.00  0.00    +0.000 HD
ENDROOT
BRANCH   1  12
ATOM      5  C   UNL     1       1.876   6.195  20.811  0.00  0.00    +0.000 C 
ATOM      6  C   UNL     1       1.908   7.290  19.778  0.00  0.00    +0.000 A 
ATOM      7  C   UNL     1       1.326   8.556  20.025  0.00  0.00    +0.000 A 
ATOM      8  I   UNL     1       0.301   9.055  21.806  0.00  0.00    +0.000 I 
ATOM      9  C   UNL     1       1.398   9.593  19.082  0.00  0.00    +0.000 A 
ATOM     10  C   UNL     1       2.035   9.393  17.865  0.00  0.00    +0.000 A 
ATOM     11  C   UNL     1       2.593   8.153  17.586  0.00  0.00    +0.000 A 
ATOM     12  C   UNL     1       2.531   7.094  18.516  0.00  0.00    +0.000 A 
ENDBRANCH   1  12
BRANCH   3  13
ATOM     13  C   UNL     1       5.288   4.528  17.867  0.00  0.00    +0.000 C 
BRANCH  13  14
ATOM     14  C   UNL     1       6.637   4.919  17.318  0.00  0.00    +0.000 C 
ATOM     15  C   UNL     1       7.249   6.198  17.856  0.00  0.00    +0.000 C 
ATOM     16  C   UNL     1       7.834   4.872  18.251  0.00  0.00    +0.000 C 
BRANCH  14  17
ATOM     17  C   UNL     1       6.878   4.558  15.870  0.00  0.00    +0.000 C 
BRANCH  17  18
ATOM     18  O   UNL     1       7.504   5.635  15.190  0.00  0.00    +0.000 OA
ATOM     19  H   UNL     1       6.791   6.184  14.812  0.00  0.00    +0.000 HD
ENDBRANCH  17  18
ENDBRANCH  14  17
ENDBRANCH  13  14
ENDBRANCH   3  13
TORSDOF 5
ENDMDL
MODEL 6
REMARK VINA RESULT:      -5.7      2.938      3.980
REMARK  Name = 
REMARK  6 active torsions:
REMARK  status: ('A' for Active; 'I' for Inactive)
REMARK    1  A    between atoms: C_1  and  C_2
REMARK    2  A    between atoms: C_8  and  C_9
REMARK    3  A    between atoms: N_11  and  C_12
REMARK    4  A    between atoms: C_12  and  C_13
REMARK    5  A    between atoms: C_13  and  C_14
REMARK    6  A    between atoms: C_14  and  O_15
REMARK                            x       y       z     vdW  Elec       q    Type
REMARK                         _______ _______ _______ _____ _____    ______ ____
ROOT
ATOM      1  C   UNL     1       4.720   6.142  17.746  0.00  0.00    +0.000 C 
ATOM      2  O   UNL     1       5.724   6.782  18.064  0.00  0.00    +0.000 OA
ATOM      3  N   UNL     1       4.495   5.739  16.453  0.00  0.00    +0.000 N 
ATOM      4  H   UNL     1       3.590   5.389  16.181  0.00  0.00    +0.000 HD
ENDROOT
BRANCH   1  12
ATOM      5  C   UNL     1       4.273   3.408  19.094  0.00  0.00    +0.000 C 
ATOM      6  C   UNL     1       3.436   4.618  19.416  0.00  0.00    +0.000 A 
ATOM      7  C   UNL     1       2.393   4.563  20.371  0.00  0.00    +0.000 A 
ATOM      8  I   UNL     1       1.835   2.807  21.407  0.00  0.00    +0.000 I 
ATOM      9  C   UNL     1       1.645   5.702  20.706  0.00  0.00    +0.000 A 
ATOM     10  C   UNL     1       1.904   6.919  20.090  0.00  0.00    +0.000 A 
ATOM     11  C   UNL     1       2.905   6.996  19.130  0.00  0.00    +0.000 A 
ATOM     12  C   UNL     1       3.668   5.865  18.775  0.00  0.00    +0.000 A 
ENDBRANCH   1  12
BRANCH   3  13
ATOM     13  C   UNL     1       5.457   5.984  15.400  0.00  0.00    +0.000 C 
BRANCH  13  14
ATOM     14  C   UNL     1       6.314   4.759  15.198  0.00  0.00    +0.000 C 
ATOM     15  C   UNL     1       5.589   3.458  14.916  0.00  0.00    +0.000 C 
ATOM     16  C   UNL     1       6.359   4.132  13.816  0.00  0.00    +0.000 C 
BRANCH  14  17
ATOM     17  C   UNL     1       7.585   4.713  16.017  0.00  0.00    +0.000 C 
BRANCH  17  18
ATOM     18  O   UNL     1       7.317   4.212  17.317  0.00  0.00    +0.000 OA
ATOM     19  H   UNL     1       6.881   3.346  17.203  0.00  0.00    +0.000 HD
ENDBRANCH  17  18
ENDBRANCH  14  17
ENDBRANCH  13  14
ENDBRANCH   3  13
TORSDOF 5
ENDMDL
MODEL 7
REMARK VINA RESULT:      -5.7      4.313      5.346
REMARK  Name = 
REMARK  6 active torsions:
REMARK  status: ('A' for Active; 'I' for Inactive)
REMARK    1  A    between atoms: C_1  and  C_2
REMARK    2  A    between atoms: C_8  and  C_9
REMARK    3  A    between atoms: N_11  and  C_12
REMARK    4  A    between atoms: C_12  and  C_13
REMARK    5  A    between atoms: C_13  and  C_14
REMARK    6  A    between atoms: C_14  and  O_15
REMARK                            x       y       z     vdW  Elec       q    Type
REMARK                         _______ _______ _______ _____ _____    ______ ____
ROOT
ATOM      1  C   UNL     1       4.549   4.644  19.203  0.00  0.00    +0.000 C 
ATOM      2  O   UNL     1       4.087   5.568  19.874  0.00  0.00    +0.000 OA
ATOM      3  N   UNL     1       4.331   3.328  19.531  0.00  0.00    +0.000 N 
ATOM      4  H   UNL     1       4.868   2.599  19.089  0.00  0.00    +0.000 HD
ENDROOT
BRANCH   1  12
ATOM      5  C   UNL     1       4.171   3.528  16.356  0.00  0.00    +0.000 C 
ATOM      6  C   UNL     1       5.299   4.456  16.721  0.00  0.00    +0.000 A 
ATOM      7  C   UNL     1       6.252   4.875  15.761  0.00  0.00    +0.000 A 
ATOM      8  I   UNL     1       6.264   4.224  13.750  0.00  0.00    +0.000 I 
ATOM      9  C   UNL     1       7.275   5.778  16.089  0.00  0.00    +0.000 A 
ATOM     10  C   UNL     1       7.386   6.274  17.381  0.00  0.00    +0.000 A 
ATOM     11  C   UNL     1       6.481   5.861  18.349  0.00  0.00    +0.000 A 
ATOM     12  C   UNL     1       5.446   4.952  18.044  0.00  0.00    +0.000 A 
ENDBRANCH   1  12
BRANCH   3  13
ATOM     13  C   UNL     1       3.489   2.951  20.646  0.00  0.00    +0.000 C 
BRANCH  13  14
ATOM     14  C   UNL     1       2.051   2.884  20.198  0.00  0.00    +0.000 C 
ATOM     15  C   UNL     1       1.005   2.706  21.281  0.00  0.00    +0.000 C 
ATOM     16  C   UNL     1       1.126   4.027  20.577  0.00  0.00    +0.000 C 
BRANCH  14  17
ATOM     17  C   UNL     1       1.818   2.225  18.857  0.00  0.00    +0.000 C 
BRANCH  17  18
ATOM     18  O   UNL     1       2.761   1.186  18.646  0.00  0.00    +0.000 OA
ATOM     19  H   UNL     1       3.576   1.443  19.117  0.00  0.00    +0.000 HD
ENDBRANCH  17  18
ENDBRANCH  14  17
ENDBRANCH  13  14
ENDBRANCH   3  13
TORSDOF 5
ENDMDL
MODEL 8
REMARK VINA RESULT:      -5.7      2.251      3.097
REMARK  Name = 
REMARK  6 active torsions:
REMARK  status: ('A' for Active; 'I' for Inactive)
REMARK    1  A    between atoms: C_1  and  C_2
REMARK    2  A    between atoms: C_8  and  C_9
REMARK    3  A    between atoms: N_11  and  C_12
REMARK    4  A    between atoms: C_12  and  C_13
REMARK    5  A    between atoms: C_13  and  C_14
REMARK    6  A    between atoms: C_14  and  O_15
REMARK                            x       y       z     vdW  Elec       q    Type
REMARK                         _______ _______ _______ _____ _____    ______ ____
ROOT
ATOM      1  C   UNL     1       2.306   7.130  19.717  0.00  0.00    +0.000 C 
ATOM      2  O   UNL     1       2.908   7.191  18.643  0.00  0.00    +0.000 OA
ATOM      3  N   UNL     1       2.278   5.981  20.469  0.00  0.00    +0.000 N 
ATOM      4  H   UNL     1       1.632   5.893  21.237  0.00  0.00    +0.000 HD
ENDROOT
BRANCH   1  12
ATOM      5  C   UNL     1       1.337   9.414  17.891  0.00  0.00    +0.000 C 
ATOM      6  C   UNL     1       1.045   9.376  19.368  0.00  0.00    +0.000 A 
ATOM      7  C   UNL     1       0.294  10.396  20.000  0.00  0.00    +0.000 A 
ATOM      8  I   UNL     1      -0.448  12.104  19.000  0.00  0.00    +0.000 I 
ATOM      9  C   UNL     1      -0.020  10.336  21.366  0.00  0.00    +0.000 A 
ATOM     10  C   UNL     1       0.418   9.271  22.142  0.00  0.00    +0.000 A 
ATOM     11  C   UNL     1       1.178   8.269  21.553  0.00  0.00    +0.000 A 
ATOM     12  C   UNL     1       1.508   8.308  20.182  0.00  0.00    +0.000 A 
ENDBRANCH   1  12
BRANCH   3  13
ATOM     13  C   UNL     1       3.011   4.796  20.077  0.00  0.00    +0.000 C 
BRANCH  13  14
ATOM     14  C   UNL     1       2.045   3.675  19.784  0.00  0.00    +0.000 C 
ATOM     15  C   UNL     1       1.304   3.739  18.463  0.00  0.00    +0.000 C 
ATOM     16  C   UNL     1       2.382   2.711  18.660  0.00  0.00    +0.000 C 
BRANCH  14  17
ATOM     17  C   UNL     1       1.326   3.106  20.986  0.00  0.00    +0.000 C 
BRANCH  17  18
ATOM     18  O   UNL     1       2.117   3.258  22.154  0.00  0.00    +0.000 OA
ATOM     19  H   UNL     1       2.149   4.213  22.352  0.00  0.00    +0.000 HD
ENDBRANCH  17  18
ENDBRANCH  14  17
ENDBRANCH  13  14
ENDBRANCH   3  13
TORSDOF 5
ENDMDL
MODEL 9
REMARK VINA RESULT:      -5.7      1.818      2.149
REMARK  Name = 
REMARK  6 active torsions:
REMARK  status: ('A' for Active; 'I' for Inactive)
REMARK    1  A    between atoms: C_1  and  C_2
REMARK    2  A    between atoms: C_8  and  C_9
REMARK    3  A    between atoms: N_11  and  C_12
REMARK    4  A    between atoms: C_12  and  C_13
REMARK    5  A    between atoms: C_13  and  C_14
REMARK    6  A    between atoms: C_14  and  O_15
REMARK                            x       y       z     vdW  Elec       q    Type
REMARK                         _______ _______ _______ _____ _____    ______ ____
ROOT
ATOM      1  C   UNL     1       2.927   6.244  19.361  0.00  0.00    +0.000 C 
ATOM      2  O   UNL     1       4.147   6.142  19.222  0.00  0.00    +0.000 OA
ATOM      3  N   UNL     1       2.130   5.151  19.603  0.00  0.00    +0.000 N 
ATOM      4  H   UNL     1       1.128   5.227  19.524  0.00  0.00    +0.000 HD
ENDROOT
BRANCH   1  12
ATOM      5  C   UNL     1       1.305   7.706  21.535  0.00  0.00    +0.000 C 
ATOM      6  C   UNL     1       1.521   8.280  20.159  0.00  0.00    +0.000 A 
ATOM      7  C   UNL     1       0.990   9.539  19.792  0.00  0.00    +0.000 A 
ATOM      8  I   UNL     1      -0.203  10.732  21.065  0.00  0.00    +0.000 I 
ATOM      9  C   UNL     1       1.232  10.096  18.526  0.00  0.00    +0.000 A 
ATOM     10  C   UNL     1       1.993   9.409  17.590  0.00  0.00    +0.000 A 
ATOM     11  C   UNL     1       2.505   8.160  17.915  0.00  0.00    +0.000 A 
ATOM     12  C   UNL     1       2.274   7.578  19.179  0.00  0.00    +0.000 A 
ENDBRANCH   1  12
BRANCH   3  13
ATOM     13  C   UNL     1       2.685   3.826  19.775  0.00  0.00    +0.000 C 
BRANCH  13  14
ATOM     14  C   UNL     1       2.185   2.919  18.678  0.00  0.00    +0.000 C 
ATOM     15  C   UNL     1       2.711   3.182  17.281  0.00  0.00    +0.000 C 
ATOM     16  C   UNL     1       3.171   1.964  18.030  0.00  0.00    +0.000 C 
BRANCH  14  17
ATOM     17  C   UNL     1       0.760   2.438  18.833  0.00  0.00    +0.000 C 
BRANCH  17  18
ATOM     18  O   UNL     1       0.239   2.830  20.093  0.00  0.00    +0.000 OA
ATOM     19  H   UNL     1      -0.653   2.441  20.164  0.00  0.00    +0.000 HD
ENDBRANCH  17  18
ENDBRANCH  14  17
ENDBRANCH  13  14
ENDBRANCH   3  13
TORSDOF 5
ENDMDL
