MODEL 1
REMARK VINA RESULT:      -8.4      0.000      0.000
REMARK  Name = 
REMARK  10 active torsions:
REMARK  status: ('A' for Active; 'I' for Inactive)
REMARK    1  A    between atoms: C_1  and  C_2
REMARK    2  A    between atoms: C_8  and  C_9
REMARK    3  A    between atoms: C_9  and  O_10
REMARK    4  A    between atoms: O_10  and  C_11
REMARK    5  A    between atoms: C_16  and  C_17
REMARK    6  A    between atoms: N_19  and  C_20
REMARK    7  A    between atoms: C_20  and  C_21
REMARK    8  A    between atoms: N_24  and  C_25
REMARK    9  A    between atoms: C_25  and  C_26
REMARK   10  A    between atoms: C_26  and  O_27
REMARK                            x       y       z     vdW  Elec       q    Type
REMARK                         _______ _______ _______ _____ _____    ______ ____
ROOT
ATOM      1  C   UNL     1       2.176   4.505  19.646  0.00  0.00    +0.000 A 
ATOM      2  C   UNL     1       1.079   4.306  20.502  0.00  0.00    +0.000 A 
ATOM      3  C   UNL     1       1.065   3.251  21.416  0.00  0.00    +0.000 A 
ATOM      4  C   UNL     1       2.133   2.364  21.469  0.00  0.00    +0.000 A 
ATOM      5  C   UNL     1       3.198   2.515  20.583  0.00  0.00    +0.000 A 
ATOM      6  C   UNL     1       3.222   3.568  19.651  0.00  0.00    +0.000 A 
ENDROOT
BRANCH   6   7
ATOM      7  C   UNL     1       4.391   3.592  18.720  0.00  0.00    +0.000 C 
ATOM      8  O   UNL     1       5.525   3.511  19.171  0.00  0.00    +0.000 OA
ATOM      9  N   UNL     1       4.114   3.627  17.373  0.00  0.00    +0.000 N 
ATOM     10  H   UNL     1       3.149   3.761  17.082  0.00  0.00    +0.000 HD
BRANCH   9  11
ATOM     11  C   UNL     1       5.152   3.601  16.362  0.00  0.00    +0.000 C 
BRANCH  11  12
ATOM     12  C   UNL     1       5.210   4.901  15.533  0.00  0.00    +0.000 C 
ATOM     13  C   UNL     1       6.624   5.245  15.057  0.00  0.00    +0.000 C 
ATOM     14  C   UNL     1       7.548   5.630  16.215  0.00  0.00    +0.000 C 
ATOM     15  N   UNL     1       7.002   6.712  17.060  0.00  0.00    +0.000 NA
ATOM     16  C   UNL     1       5.626   6.425  17.511  0.00  0.00    +0.000 C 
ATOM     17  C   UNL     1       4.700   6.104  16.336  0.00  0.00    +0.000 C 
BRANCH  15  18
ATOM     18  C   UNL     1       7.856   6.936  18.254  0.00  0.00    +0.000 C 
BRANCH  18  19
ATOM     19  C   UNL     1       8.217   5.650  19.015  0.00  0.00    +0.000 C 
BRANCH  19  20
ATOM     20  O   UNL     1       7.578   5.616  20.287  0.00  0.00    +0.000 OA
ATOM     21  H   UNL     1       8.255   5.279  20.904  0.00  0.00    +0.000 HD
ENDBRANCH  19  20
ENDBRANCH  18  19
ENDBRANCH  15  18
ENDBRANCH  11  12
ENDBRANCH   9  11
ENDBRANCH   6   7
BRANCH   1  22
ATOM     22  O   UNL     1       2.256   5.596  18.812  0.00  0.00    +0.000 OA
BRANCH  22  23
ATOM     23  C   UNL     1       2.862   6.754  19.425  0.00  0.00    +0.000 C 
BRANCH  23  31
ATOM     24  C   UNL     1      -0.179   9.480  23.245  0.00  0.00    +0.000 C 
ATOM     25  C   UNL     1      -0.020   9.964  21.824  0.00  0.00    +0.000 A 
ATOM     26  C   UNL     1      -0.538  11.163  21.461  0.00  0.00    +0.000 A 
ATOM     27  C   UNL     1      -0.391  11.711  20.121  0.00  0.00    +0.000 A 
ATOM     28  C   UNL     1       0.265  10.996  19.194  0.00  0.00    +0.000 A 
ATOM     29  N   UNL     1       0.792   9.761  19.547  0.00  0.00    +0.000 N 
ATOM     30  C   UNL     1       1.525   8.885  18.790  0.00  0.00    +0.000 A 
ATOM     31  C   UNL     1       1.897   7.869  19.647  0.00  0.00    +0.000 A 
ATOM     32  N   UNL     1       1.341   8.068  20.896  0.00  0.00    +0.000 NA
ATOM     33  C   UNL     1       0.693   9.213  20.823  0.00  0.00    +0.000 A 
ENDBRANCH  23  31
ENDBRANCH  22  23
ENDBRANCH   1  22
TORSDOF 9
ENDMDL
MODEL 2
REMARK VINA RESULT:      -7.9      0.797      1.552
REMARK  Name = 
REMARK  10 active torsions:
REMARK  status: ('A' for Active; 'I' for Inactive)
REMARK    1  A    between atoms: C_1  and  C_2
REMARK    2  A    between atoms: C_8  and  C_9
REMARK    3  A    between atoms: C_9  and  O_10
REMARK    4  A    between atoms: O_10  and  C_11
REMARK    5  A    between atoms: C_16  and  C_17
REMARK    6  A    between atoms: N_19  and  C_20
REMARK    7  A    between atoms: C_20  and  C_21
REMARK    8  A    between atoms: N_24  and  C_25
REMARK    9  A    between atoms: C_25  and  C_26
REMARK   10  A    between atoms: C_26  and  O_27
REMARK                            x       y       z     vdW  Elec       q    Type
REMARK                         _______ _______ _______ _____ _____    ______ ____
ROOT
ATOM      1  C   UNL     1       2.433   4.678  19.811  0.00  0.00    +0.000 A 
ATOM      2  C   UNL     1       1.176   4.533  20.425  0.00  0.00    +0.000 A 
ATOM      3  C   UNL     1       0.556   3.285  20.500  0.00  0.00    +0.000 A 
ATOM      4  C   UNL     1       1.167   2.171  19.941  0.00  0.00    +0.000 A 
ATOM      5  C   UNL     1       2.384   2.313  19.275  0.00  0.00    +0.000 A 
ATOM      6  C   UNL     1       3.017   3.566  19.184  0.00  0.00    +0.000 A 
ENDROOT
BRANCH   6   7
ATOM      7  C   UNL     1       4.288   3.601  18.401  0.00  0.00    +0.000 C 
ATOM      8  O   UNL     1       5.359   3.475  18.979  0.00  0.00    +0.000 OA
ATOM      9  N   UNL     1       4.175   3.697  17.034  0.00  0.00    +0.000 N 
ATOM     10  H   UNL     1       3.254   3.865  16.636  0.00  0.00    +0.000 HD
BRANCH   9  11
ATOM     11  C   UNL     1       5.326   3.688  16.153  0.00  0.00    +0.000 C 
BRANCH  11  12
ATOM     12  C   UNL     1       5.450   4.982  15.321  0.00  0.00    +0.000 C 
ATOM     13  C   UNL     1       6.900   5.331  14.969  0.00  0.00    +0.000 C 
ATOM     14  C   UNL     1       7.715   5.729  16.201  0.00  0.00    +0.000 C 
ATOM     15  N   UNL     1       7.092   6.815  16.986  0.00  0.00    +0.000 NA
ATOM     16  C   UNL     1       5.683   6.523  17.315  0.00  0.00    +0.000 C 
ATOM     17  C   UNL     1       4.866   6.189  16.066  0.00  0.00    +0.000 C 
BRANCH  15  18
ATOM     18  C   UNL     1       7.836   7.052  18.249  0.00  0.00    +0.000 C 
BRANCH  18  19
ATOM     19  C   UNL     1       8.132   5.775  19.050  0.00  0.00    +0.000 C 
BRANCH  19  20
ATOM     20  O   UNL     1       7.102   5.522  20.001  0.00  0.00    +0.000 OA
ATOM     21  H   UNL     1       6.300   5.933  19.625  0.00  0.00    +0.000 HD
ENDBRANCH  19  20
ENDBRANCH  18  19
ENDBRANCH  15  18
ENDBRANCH  11  12
ENDBRANCH   9  11
ENDBRANCH   6   7
BRANCH   1  22
ATOM     22  O   UNL     1       3.108   5.877  19.817  0.00  0.00    +0.000 OA
BRANCH  22  23
ATOM     23  C   UNL     1       2.466   6.910  19.041  0.00  0.00    +0.000 C 
BRANCH  23  31
ATOM     24  C   UNL     1      -0.327  11.754  18.970  0.00  0.00    +0.000 C 
ATOM     25  C   UNL     1      -0.114  10.948  20.228  0.00  0.00    +0.000 A 
ATOM     26  C   UNL     1      -0.704  11.338  21.385  0.00  0.00    +0.000 A 
ATOM     27  C   UNL     1      -0.574  10.590  22.626  0.00  0.00    +0.000 A 
ATOM     28  C   UNL     1       0.178   9.478  22.641  0.00  0.00    +0.000 A 
ATOM     29  N   UNL     1       0.799   9.072  21.467  0.00  0.00    +0.000 N 
ATOM     30  C   UNL     1       1.571   7.964  21.236  0.00  0.00    +0.000 A 
ATOM     31  C   UNL     1       1.841   7.971  19.883  0.00  0.00    +0.000 A 
ATOM     32  N   UNL     1       1.313   9.103  19.294  0.00  0.00    +0.000 NA
ATOM     33  C   UNL     1       0.680   9.746  20.255  0.00  0.00    +0.000 A 
ENDBRANCH  23  31
ENDBRANCH  22  23
ENDBRANCH   1  22
TORSDOF 9
ENDMDL
MODEL 3
REMARK VINA RESULT:      -7.7      1.798      2.764
REMARK  Name = 
REMARK  10 active torsions:
REMARK  status: ('A' for Active; 'I' for Inactive)
REMARK    1  A    between atoms: C_1  and  C_2
REMARK    2  A    between atoms: C_8  and  C_9
REMARK    3  A    between atoms: C_9  and  O_10
REMARK    4  A    between atoms: O_10  and  C_11
REMARK    5  A    between atoms: C_16  and  C_17
REMARK    6  A    between atoms: N_19  and  C_20
REMARK    7  A    between atoms: C_20  and  C_21
REMARK    8  A    between atoms: N_24  and  C_25
REMARK    9  A    between atoms: C_25  and  C_26
REMARK   10  A    between atoms: C_26  and  O_27
REMARK                            x       y       z     vdW  Elec       q    Type
REMARK                         _______ _______ _______ _____ _____    ______ ____
ROOT
ATOM      1  C   UNL     1       2.234   4.475  19.699  0.00  0.00    +0.000 A 
ATOM      2  C   UNL     1       1.151   4.293  20.577  0.00  0.00    +0.000 A 
ATOM      3  C   UNL     1       1.154   3.259  21.515  0.00  0.00    +0.000 A 
ATOM      4  C   UNL     1       2.224   2.376  21.572  0.00  0.00    +0.000 A 
ATOM      5  C   UNL     1       3.276   2.508  20.665  0.00  0.00    +0.000 A 
ATOM      6  C   UNL     1       3.282   3.541  19.709  0.00  0.00    +0.000 A 
ENDROOT
BRANCH   6   7
ATOM      7  C   UNL     1       4.436   3.545  18.761  0.00  0.00    +0.000 C 
ATOM      8  O   UNL     1       4.478   2.723  17.856  0.00  0.00    +0.000 OA
ATOM      9  N   UNL     1       5.367   4.545  18.918  0.00  0.00    +0.000 N 
ATOM     10  H   UNL     1       5.297   5.148  19.734  0.00  0.00    +0.000 HD
BRANCH   9  11
ATOM     11  C   UNL     1       6.506   4.696  18.034  0.00  0.00    +0.000 C 
BRANCH  11  12
ATOM     12  C   UNL     1       6.395   5.938  17.124  0.00  0.00    +0.000 C 
ATOM     13  C   UNL     1       5.041   6.040  16.414  0.00  0.00    +0.000 C 
ATOM     14  C   UNL     1       4.846   4.933  15.376  0.00  0.00    +0.000 C 
ATOM     15  N   UNL     1       5.947   4.856  14.394  0.00  0.00    +0.000 NA
ATOM     16  C   UNL     1       7.270   4.787  15.046  0.00  0.00    +0.000 C 
ATOM     17  C   UNL     1       7.474   5.936  16.035  0.00  0.00    +0.000 C 
BRANCH  15  18
ATOM     18  C   UNL     1       5.791   3.671  13.512  0.00  0.00    +0.000 C 
BRANCH  18  19
ATOM     19  C   UNL     1       6.696   3.690  12.271  0.00  0.00    +0.000 C 
BRANCH  19  20
ATOM     20  O   UNL     1       6.850   2.380  11.734  0.00  0.00    +0.000 OA
ATOM     21  H   UNL     1       6.530   1.778  12.433  0.00  0.00    +0.000 HD
ENDBRANCH  19  20
ENDBRANCH  18  19
ENDBRANCH  15  18
ENDBRANCH  11  12
ENDBRANCH   9  11
ENDBRANCH   6   7
BRANCH   1  22
ATOM     22  O   UNL     1       2.298   5.547  18.840  0.00  0.00    +0.000 OA
BRANCH  22  23
ATOM     23  C   UNL     1       2.917   6.717  19.414  0.00  0.00    +0.000 C 
BRANCH  23  31
ATOM     24  C   UNL     1      -0.114   9.494  23.205  0.00  0.00    +0.000 C 
ATOM     25  C   UNL     1       0.052   9.966  21.781  0.00  0.00    +0.000 A 
ATOM     26  C   UNL     1      -0.458  11.165  21.406  0.00  0.00    +0.000 A 
ATOM     27  C   UNL     1      -0.304  11.701  20.062  0.00  0.00    +0.000 A 
ATOM     28  C   UNL     1       0.349  10.974  19.143  0.00  0.00    +0.000 A 
ATOM     29  N   UNL     1       0.866   9.738  19.507  0.00  0.00    +0.000 N 
ATOM     30  C   UNL     1       1.596   8.851  18.759  0.00  0.00    +0.000 A 
ATOM     31  C   UNL     1       1.959   7.840  19.625  0.00  0.00    +0.000 A 
ATOM     32  N   UNL     1       1.402   8.053  20.871  0.00  0.00    +0.000 NA
ATOM     33  C   UNL     1       0.761   9.201  20.787  0.00  0.00    +0.000 A 
ENDBRANCH  23  31
ENDBRANCH  22  23
ENDBRANCH   1  22
TORSDOF 9
ENDMDL
MODEL 4
REMARK VINA RESULT:      -7.5      1.710      2.972
REMARK  Name = 
REMARK  10 active torsions:
REMARK  status: ('A' for Active; 'I' for Inactive)
REMARK    1  A    between atoms: C_1  and  C_2
REMARK    2  A    between atoms: C_8  and  C_9
REMARK    3  A    between atoms: C_9  and  O_10
REMARK    4  A    between atoms: O_10  and  C_11
REMARK    5  A    between atoms: C_16  and  C_17
REMARK    6  A    between atoms: N_19  and  C_20
REMARK    7  A    between atoms: C_20  and  C_21
REMARK    8  A    between atoms: N_24  and  C_25
REMARK    9  A    between atoms: C_25  and  C_26
REMARK   10  A    between atoms: C_26  and  O_27
REMARK                            x       y       z     vdW  Elec       q    Type
REMARK                         _______ _______ _______ _____ _____    ______ ____
ROOT
ATOM      1  C   UNL     1       2.214   4.592  19.982  0.00  0.00    +0.000 A 
ATOM      2  C   UNL     1       0.846   4.277  19.919  0.00  0.00    +0.000 A 
ATOM      3  C   UNL     1       0.420   3.000  19.549  0.00  0.00    +0.000 A 
ATOM      4  C   UNL     1       1.352   2.028  19.211  0.00  0.00    +0.000 A 
ATOM      5  C   UNL     1       2.710   2.347  19.209  0.00  0.00    +0.000 A 
ATOM      6  C   UNL     1       3.153   3.632  19.572  0.00  0.00    +0.000 A 
ENDROOT
BRANCH   6   7
ATOM      7  C   UNL     1       4.625   3.865  19.480  0.00  0.00    +0.000 C 
ATOM      8  O   UNL     1       5.398   2.931  19.642  0.00  0.00    +0.000 OA
ATOM      9  N   UNL     1       5.034   5.133  19.135  0.00  0.00    +0.000 N 
ATOM     10  H   UNL     1       4.335   5.869  19.084  0.00  0.00    +0.000 HD
BRANCH   9  11
ATOM     11  C   UNL     1       6.430   5.481  18.961  0.00  0.00    +0.000 C 
BRANCH  11  12
ATOM     12  C   UNL     1       6.628   6.713  18.051  0.00  0.00    +0.000 C 
ATOM     13  C   UNL     1       5.330   7.180  17.386  0.00  0.00    +0.000 C 
ATOM     14  C   UNL     1       4.812   6.173  16.357  0.00  0.00    +0.000 C 
ATOM     15  N   UNL     1       5.819   5.808  15.340  0.00  0.00    +0.000 NA
ATOM     16  C   UNL     1       7.094   5.382  15.949  0.00  0.00    +0.000 C 
ATOM     17  C   UNL     1       7.632   6.428  16.928  0.00  0.00    +0.000 C 
BRANCH  15  18
ATOM     18  C   UNL     1       5.322   4.715  14.467  0.00  0.00    +0.000 C 
BRANCH  18  19
ATOM     19  C   UNL     1       6.363   3.624  14.174  0.00  0.00    +0.000 C 
BRANCH  19  20
ATOM     20  O   UNL     1       6.309   3.223  12.809  0.00  0.00    +0.000 OA
ATOM     21  H   UNL     1       6.472   4.039  12.296  0.00  0.00    +0.000 HD
ENDBRANCH  19  20
ENDBRANCH  18  19
ENDBRANCH  15  18
ENDBRANCH  11  12
ENDBRANCH   9  11
ENDBRANCH   6   7
BRANCH   1  22
ATOM     22  O   UNL     1       2.657   5.810  20.444  0.00  0.00    +0.000 OA
BRANCH  22  23
ATOM     23  C   UNL     1       2.278   6.922  19.606  0.00  0.00    +0.000 C 
BRANCH  23  31
ATOM     24  C   UNL     1      -0.449  11.784  19.163  0.00  0.00    +0.000 C 
ATOM     25  C   UNL     1      -0.315  11.034  20.466  0.00  0.00    +0.000 A 
ATOM     26  C   UNL     1      -0.963  11.482  21.569  0.00  0.00    +0.000 A 
ATOM     27  C   UNL     1      -0.911  10.790  22.848  0.00  0.00    +0.000 A 
ATOM     28  C   UNL     1      -0.175   9.673  22.954  0.00  0.00    +0.000 A 
ATOM     29  N   UNL     1       0.505   9.208  21.836  0.00  0.00    +0.000 N 
ATOM     30  C   UNL     1       1.275   8.083  21.698  0.00  0.00    +0.000 A 
ATOM     31  C   UNL     1       1.620   8.025  20.364  0.00  0.00    +0.000 A 
ATOM     32  N   UNL     1       1.139   9.135  19.696  0.00  0.00    +0.000 NA
ATOM     33  C   UNL     1       0.462   9.827  20.591  0.00  0.00    +0.000 A 
ENDBRANCH  23  31
ENDBRANCH  22  23
ENDBRANCH   1  22
TORSDOF 9
ENDMDL
MODEL 5
REMARK VINA RESULT:      -7.3      1.109      1.200
REMARK  Name = 
REMARK  10 active torsions:
REMARK  status: ('A' for Active; 'I' for Inactive)
REMARK    1  A    between atoms: C_1  and  C_2
REMARK    2  A    between atoms: C_8  and  C_9
REMARK    3  A    between atoms: C_9  and  O_10
REMARK    4  A    between atoms: O_10  and  C_11
REMARK    5  A    between atoms: C_16  and  C_17
REMARK    6  A    between atoms: N_19  and  C_20
REMARK    7  A    between atoms: C_20  and  C_21
REMARK    8  A    between atoms: N_24  and  C_25
REMARK    9  A    between atoms: C_25  and  C_26
REMARK   10  A    between atoms: C_26  and  O_27
REMARK                            x       y       z     vdW  Elec       q    Type
REMARK                         _______ _______ _______ _____ _____    ______ ____
ROOT
ATOM      1  C   UNL     1       2.546   4.901  19.865  0.00  0.00    +0.000 A 
ATOM      2  C   UNL     1       1.315   4.747  20.526  0.00  0.00    +0.000 A 
ATOM      3  C   UNL     1       0.794   3.477  20.782  0.00  0.00    +0.000 A 
ATOM      4  C   UNL     1       1.479   2.346  20.358  0.00  0.00    +0.000 A 
ATOM      5  C   UNL     1       2.670   2.489  19.647  0.00  0.00    +0.000 A 
ATOM      6  C   UNL     1       3.203   3.762  19.375  0.00  0.00    +0.000 A 
ENDROOT
BRANCH   6   7
ATOM      7  C   UNL     1       4.455   3.786  18.559  0.00  0.00    +0.000 C 
ATOM      8  O   UNL     1       5.541   3.735  19.118  0.00  0.00    +0.000 OA
ATOM      9  N   UNL     1       4.307   3.787  17.192  0.00  0.00    +0.000 N 
ATOM     10  H   UNL     1       3.373   3.897  16.806  0.00  0.00    +0.000 HD
BRANCH   9  11
ATOM     11  C   UNL     1       5.438   3.757  16.285  0.00  0.00    +0.000 C 
BRANCH  11  12
ATOM     12  C   UNL     1       5.517   5.011  15.389  0.00  0.00    +0.000 C 
ATOM     13  C   UNL     1       6.950   5.366  14.981  0.00  0.00    +0.000 C 
ATOM     14  C   UNL     1       7.791   5.836  16.170  0.00  0.00    +0.000 C 
ATOM     15  N   UNL     1       7.170   6.948  16.919  0.00  0.00    +0.000 NA
ATOM     16  C   UNL     1       5.776   6.650  17.301  0.00  0.00    +0.000 C 
ATOM     17  C   UNL     1       4.932   6.242  16.092  0.00  0.00    +0.000 C 
BRANCH  15  18
ATOM     18  C   UNL     1       7.944   7.258  18.148  0.00  0.00    +0.000 C 
BRANCH  18  19
ATOM     19  C   UNL     1       8.465   8.702  18.212  0.00  0.00    +0.000 C 
BRANCH  19  20
ATOM     20  O   UNL     1       7.556   9.598  17.580  0.00  0.00    +0.000 OA
ATOM     21  H   UNL     1       7.377  10.292  18.244  0.00  0.00    +0.000 HD
ENDBRANCH  19  20
ENDBRANCH  18  19
ENDBRANCH  15  18
ENDBRANCH  11  12
ENDBRANCH   9  11
ENDBRANCH   6   7
BRANCH   1  22
ATOM     22  O   UNL     1       3.126   6.137  19.695  0.00  0.00    +0.000 OA
BRANCH  22  23
ATOM     23  C   UNL     1       2.563   6.900  18.608  0.00  0.00    +0.000 C 
BRANCH  23  31
ATOM     24  C   UNL     1       0.206   9.431  23.002  0.00  0.00    +0.000 C 
ATOM     25  C   UNL     1       0.399  10.112  21.669  0.00  0.00    +0.000 A 
ATOM     26  C   UNL     1       0.094  11.426  21.535  0.00  0.00    +0.000 A 
ATOM     27  C   UNL     1       0.290  12.157  20.293  0.00  0.00    +0.000 A 
ATOM     28  C   UNL     1       0.771  11.505  19.223  0.00  0.00    +0.000 A 
ATOM     29  N   UNL     1       1.078  10.156  19.341  0.00  0.00    +0.000 N 
ATOM     30  C   UNL     1       1.612   9.306  18.408  0.00  0.00    +0.000 A 
ATOM     31  C   UNL     1       1.824   8.112  19.067  0.00  0.00    +0.000 A 
ATOM     32  N   UNL     1       1.359   8.191  20.365  0.00  0.00    +0.000 NA
ATOM     33  C   UNL     1       0.927   9.427  20.517  0.00  0.00    +0.000 A 
ENDBRANCH  23  31
ENDBRANCH  22  23
ENDBRANCH   1  22
TORSDOF 9
ENDMDL
MODEL 6
REMARK VINA RESULT:      -7.3      2.341      8.522
REMARK  Name = 
REMARK  10 active torsions:
REMARK  status: ('A' for Active; 'I' for Inactive)
REMARK    1  A    between atoms: C_1  and  C_2
REMARK    2  A    between atoms: C_8  and  C_9
REMARK    3  A    between atoms: C_9  and  O_10
REMARK    4  A    between atoms: O_10  and  C_11
REMARK    5  A    between atoms: C_16  and  C_17
REMARK    6  A    between atoms: N_19  and  C_20
REMARK    7  A    between atoms: C_20  and  C_21
REMARK    8  A    between atoms: N_24  and  C_25
REMARK    9  A    between atoms: C_25  and  C_26
REMARK   10  A    between atoms: C_26  and  O_27
REMARK                            x       y       z     vdW  Elec       q    Type
REMARK                         _______ _______ _______ _____ _____    ______ ____
ROOT
ATOM      1  C   UNL     1       4.414   4.638  18.960  0.00  0.00    +0.000 A 
ATOM      2  C   UNL     1       4.766   3.308  19.248  0.00  0.00    +0.000 A 
ATOM      3  C   UNL     1       3.805   2.388  19.672  0.00  0.00    +0.000 A 
ATOM      4  C   UNL     1       2.486   2.790  19.842  0.00  0.00    +0.000 A 
ATOM      5  C   UNL     1       2.137   4.121  19.619  0.00  0.00    +0.000 A 
ATOM      6  C   UNL     1       3.097   5.061  19.199  0.00  0.00    +0.000 A 
ENDROOT
BRANCH   6   7
ATOM      7  C   UNL     1       2.612   6.466  19.046  0.00  0.00    +0.000 C 
ATOM      8  O   UNL     1       2.477   6.940  17.927  0.00  0.00    +0.000 OA
ATOM      9  N   UNL     1       2.265   7.133  20.197  0.00  0.00    +0.000 N 
ATOM     10  H   UNL     1       2.470   6.694  21.091  0.00  0.00    +0.000 HD
BRANCH   9  11
ATOM     11  C   UNL     1       1.732   8.481  20.187  0.00  0.00    +0.000 C 
BRANCH  11  12
ATOM     12  C   UNL     1       0.911   8.808  21.453  0.00  0.00    +0.000 C 
ATOM     13  C   UNL     1      -0.601   8.775  21.211  0.00  0.00    +0.000 C 
ATOM     14  C   UNL     1      -1.065   9.911  20.295  0.00  0.00    +0.000 C 
ATOM     15  N   UNL     1      -0.638  11.246  20.761  0.00  0.00    +0.000 NA
ATOM     16  C   UNL     1       0.812  11.302  21.034  0.00  0.00    +0.000 C 
ATOM     17  C   UNL     1       1.250  10.200  22.000  0.00  0.00    +0.000 C 
BRANCH  15  18
ATOM     18  C   UNL     1      -0.973  12.290  19.760  0.00  0.00    +0.000 C 
BRANCH  18  19
ATOM     19  C   UNL     1      -1.441  11.733  18.407  0.00  0.00    +0.000 C 
BRANCH  19  20
ATOM     20  O   UNL     1      -1.192  12.666  17.360  0.00  0.00    +0.000 OA
ATOM     21  H   UNL     1      -0.681  13.387  17.777  0.00  0.00    +0.000 HD
ENDBRANCH  19  20
ENDBRANCH  18  19
ENDBRANCH  15  18
ENDBRANCH  11  12
ENDBRANCH   9  11
ENDBRANCH   6   7
BRANCH   1  22
ATOM     22  O   UNL     1       5.323   5.532  18.443  0.00  0.00    +0.000 OA
BRANCH  22  23
ATOM     23  C   UNL     1       6.479   4.907  17.847  0.00  0.00    +0.000 C 
BRANCH  23  31
ATOM     24  C   UNL     1       8.866   5.998  12.909  0.00  0.00    +0.000 C 
ATOM     25  C   UNL     1       7.680   5.077  13.062  0.00  0.00    +0.000 A 
ATOM     26  C   UNL     1       7.219   4.390  11.988  0.00  0.00    +0.000 A 
ATOM     27  C   UNL     1       6.106   3.457  12.068  0.00  0.00    +0.000 A 
ATOM     28  C   UNL     1       5.489   3.280  13.247  0.00  0.00    +0.000 A 
ATOM     29  N   UNL     1       5.941   3.986  14.354  0.00  0.00    +0.000 N 
ATOM     30  C   UNL     1       5.499   3.937  15.650  0.00  0.00    +0.000 A 
ATOM     31  C   UNL     1       6.357   4.742  16.370  0.00  0.00    +0.000 A 
ATOM     32  N   UNL     1       7.271   5.343  15.527  0.00  0.00    +0.000 NA
ATOM     33  C   UNL     1       7.016   4.869  14.323  0.00  0.00    +0.000 A 
ENDBRANCH  23  31
ENDBRANCH  22  23
ENDBRANCH   1  22
TORSDOF 9
ENDMDL
MODEL 7
REMARK VINA RESULT:      -7.2      3.738      9.351
REMARK  Name = 
REMARK  10 active torsions:
REMARK  status: ('A' for Active; 'I' for Inactive)
REMARK    1  A    between atoms: C_1  and  C_2
REMARK    2  A    between atoms: C_8  and  C_9
REMARK    3  A    between atoms: C_9  and  O_10
REMARK    4  A    between atoms: O_10  and  C_11
REMARK    5  A    between atoms: C_16  and  C_17
REMARK    6  A    between atoms: N_19  and  C_20
REMARK    7  A    between atoms: C_20  and  C_21
REMARK    8  A    between atoms: N_24  and  C_25
REMARK    9  A    between atoms: C_25  and  C_26
REMARK   10  A    between atoms: C_26  and  O_27
REMARK                            x       y       z     vdW  Elec       q    Type
REMARK                         _______ _______ _______ _____ _____    ______ ____
ROOT
ATOM      1  C   UNL     1       0.659   9.248  21.145  0.00  0.00    +0.000 A 
ATOM      2  C   UNL     1       0.767   9.012  22.526  0.00  0.00    +0.000 A 
ATOM      3  C   UNL     1      -0.009   9.729  23.439  0.00  0.00    +0.000 A 
ATOM      4  C   UNL     1      -0.883  10.709  22.987  0.00  0.00    +0.000 A 
ATOM      5  C   UNL     1      -0.954  10.995  21.625  0.00  0.00    +0.000 A 
ATOM      6  C   UNL     1      -0.171  10.287  20.695  0.00  0.00    +0.000 A 
ENDROOT
BRANCH   6   7
ATOM      7  C   UNL     1      -0.296  10.721  19.271  0.00  0.00    +0.000 C 
ATOM      8  O   UNL     1       0.626  10.517  18.493  0.00  0.00    +0.000 OA
ATOM      9  N   UNL     1      -1.498  11.270  18.890  0.00  0.00    +0.000 N 
ATOM     10  H   UNL     1      -2.189  11.467  19.609  0.00  0.00    +0.000 HD
BRANCH   9  11
ATOM     11  C   UNL     1      -1.770  11.685  17.528  0.00  0.00    +0.000 C 
BRANCH  11  12
ATOM     12  C   UNL     1      -2.470  10.587  16.699  0.00  0.00    +0.000 C 
ATOM     13  C   UNL     1      -3.509  11.145  15.721  0.00  0.00    +0.000 C 
ATOM     14  C   UNL     1      -4.719  11.743  16.443  0.00  0.00    +0.000 C 
ATOM     15  N   UNL     1      -5.348  10.808  17.398  0.00  0.00    +0.000 NA
ATOM     16  C   UNL     1      -4.367  10.228  18.335  0.00  0.00    +0.000 C 
ATOM     17  C   UNL     1      -3.194   9.578  17.598  0.00  0.00    +0.000 C 
BRANCH  15  18
ATOM     18  C   UNL     1      -6.411  11.486  18.183  0.00  0.00    +0.000 C 
BRANCH  18  19
ATOM     19  C   UNL     1      -6.941  10.659  19.364  0.00  0.00    +0.000 C 
BRANCH  19  20
ATOM     20  O   UNL     1      -7.514   9.436  18.911  0.00  0.00    +0.000 OA
ATOM     21  H   UNL     1      -8.065   9.682  18.142  0.00  0.00    +0.000 HD
ENDBRANCH  19  20
ENDBRANCH  18  19
ENDBRANCH  15  18
ENDBRANCH  11  12
ENDBRANCH   9  11
ENDBRANCH   6   7
BRANCH   1  22
ATOM     22  O   UNL     1       1.337   8.483  20.225  0.00  0.00    +0.000 OA
BRANCH  22  23
ATOM     23  C   UNL     1       1.792   7.216  20.743  0.00  0.00    +0.000 C 
BRANCH  23  31
ATOM     24  C   UNL     1       5.187   6.687  16.331  0.00  0.00    +0.000 C 
ATOM     25  C   UNL     1       4.460   5.519  16.952  0.00  0.00    +0.000 A 
ATOM     26  C   UNL     1       4.703   4.262  16.507  0.00  0.00    +0.000 A 
ATOM     27  C   UNL     1       4.068   3.086  17.082  0.00  0.00    +0.000 A 
ATOM     28  C   UNL     1       3.186   3.246  18.080  0.00  0.00    +0.000 A 
ATOM     29  N   UNL     1       2.916   4.528  18.539  0.00  0.00    +0.000 N 
ATOM     30  C   UNL     1       2.094   4.926  19.561  0.00  0.00    +0.000 A 
ATOM     31  C   UNL     1       2.274   6.289  19.679  0.00  0.00    +0.000 A 
ATOM     32  N   UNL     1       3.134   6.745  18.698  0.00  0.00    +0.000 NA
ATOM     33  C   UNL     1       3.520   5.675  18.032  0.00  0.00    +0.000 A 
ENDBRANCH  23  31
ENDBRANCH  22  23
ENDBRANCH   1  22
TORSDOF 9
ENDMDL
MODEL 8
REMARK VINA RESULT:      -7.2      2.373      8.099
REMARK  Name = 
REMARK  10 active torsions:
REMARK  status: ('A' for Active; 'I' for Inactive)
REMARK    1  A    between atoms: C_1  and  C_2
REMARK    2  A    between atoms: C_8  and  C_9
REMARK    3  A    between atoms: C_9  and  O_10
REMARK    4  A    between atoms: O_10  and  C_11
REMARK    5  A    between atoms: C_16  and  C_17
REMARK    6  A    between atoms: N_19  and  C_20
REMARK    7  A    between atoms: C_20  and  C_21
REMARK    8  A    between atoms: N_24  and  C_25
REMARK    9  A    between atoms: C_25  and  C_26
REMARK   10  A    between atoms: C_26  and  O_27
REMARK                            x       y       z     vdW  Elec       q    Type
REMARK                         _______ _______ _______ _____ _____    ______ ____
ROOT
ATOM      1  C   UNL     1       2.672   3.902  17.917  0.00  0.00    +0.000 A 
ATOM      2  C   UNL     1       2.250   2.565  17.821  0.00  0.00    +0.000 A 
ATOM      3  C   UNL     1       1.273   2.058  18.681  0.00  0.00    +0.000 A 
ATOM      4  C   UNL     1       0.725   2.870  19.665  0.00  0.00    +0.000 A 
ATOM      5  C   UNL     1       1.180   4.180  19.810  0.00  0.00    +0.000 A 
ATOM      6  C   UNL     1       2.170   4.702  18.956  0.00  0.00    +0.000 A 
ENDROOT
BRANCH   6   7
ATOM      7  C   UNL     1       2.612   6.099  19.245  0.00  0.00    +0.000 C 
ATOM      8  O   UNL     1       3.744   6.301  19.661  0.00  0.00    +0.000 OA
ATOM      9  N   UNL     1       1.725   7.107  18.946  0.00  0.00    +0.000 N 
ATOM     10  H   UNL     1       0.781   6.854  18.667  0.00  0.00    +0.000 HD
BRANCH   9  11
ATOM     11  C   UNL     1       2.047   8.509  19.128  0.00  0.00    +0.000 C 
BRANCH  11  12
ATOM     12  C   UNL     1       1.578   9.386  17.948  0.00  0.00    +0.000 C 
ATOM     13  C   UNL     1       2.125  10.816  18.011  0.00  0.00    +0.000 C 
ATOM     14  C   UNL     1       1.537  11.610  19.180  0.00  0.00    +0.000 C 
ATOM     15  N   UNL     1       0.059  11.613  19.198  0.00  0.00    +0.000 NA
ATOM     16  C   UNL     1      -0.500  10.250  19.107  0.00  0.00    +0.000 C 
ATOM     17  C   UNL     1       0.049   9.491  17.897  0.00  0.00    +0.000 C 
BRANCH  15  18
ATOM     18  C   UNL     1      -0.456  12.256  20.432  0.00  0.00    +0.000 C 
BRANCH  18  19
ATOM     19  C   UNL     1      -0.837  11.265  21.543  0.00  0.00    +0.000 C 
BRANCH  19  20
ATOM     20  O   UNL     1       0.305  10.904  22.314  0.00  0.00    +0.000 OA
ATOM     21  H   UNL     1       0.994  10.677  21.660  0.00  0.00    +0.000 HD
ENDBRANCH  19  20
ENDBRANCH  18  19
ENDBRANCH  15  18
ENDBRANCH  11  12
ENDBRANCH   9  11
ENDBRANCH   6   7
BRANCH   1  22
ATOM     22  O   UNL     1       3.555   4.449  17.015  0.00  0.00    +0.000 OA
BRANCH  22  23
ATOM     23  C   UNL     1       4.920   4.022  17.206  0.00  0.00    +0.000 C 
BRANCH  23  31
ATOM     24  C   UNL     1       5.422   2.583  11.825  0.00  0.00    +0.000 C 
ATOM     25  C   UNL     1       6.297   3.622  12.482  0.00  0.00    +0.000 A 
ATOM     26  C   UNL     1       7.180   4.328  11.733  0.00  0.00    +0.000 A 
ATOM     27  C   UNL     1       8.028   5.370  12.290  0.00  0.00    +0.000 A 
ATOM     28  C   UNL     1       7.956   5.636  13.604  0.00  0.00    +0.000 A 
ATOM     29  N   UNL     1       7.066   4.913  14.387  0.00  0.00    +0.000 N 
ATOM     30  C   UNL     1       6.793   5.036  15.724  0.00  0.00    +0.000 A 
ATOM     31  C   UNL     1       5.753   4.165  15.977  0.00  0.00    +0.000 A 
ATOM     32  N   UNL     1       5.434   3.456  14.835  0.00  0.00    +0.000 NA
ATOM     33  C   UNL     1       6.221   3.925  13.888  0.00  0.00    +0.000 A 
ENDBRANCH  23  31
ENDBRANCH  22  23
ENDBRANCH   1  22
TORSDOF 9
ENDMDL
MODEL 9
REMARK VINA RESULT:      -7.1      1.337      1.680
REMARK  Name = 
REMARK  10 active torsions:
REMARK  status: ('A' for Active; 'I' for Inactive)
REMARK    1  A    between atoms: C_1  and  C_2
REMARK    2  A    between atoms: C_8  and  C_9
REMARK    3  A    between atoms: C_9  and  O_10
REMARK    4  A    between atoms: O_10  and  C_11
REMARK    5  A    between atoms: C_16  and  C_17
REMARK    6  A    between atoms: N_19  and  C_20
REMARK    7  A    between atoms: C_20  and  C_21
REMARK    8  A    between atoms: N_24  and  C_25
REMARK    9  A    between atoms: C_25  and  C_26
REMARK   10  A    between atoms: C_26  and  O_27
REMARK                            x       y       z     vdW  Elec       q    Type
REMARK                         _______ _______ _______ _____ _____    ______ ____
ROOT
ATOM      1  C   UNL     1       2.749   4.759  19.877  0.00  0.00    +0.000 A 
ATOM      2  C   UNL     1       2.174   4.672  21.157  0.00  0.00    +0.000 A 
ATOM      3  C   UNL     1       1.663   3.463  21.633  0.00  0.00    +0.000 A 
ATOM      4  C   UNL     1       1.694   2.332  20.829  0.00  0.00    +0.000 A 
ATOM      5  C   UNL     1       2.205   2.419  19.535  0.00  0.00    +0.000 A 
ATOM      6  C   UNL     1       2.716   3.633  19.039  0.00  0.00    +0.000 A 
ENDROOT
BRANCH   6   7
ATOM      7  C   UNL     1       3.186   3.613  17.621  0.00  0.00    +0.000 C 
ATOM      8  O   UNL     1       2.385   3.402  16.721  0.00  0.00    +0.000 OA
ATOM      9  N   UNL     1       4.509   3.916  17.399  0.00  0.00    +0.000 N 
ATOM     10  H   UNL     1       5.124   4.013  18.203  0.00  0.00    +0.000 HD
BRANCH   9  11
ATOM     11  C   UNL     1       5.082   3.983  16.069  0.00  0.00    +0.000 C 
BRANCH  11  12
ATOM     12  C   UNL     1       6.625   3.941  16.081  0.00  0.00    +0.000 C 
ATOM     13  C   UNL     1       7.221   4.233  17.462  0.00  0.00    +0.000 C 
ATOM     14  C   UNL     1       6.992   5.682  17.897  0.00  0.00    +0.000 C 
ATOM     15  N   UNL     1       7.464   6.669  16.904  0.00  0.00    +0.000 NA
ATOM     16  C   UNL     1       6.932   6.398  15.554  0.00  0.00    +0.000 C 
ATOM     17  C   UNL     1       7.224   4.964  15.108  0.00  0.00    +0.000 C 
BRANCH  15  18
ATOM     18  C   UNL     1       7.077   8.047  17.299  0.00  0.00    +0.000 C 
BRANCH  18  19
ATOM     19  C   UNL     1       8.207   8.849  17.964  0.00  0.00    +0.000 C 
BRANCH  19  20
ATOM     20  O   UNL     1       8.785   8.115  19.039  0.00  0.00    +0.000 OA
ATOM     21  H   UNL     1       9.444   7.527  18.622  0.00  0.00    +0.000 HD
ENDBRANCH  19  20
ENDBRANCH  18  19
ENDBRANCH  15  18
ENDBRANCH  11  12
ENDBRANCH   9  11
ENDBRANCH   6   7
BRANCH   1  22
ATOM     22  O   UNL     1       3.351   5.912  19.429  0.00  0.00    +0.000 OA
BRANCH  22  23
ATOM     23  C   UNL     1       2.635   6.563  18.358  0.00  0.00    +0.000 C 
BRANCH  23  31
ATOM     24  C   UNL     1       0.469   9.346  22.698  0.00  0.00    +0.000 C 
ATOM     25  C   UNL     1       0.677   9.974  21.341  0.00  0.00    +0.000 A 
ATOM     26  C   UNL     1       0.435  11.297  21.168  0.00  0.00    +0.000 A 
ATOM     27  C   UNL     1       0.650  11.978  19.901  0.00  0.00    +0.000 A 
ATOM     28  C   UNL     1       1.084  11.269  18.847  0.00  0.00    +0.000 A 
ATOM     29  N   UNL     1       1.324   9.911  19.004  0.00  0.00    +0.000 N 
ATOM     30  C   UNL     1       1.803   9.006  18.093  0.00  0.00    +0.000 A 
ATOM     31  C   UNL     1       1.965   7.824  18.787  0.00  0.00    +0.000 A 
ATOM     32  N   UNL     1       1.522   7.968  20.087  0.00  0.00    +0.000 NA
ATOM     33  C   UNL     1       1.154   9.228  20.205  0.00  0.00    +0.000 A 
ENDBRANCH  23  31
ENDBRANCH  22  23
ENDBRANCH   1  22
TORSDOF 9
ENDMDL
