MODEL 1
REMARK VINA RESULT:      -6.5      0.000      0.000
REMARK  Name = 
REMARK  7 active torsions:
REMARK  status: ('A' for Active; 'I' for Inactive)
REMARK    1  A    between atoms: C_1  and  O_2
REMARK    2  A    between atoms: O_2  and  C_3
REMARK    3  A    between atoms: C_3  and  C_4
REMARK    4  A    between atoms: C_4  and  N_5
REMARK    5  A    between atoms: C_12  and  C_13
REMARK    6  A    between atoms: C_19  and  C_20
REMARK    7  A    between atoms: C_20  and  O_22
REMARK                            x       y       z     vdW  Elec       q    Type
REMARK                         _______ _______ _______ _____ _____    ______ ____
ROOT
ATOM      1  N   UNL     1       3.593   5.423  19.406  0.00  0.00    +0.000 NA
ATOM      2  C   UNL     1       2.430   5.201  20.260  0.00  0.00    +0.000 C 
ATOM      3  C   UNL     1       2.033   6.576  20.804  0.00  0.00    +0.000 C 
ATOM      4  C   UNL     1       1.931   7.645  19.729  0.00  0.00    +0.000 A 
ATOM      5  C   UNL     1       2.487   7.370  18.462  0.00  0.00    +0.000 A 
ATOM      6  C   UNL     1       2.389   8.325  17.467  0.00  0.00    +0.000 A 
ATOM      7  N   UNL     1       1.846   9.535  17.660  0.00  0.00    +0.000 NA
ATOM      8  C   UNL     1       1.350   9.847  18.895  0.00  0.00    +0.000 A 
ATOM      9  C   UNL     1       1.363   8.917  19.951  0.00  0.00    +0.000 A 
ATOM     10  C   UNL     1       3.177   6.068  18.164  0.00  0.00    +0.000 C 
ENDROOT
BRANCH   8  11
ATOM     11  C   UNL     1       0.899  11.255  18.958  0.00  0.00    +0.000 A 
ATOM     12  C   UNL     1      -0.448  11.573  18.686  0.00  0.00    +0.000 A 
ATOM     13  C   UNL     1      -0.897  12.895  18.645  0.00  0.00    +0.000 A 
ATOM     14  C   UNL     1      -0.006  13.934  18.882  0.00  0.00    +0.000 A 
ATOM     15  C   UNL     1       1.331  13.651  19.152  0.00  0.00    +0.000 A 
ATOM     16  C   UNL     1       1.780  12.326  19.178  0.00  0.00    +0.000 A 
ENDBRANCH   8  11
BRANCH   9  17
ATOM     17  C   UNL     1       0.680   9.228  21.219  0.00  0.00    +0.000 C 
ATOM     18  O   UNL     1       1.208   9.841  22.131  0.00  0.00    +0.000 OA
BRANCH  17  19
ATOM     19  O   UNL     1      -0.597   8.775  21.305  0.00  0.00    +0.000 OA
ATOM     20  H   UNL     1      -1.281   9.453  21.460  0.00  0.00    +0.000 HD
ENDBRANCH  17  19
ENDBRANCH   9  17
BRANCH   1  21
ATOM     21  C   UNL     1       4.465   4.272  19.247  0.00  0.00    +0.000 C 
BRANCH  21  22
ATOM     22  C   UNL     1       5.872   4.632  18.727  0.00  0.00    +0.000 C 
BRANCH  22  24
ATOM     23  C   UNL     1       7.851   5.797  19.219  0.00  0.00    +0.000 C 
ATOM     24  O   UNL     1       6.644   5.265  19.746  0.00  0.00    +0.000 OA
ENDBRANCH  22  24
ENDBRANCH  21  22
ENDBRANCH   1  21
TORSDOF 6
ENDMDL
MODEL 2
REMARK VINA RESULT:      -6.5      1.240      1.871
REMARK  Name = 
REMARK  7 active torsions:
REMARK  status: ('A' for Active; 'I' for Inactive)
REMARK    1  A    between atoms: C_1  and  O_2
REMARK    2  A    between atoms: O_2  and  C_3
REMARK    3  A    between atoms: C_3  and  C_4
REMARK    4  A    between atoms: C_4  and  N_5
REMARK    5  A    between atoms: C_12  and  C_13
REMARK    6  A    between atoms: C_19  and  C_20
REMARK    7  A    between atoms: C_20  and  O_22
REMARK                            x       y       z     vdW  Elec       q    Type
REMARK                         _______ _______ _______ _____ _____    ______ ____
ROOT
ATOM      1  N   UNL     1       3.698   5.364  19.407  0.00  0.00    +0.000 NA
ATOM      2  C   UNL     1       2.530   5.092  20.239  0.00  0.00    +0.000 C 
ATOM      3  C   UNL     1       2.079   6.445  20.796  0.00  0.00    +0.000 C 
ATOM      4  C   UNL     1       1.959   7.526  19.735  0.00  0.00    +0.000 A 
ATOM      5  C   UNL     1       2.543   7.288  18.473  0.00  0.00    +0.000 A 
ATOM      6  C   UNL     1       2.429   8.253  17.490  0.00  0.00    +0.000 A 
ATOM      7  N   UNL     1       1.844   9.442  17.691  0.00  0.00    +0.000 NA
ATOM      8  C   UNL     1       1.319   9.719  18.923  0.00  0.00    +0.000 A 
ATOM      9  C   UNL     1       1.346   8.775  19.965  0.00  0.00    +0.000 A 
ATOM     10  C   UNL     1       3.281   6.014  18.168  0.00  0.00    +0.000 C 
ENDROOT
BRANCH   8  11
ATOM     11  C   UNL     1       0.820  11.111  18.998  0.00  0.00    +0.000 A 
ATOM     12  C   UNL     1      -0.487  11.412  18.563  0.00  0.00    +0.000 A 
ATOM     13  C   UNL     1      -0.967  12.723  18.531  0.00  0.00    +0.000 A 
ATOM     14  C   UNL     1      -0.148  13.768  18.941  0.00  0.00    +0.000 A 
ATOM     15  C   UNL     1       1.149  13.501  19.374  0.00  0.00    +0.000 A 
ATOM     16  C   UNL     1       1.631  12.188  19.391  0.00  0.00    +0.000 A 
ENDBRANCH   8  11
BRANCH   9  17
ATOM     17  C   UNL     1       0.633   9.045  21.227  0.00  0.00    +0.000 C 
ATOM     18  O   UNL     1      -0.520   8.706  21.429  0.00  0.00    +0.000 OA
BRANCH  17  19
ATOM     19  O   UNL     1       1.360   9.711  22.161  0.00  0.00    +0.000 OA
ATOM     20  H   UNL     1       2.204  10.090  21.854  0.00  0.00    +0.000 HD
ENDBRANCH  17  19
ENDBRANCH   9  17
BRANCH   1  21
ATOM     21  C   UNL     1       4.611   4.245  19.246  0.00  0.00    +0.000 C 
BRANCH  21  22
ATOM     22  C   UNL     1       3.976   2.879  19.579  0.00  0.00    +0.000 C 
BRANCH  22  24
ATOM     23  C   UNL     1       2.551   2.264  17.816  0.00  0.00    +0.000 C 
ATOM     24  O   UNL     1       3.833   2.084  18.403  0.00  0.00    +0.000 OA
ENDBRANCH  22  24
ENDBRANCH  21  22
ENDBRANCH   1  21
TORSDOF 6
ENDMDL
MODEL 3
REMARK VINA RESULT:      -6.5      0.988      1.036
REMARK  Name = 
REMARK  7 active torsions:
REMARK  status: ('A' for Active; 'I' for Inactive)
REMARK    1  A    between atoms: C_1  and  O_2
REMARK    2  A    between atoms: O_2  and  C_3
REMARK    3  A    between atoms: C_3  and  C_4
REMARK    4  A    between atoms: C_4  and  N_5
REMARK    5  A    between atoms: C_12  and  C_13
REMARK    6  A    between atoms: C_19  and  C_20
REMARK    7  A    between atoms: C_20  and  O_22
REMARK                            x       y       z     vdW  Elec       q    Type
REMARK                         _______ _______ _______ _____ _____    ______ ____
ROOT
ATOM      1  N   UNL     1       3.951   5.683  19.250  0.00  0.00    +0.000 NA
ATOM      2  C   UNL     1       2.855   5.145  20.049  0.00  0.00    +0.000 C 
ATOM      3  C   UNL     1       2.244   6.337  20.791  0.00  0.00    +0.000 C 
ATOM      4  C   UNL     1       1.950   7.525  19.889  0.00  0.00    +0.000 A 
ATOM      5  C   UNL     1       2.525   7.540  18.601  0.00  0.00    +0.000 A 
ATOM      6  C   UNL     1       2.255   8.605  17.761  0.00  0.00    +0.000 A 
ATOM      7  N   UNL     1       1.523   9.665  18.129  0.00  0.00    +0.000 NA
ATOM      8  C   UNL     1       1.001   9.700  19.393  0.00  0.00    +0.000 A 
ATOM      9  C   UNL     1       1.184   8.636  20.295  0.00  0.00    +0.000 A 
ATOM     10  C   UNL     1       3.416   6.430  18.116  0.00  0.00    +0.000 C 
ENDROOT
BRANCH   8  11
ATOM     11  C   UNL     1       0.325  10.988  19.664  0.00  0.00    +0.000 A 
ATOM     12  C   UNL     1      -1.021  11.167  19.283  0.00  0.00    +0.000 A 
ATOM     13  C   UNL     1      -1.671  12.394  19.436  0.00  0.00    +0.000 A 
ATOM     14  C   UNL     1      -0.988  13.474  19.983  0.00  0.00    +0.000 A 
ATOM     15  C   UNL     1       0.343  13.327  20.366  0.00  0.00    +0.000 A 
ATOM     16  C   UNL     1       0.995  12.101  20.197  0.00  0.00    +0.000 A 
ENDBRANCH   8  11
BRANCH   9  17
ATOM     17  C   UNL     1       0.478   8.635  21.589  0.00  0.00    +0.000 C 
ATOM     18  O   UNL     1       0.938   9.133  22.602  0.00  0.00    +0.000 OA
BRANCH  17  19
ATOM     19  O   UNL     1      -0.737   8.028  21.576  0.00  0.00    +0.000 OA
ATOM     20  H   UNL     1      -0.771   7.154  21.146  0.00  0.00    +0.000 HD
ENDBRANCH  17  19
ENDBRANCH   9  17
BRANCH   1  21
ATOM     21  C   UNL     1       4.999   4.729  18.927  0.00  0.00    +0.000 C 
BRANCH  21  22
ATOM     22  C   UNL     1       6.423   5.272  19.170  0.00  0.00    +0.000 C 
BRANCH  22  24
ATOM     23  C   UNL     1       7.183   4.625  17.044  0.00  0.00    +0.000 C 
ATOM     24  O   UNL     1       7.387   4.510  18.445  0.00  0.00    +0.000 OA
ENDBRANCH  22  24
ENDBRANCH  21  22
ENDBRANCH   1  21
TORSDOF 6
ENDMDL
MODEL 4
REMARK VINA RESULT:      -6.4      0.764      1.420
REMARK  Name = 
REMARK  7 active torsions:
REMARK  status: ('A' for Active; 'I' for Inactive)
REMARK    1  A    between atoms: C_1  and  O_2
REMARK    2  A    between atoms: O_2  and  C_3
REMARK    3  A    between atoms: C_3  and  C_4
REMARK    4  A    between atoms: C_4  and  N_5
REMARK    5  A    between atoms: C_12  and  C_13
REMARK    6  A    between atoms: C_19  and  C_20
REMARK    7  A    between atoms: C_20  and  O_22
REMARK                            x       y       z     vdW  Elec       q    Type
REMARK                         _______ _______ _______ _____ _____    ______ ____
ROOT
ATOM      1  N   UNL     1       3.615   5.445  19.467  0.00  0.00    +0.000 NA
ATOM      2  C   UNL     1       2.454   5.027  20.245  0.00  0.00    +0.000 C 
ATOM      3  C   UNL     1       1.942   6.284  20.954  0.00  0.00    +0.000 C 
ATOM      4  C   UNL     1       1.785   7.479  20.029  0.00  0.00    +0.000 A 
ATOM      5  C   UNL     1       2.389   7.419  18.756  0.00  0.00    +0.000 A 
ATOM      6  C   UNL     1       2.243   8.491  17.895  0.00  0.00    +0.000 A 
ATOM      7  N   UNL     1       1.606   9.622  18.229  0.00  0.00    +0.000 NA
ATOM      8  C   UNL     1       1.061   9.727  19.479  0.00  0.00    +0.000 A 
ATOM      9  C   UNL     1       1.119   8.666  20.400  0.00  0.00    +0.000 A 
ATOM     10  C   UNL     1       3.181   6.222  18.309  0.00  0.00    +0.000 C 
ENDROOT
BRANCH   8  11
ATOM     11  C   UNL     1       0.504  11.078  19.715  0.00  0.00    +0.000 A 
ATOM     12  C   UNL     1       1.302  12.069  20.323  0.00  0.00    +0.000 A 
ATOM     13  C   UNL     1       0.791  13.327  20.647  0.00  0.00    +0.000 A 
ATOM     14  C   UNL     1      -0.536  13.628  20.363  0.00  0.00    +0.000 A 
ATOM     15  C   UNL     1      -1.349  12.667  19.764  0.00  0.00    +0.000 A 
ATOM     16  C   UNL     1      -0.837  11.403  19.454  0.00  0.00    +0.000 A 
ENDBRANCH   8  11
BRANCH   9  17
ATOM     17  C   UNL     1       0.386   8.752  21.676  0.00  0.00    +0.000 C 
ATOM     18  O   UNL     1      -0.744   8.320  21.829  0.00  0.00    +0.000 OA
BRANCH  17  19
ATOM     19  O   UNL     1       1.064   9.359  22.683  0.00  0.00    +0.000 OA
ATOM     20  H   UNL     1       0.604  10.098  23.123  0.00  0.00    +0.000 HD
ENDBRANCH  17  19
ENDBRANCH   9  17
BRANCH   1  21
ATOM     21  C   UNL     1       4.575   4.391  19.183  0.00  0.00    +0.000 C 
BRANCH  21  22
ATOM     22  C   UNL     1       5.929   4.914  18.661  0.00  0.00    +0.000 C 
BRANCH  22  24
ATOM     23  C   UNL     1       7.985   5.867  19.279  0.00  0.00    +0.000 C 
ATOM     24  O   UNL     1       6.804   5.228  19.743  0.00  0.00    +0.000 OA
ENDBRANCH  22  24
ENDBRANCH  21  22
ENDBRANCH   1  21
TORSDOF 6
ENDMDL
MODEL 5
REMARK VINA RESULT:      -6.4      1.375      2.207
REMARK  Name = 
REMARK  7 active torsions:
REMARK  status: ('A' for Active; 'I' for Inactive)
REMARK    1  A    between atoms: C_1  and  O_2
REMARK    2  A    between atoms: O_2  and  C_3
REMARK    3  A    between atoms: C_3  and  C_4
REMARK    4  A    between atoms: C_4  and  N_5
REMARK    5  A    between atoms: C_12  and  C_13
REMARK    6  A    between atoms: C_19  and  C_20
REMARK    7  A    between atoms: C_20  and  O_22
REMARK                            x       y       z     vdW  Elec       q    Type
REMARK                         _______ _______ _______ _____ _____    ______ ____
ROOT
ATOM      1  N   UNL     1       3.810   5.609  19.365  0.00  0.00    +0.000 NA
ATOM      2  C   UNL     1       2.684   5.125  20.157  0.00  0.00    +0.000 C 
ATOM      3  C   UNL     1       2.110   6.350  20.874  0.00  0.00    +0.000 C 
ATOM      4  C   UNL     1       1.874   7.535  19.951  0.00  0.00    +0.000 A 
ATOM      5  C   UNL     1       2.464   7.509  18.670  0.00  0.00    +0.000 A 
ATOM      6  C   UNL     1       2.246   8.570  17.812  0.00  0.00    +0.000 A 
ATOM      7  N   UNL     1       1.550   9.663  18.155  0.00  0.00    +0.000 NA
ATOM      8  C   UNL     1       1.015   9.737  19.411  0.00  0.00    +0.000 A 
ATOM      9  C   UNL     1       1.145   8.681  20.332  0.00  0.00    +0.000 A 
ATOM     10  C   UNL     1       3.318   6.359  18.213  0.00  0.00    +0.000 C 
ENDROOT
BRANCH   8  11
ATOM     11  C   UNL     1       0.384  11.054  19.655  0.00  0.00    +0.000 A 
ATOM     12  C   UNL     1       1.138  12.096  20.234  0.00  0.00    +0.000 A 
ATOM     13  C   UNL     1       0.562  13.324  20.565  0.00  0.00    +0.000 A 
ATOM     14  C   UNL     1      -0.789  13.541  20.317  0.00  0.00    +0.000 A 
ATOM     15  C   UNL     1      -1.559  12.530  19.748  0.00  0.00    +0.000 A 
ATOM     16  C   UNL     1      -0.981  11.296  19.431  0.00  0.00    +0.000 A 
ENDBRANCH   8  11
BRANCH   9  17
ATOM     17  C   UNL     1       0.424   8.726  21.616  0.00  0.00    +0.000 C 
ATOM     18  O   UNL     1      -0.680   8.236  21.781  0.00  0.00    +0.000 OA
BRANCH  17  19
ATOM     19  O   UNL     1       1.083   9.363  22.618  0.00  0.00    +0.000 OA
ATOM     20  H   UNL     1       0.689  10.200  22.923  0.00  0.00    +0.000 HD
ENDBRANCH  17  19
ENDBRANCH   9  17
BRANCH   1  21
ATOM     21  C   UNL     1       4.825   4.611  19.069  0.00  0.00    +0.000 C 
BRANCH  21  22
ATOM     22  C   UNL     1       4.289   3.165  19.078  0.00  0.00    +0.000 C 
BRANCH  22  24
ATOM     23  C   UNL     1       2.571   2.281  17.743  0.00  0.00    +0.000 C 
ATOM     24  O   UNL     1       3.910   2.755  17.765  0.00  0.00    +0.000 OA
ENDBRANCH  22  24
ENDBRANCH  21  22
ENDBRANCH   1  21
TORSDOF 6
ENDMDL
MODEL 6
REMARK VINA RESULT:      -6.3      1.386      1.555
REMARK  Name = 
REMARK  7 active torsions:
REMARK  status: ('A' for Active; 'I' for Inactive)
REMARK    1  A    between atoms: C_1  and  O_2
REMARK    2  A    between atoms: O_2  and  C_3
REMARK    3  A    between atoms: C_3  and  C_4
REMARK    4  A    between atoms: C_4  and  N_5
REMARK    5  A    between atoms: C_12  and  C_13
REMARK    6  A    between atoms: C_19  and  C_20
REMARK    7  A    between atoms: C_20  and  O_22
REMARK                            x       y       z     vdW  Elec       q    Type
REMARK                         _______ _______ _______ _____ _____    ______ ____
ROOT
ATOM      1  N   UNL     1       3.670   6.310  18.788  0.00  0.00    +0.000 NA
ATOM      2  C   UNL     1       2.629   5.642  19.562  0.00  0.00    +0.000 C 
ATOM      3  C   UNL     1       2.061   6.699  20.513  0.00  0.00    +0.000 C 
ATOM      4  C   UNL     1       1.705   8.006  19.822  0.00  0.00    +0.000 A 
ATOM      5  C   UNL     1       2.197   8.224  18.518  0.00  0.00    +0.000 A 
ATOM      6  C   UNL     1       1.869   9.399  17.868  0.00  0.00    +0.000 A 
ATOM      7  N   UNL     1       1.157  10.381  18.438  0.00  0.00    +0.000 NA
ATOM      8  C   UNL     1       0.716  10.217  19.722  0.00  0.00    +0.000 A 
ATOM      9  C   UNL     1       0.960   9.032  20.439  0.00  0.00    +0.000 A 
ATOM     10  C   UNL     1       3.060   7.213  17.816  0.00  0.00    +0.000 C 
ENDROOT
BRANCH   8  11
ATOM     11  C   UNL     1       0.052  11.440  20.227  0.00  0.00    +0.000 A 
ATOM     12  C   UNL     1      -1.311  11.667  19.941  0.00  0.00    +0.000 A 
ATOM     13  C   UNL     1      -1.954  12.847  20.318  0.00  0.00    +0.000 A 
ATOM     14  C   UNL     1      -1.247  13.831  21.000  0.00  0.00    +0.000 A 
ATOM     15  C   UNL     1       0.101  13.635  21.294  0.00  0.00    +0.000 A 
ATOM     16  C   UNL     1       0.745  12.458  20.901  0.00  0.00    +0.000 A 
ENDBRANCH   8  11
BRANCH   9  17
ATOM     17  C   UNL     1       0.338   8.825  21.759  0.00  0.00    +0.000 C 
ATOM     18  O   UNL     1      -0.728   8.253  21.914  0.00  0.00    +0.000 OA
BRANCH  17  19
ATOM     19  O   UNL     1       1.042   9.325  22.807  0.00  0.00    +0.000 OA
ATOM     20  H   UNL     1       1.903   8.901  22.983  0.00  0.00    +0.000 HD
ENDBRANCH  17  19
ENDBRANCH   9  17
BRANCH   1  21
ATOM     21  C   UNL     1       4.700   5.432  18.260  0.00  0.00    +0.000 C 
BRANCH  21  22
ATOM     22  C   UNL     1       5.888   5.227  19.222  0.00  0.00    +0.000 C 
BRANCH  22  24
ATOM     23  C   UNL     1       7.435   4.754  17.518  0.00  0.00    +0.000 C 
ATOM     24  O   UNL     1       6.807   4.269  18.697  0.00  0.00    +0.000 OA
ENDBRANCH  22  24
ENDBRANCH  21  22
ENDBRANCH   1  21
TORSDOF 6
ENDMDL
MODEL 7
REMARK VINA RESULT:      -6.3      1.143      1.471
REMARK  Name = 
REMARK  7 active torsions:
REMARK  status: ('A' for Active; 'I' for Inactive)
REMARK    1  A    between atoms: C_1  and  O_2
REMARK    2  A    between atoms: O_2  and  C_3
REMARK    3  A    between atoms: C_3  and  C_4
REMARK    4  A    between atoms: C_4  and  N_5
REMARK    5  A    between atoms: C_12  and  C_13
REMARK    6  A    between atoms: C_19  and  C_20
REMARK    7  A    between atoms: C_20  and  O_22
REMARK                            x       y       z     vdW  Elec       q    Type
REMARK                         _______ _______ _______ _____ _____    ______ ____
ROOT
ATOM      1  N   UNL     1       3.824   5.522  19.282  0.00  0.00    +0.000 NA
ATOM      2  C   UNL     1       2.703   5.090  20.110  0.00  0.00    +0.000 C 
ATOM      3  C   UNL     1       2.177   6.349  20.804  0.00  0.00    +0.000 C 
ATOM      4  C   UNL     1       1.952   7.514  19.855  0.00  0.00    +0.000 A 
ATOM      5  C   UNL     1       2.514   7.439  18.564  0.00  0.00    +0.000 A 
ATOM      6  C   UNL     1       2.306   8.482  17.681  0.00  0.00    +0.000 A 
ATOM      7  N   UNL     1       1.647   9.602  18.008  0.00  0.00    +0.000 NA
ATOM      8  C   UNL     1       1.140   9.723  19.273  0.00  0.00    +0.000 A 
ATOM      9  C   UNL     1       1.262   8.689  20.218  0.00  0.00    +0.000 A 
ATOM     10  C   UNL     1       3.328   6.255  18.121  0.00  0.00    +0.000 C 
ENDROOT
BRANCH   8  11
ATOM     11  C   UNL     1       0.550  11.063  19.493  0.00  0.00    +0.000 A 
ATOM     12  C   UNL     1      -0.775  11.322  19.083  0.00  0.00    +0.000 A 
ATOM     13  C   UNL     1      -1.341  12.594  19.188  0.00  0.00    +0.000 A 
ATOM     14  C   UNL     1      -0.593  13.641  19.714  0.00  0.00    +0.000 A 
ATOM     15  C   UNL     1       0.719  13.415  20.125  0.00  0.00    +0.000 A 
ATOM     16  C   UNL     1       1.287  12.143  20.005  0.00  0.00    +0.000 A 
ENDBRANCH   8  11
BRANCH   9  17
ATOM     17  C   UNL     1       0.569   8.788  21.516  0.00  0.00    +0.000 C 
ATOM     18  O   UNL     1      -0.569   8.391  21.698  0.00  0.00    +0.000 OA
BRANCH  17  19
ATOM     19  O   UNL     1       1.297   9.363  22.508  0.00  0.00    +0.000 OA
ATOM     20  H   UNL     1       1.795   8.751  23.080  0.00  0.00    +0.000 HD
ENDBRANCH  17  19
ENDBRANCH   9  17
BRANCH   1  21
ATOM     21  C   UNL     1       4.807   4.490  18.993  0.00  0.00    +0.000 C 
BRANCH  21  22
ATOM     22  C   UNL     1       4.803   4.031  17.520  0.00  0.00    +0.000 C 
BRANCH  22  24
ATOM     23  C   UNL     1       6.049   3.923  15.532  0.00  0.00    +0.000 C 
ATOM     24  O   UNL     1       6.068   4.276  16.909  0.00  0.00    +0.000 OA
ENDBRANCH  22  24
ENDBRANCH  21  22
ENDBRANCH   1  21
TORSDOF 6
ENDMDL
MODEL 8
REMARK VINA RESULT:      -6.3      2.690      3.965
REMARK  Name = 
REMARK  7 active torsions:
REMARK  status: ('A' for Active; 'I' for Inactive)
REMARK    1  A    between atoms: C_1  and  O_2
REMARK    2  A    between atoms: O_2  and  C_3
REMARK    3  A    between atoms: C_3  and  C_4
REMARK    4  A    between atoms: C_4  and  N_5
REMARK    5  A    between atoms: C_12  and  C_13
REMARK    6  A    between atoms: C_19  and  C_20
REMARK    7  A    between atoms: C_20  and  O_22
REMARK                            x       y       z     vdW  Elec       q    Type
REMARK                         _______ _______ _______ _____ _____    ______ ____
ROOT
ATOM      1  N   UNL     1       5.642   4.832  17.042  0.00  0.00    +0.000 NA
ATOM      2  C   UNL     1       4.651   3.797  17.316  0.00  0.00    +0.000 C 
ATOM      3  C   UNL     1       3.902   4.248  18.573  0.00  0.00    +0.000 C 
ATOM      4  C   UNL     1       3.425   5.690  18.509  0.00  0.00    +0.000 A 
ATOM      5  C   UNL     1       3.958   6.523  17.504  0.00  0.00    +0.000 A 
ATOM      6  C   UNL     1       3.524   7.832  17.420  0.00  0.00    +0.000 A 
ATOM      7  N   UNL     1       2.663   8.379  18.290  0.00  0.00    +0.000 NA
ATOM      8  C   UNL     1       2.174   7.607  19.307  0.00  0.00    +0.000 A 
ATOM      9  C   UNL     1       2.524   6.251  19.438  0.00  0.00    +0.000 A 
ATOM     10  C   UNL     1       4.980   6.024  16.520  0.00  0.00    +0.000 C 
ENDROOT
BRANCH   8  11
ATOM     11  C   UNL     1       1.335   8.400  20.233  0.00  0.00    +0.000 A 
ATOM     12  C   UNL     1       0.389   9.311  19.717  0.00  0.00    +0.000 A 
ATOM     13  C   UNL     1      -0.359  10.144  20.551  0.00  0.00    +0.000 A 
ATOM     14  C   UNL     1      -0.182  10.082  21.928  0.00  0.00    +0.000 A 
ATOM     15  C   UNL     1       0.746   9.194  22.466  0.00  0.00    +0.000 A 
ATOM     16  C   UNL     1       1.504   8.371  21.627  0.00  0.00    +0.000 A 
ENDBRANCH   8  11
BRANCH   9  17
ATOM     17  C   UNL     1       1.859   5.409  20.448  0.00  0.00    +0.000 C 
ATOM     18  O   UNL     1       0.740   4.948  20.303  0.00  0.00    +0.000 OA
BRANCH  17  19
ATOM     19  O   UNL     1       2.588   5.182  21.571  0.00  0.00    +0.000 OA
ATOM     20  H   UNL     1       2.310   4.421  22.113  0.00  0.00    +0.000 HD
ENDBRANCH  17  19
ENDBRANCH   9  17
BRANCH   1  21
ATOM     21  C   UNL     1       6.803   4.386  16.289  0.00  0.00    +0.000 C 
BRANCH  21  22
ATOM     22  C   UNL     1       6.744   4.750  14.791  0.00  0.00    +0.000 C 
BRANCH  22  24
ATOM     23  C   UNL     1       5.383   3.845  13.104  0.00  0.00    +0.000 C 
ATOM     24  O   UNL     1       6.459   3.599  13.999  0.00  0.00    +0.000 OA
ENDBRANCH  22  24
ENDBRANCH  21  22
ENDBRANCH   1  21
TORSDOF 6
ENDMDL
MODEL 9
REMARK VINA RESULT:      -6.2      1.517      2.155
REMARK  Name = 
REMARK  7 active torsions:
REMARK  status: ('A' for Active; 'I' for Inactive)
REMARK    1  A    between atoms: C_1  and  O_2
REMARK    2  A    between atoms: O_2  and  C_3
REMARK    3  A    between atoms: C_3  and  C_4
REMARK    4  A    between atoms: C_4  and  N_5
REMARK    5  A    between atoms: C_12  and  C_13
REMARK    6  A    between atoms: C_19  and  C_20
REMARK    7  A    between atoms: C_20  and  O_22
REMARK                            x       y       z     vdW  Elec       q    Type
REMARK                         _______ _______ _______ _____ _____    ______ ____
ROOT
ATOM      1  N   UNL     1       3.663   6.224  18.855  0.00  0.00    +0.000 NA
ATOM      2  C   UNL     1       2.598   5.584  19.620  0.00  0.00    +0.000 C 
ATOM      3  C   UNL     1       2.036   6.663  20.550  0.00  0.00    +0.000 C 
ATOM      4  C   UNL     1       1.715   7.967  19.839  0.00  0.00    +0.000 A 
ATOM      5  C   UNL     1       2.231   8.161  18.541  0.00  0.00    +0.000 A 
ATOM      6  C   UNL     1       1.936   9.335  17.873  0.00  0.00    +0.000 A 
ATOM      7  N   UNL     1       1.234  10.337  18.420  0.00  0.00    +0.000 NA
ATOM      8  C   UNL     1       0.770  10.196  19.699  0.00  0.00    +0.000 A 
ATOM      9  C   UNL     1       0.981   9.015  20.434  0.00  0.00    +0.000 A 
ATOM     10  C   UNL     1       3.086   7.127  17.864  0.00  0.00    +0.000 C 
ENDROOT
BRANCH   8  11
ATOM     11  C   UNL     1       0.122  11.437  20.180  0.00  0.00    +0.000 A 
ATOM     12  C   UNL     1       0.886  12.411  20.855  0.00  0.00    +0.000 A 
ATOM     13  C   UNL     1       0.300  13.553  21.405  0.00  0.00    +0.000 A 
ATOM     14  C   UNL     1      -1.071  13.751  21.287  0.00  0.00    +0.000 A 
ATOM     15  C   UNL     1      -1.851  12.804  20.627  0.00  0.00    +0.000 A 
ATOM     16  C   UNL     1      -1.263  11.655  20.090  0.00  0.00    +0.000 A 
ENDBRANCH   8  11
BRANCH   9  17
ATOM     17  C   UNL     1       0.335   8.834  21.746  0.00  0.00    +0.000 C 
ATOM     18  O   UNL     1      -0.719   8.240  21.897  0.00  0.00    +0.000 OA
BRANCH  17  19
ATOM     19  O   UNL     1       1.003   9.387  22.791  0.00  0.00    +0.000 OA
ATOM     20  H   UNL     1       0.450   9.803  23.478  0.00  0.00    +0.000 HD
ENDBRANCH  17  19
ENDBRANCH   9  17
BRANCH   1  21
ATOM     21  C   UNL     1       4.684   5.320  18.352  0.00  0.00    +0.000 C 
BRANCH  21  22
ATOM     22  C   UNL     1       4.331   3.829  18.531  0.00  0.00    +0.000 C 
BRANCH  22  24
ATOM     23  C   UNL     1       4.440   2.157  20.177  0.00  0.00    +0.000 C 
ATOM     24  O   UNL     1       5.124   3.239  19.559  0.00  0.00    +0.000 OA
ENDBRANCH  22  24
ENDBRANCH  21  22
ENDBRANCH   1  21
TORSDOF 6
ENDMDL
