MODEL 1
REMARK VINA RESULT:      -7.8      0.000      0.000
REMARK  Name = 
REMARK  8 active torsions:
REMARK  status: ('A' for Active; 'I' for Inactive)
REMARK    1  A    between atoms: C_1  and  O_2
REMARK    2  A    between atoms: O_2  and  C_3
REMARK    3  A    between atoms: C_6  and  C_7
REMARK    4  A    between atoms: C_7  and  N_8
REMARK    5  A    between atoms: N_8  and  N_20
REMARK    6  A    between atoms: N_11  and  C_12
REMARK    7  A    between atoms: C_26  and  O_27
REMARK    8  A    between atoms: O_27  and  C_28
REMARK                            x       y       z     vdW  Elec       q    Type
REMARK                         _______ _______ _______ _____ _____    ______ ____
ROOT
ATOM      1  N   UNL     1       1.311   8.869  19.917  0.00  0.00    +0.000 N 
ATOM      2  C   UNL     1       1.904   7.637  19.655  0.00  0.00    +0.000 C 
ATOM      3  O   UNL     1       2.096   6.807  20.547  0.00  0.00    +0.000 OA
ATOM      4  N   UNL     1       2.231   7.387  18.339  0.00  0.00    +0.000 N 
ATOM      5  H   UNL     1       1.625   7.788  17.636  0.00  0.00    +0.000 HD
ENDROOT
BRANCH   4   6
ATOM      6  C   UNL     1       3.078   6.344  17.896  0.00  0.00    +0.000 A 
ATOM      7  C   UNL     1       4.351   6.584  17.362  0.00  0.00    +0.000 A 
ATOM      8  C   UNL     1       5.113   5.537  16.840  0.00  0.00    +0.000 A 
ATOM      9  C   UNL     1       4.610   4.244  16.863  0.00  0.00    +0.000 A 
ATOM     10  F   UNL     1       5.342   3.257  16.326  0.00  0.00    +0.000 F 
ATOM     11  C   UNL     1       3.361   3.985  17.420  0.00  0.00    +0.000 A 
ATOM     12 CL   UNL     1       2.740   2.378  17.468  0.00  0.00    +0.000 Cl
ATOM     13  C   UNL     1       2.590   5.033  17.932  0.00  0.00    +0.000 A 
ENDBRANCH   4   6
BRANCH   1  14
ATOM     14  N   UNL     1       0.814   9.004  21.209  0.00  0.00    +0.000 N 
ATOM     15  C   UNL     1      -0.424   8.634  21.639  0.00  0.00    +0.000 A 
ATOM     16  N   UNL     1      -0.578   9.009  22.889  0.00  0.00    +0.000 NA
ATOM     17  N   UNL     1       0.584   9.645  23.281  0.00  0.00    +0.000 NA
ATOM     18  C   UNL     1       1.413   9.628  22.259  0.00  0.00    +0.000 A 
ENDBRANCH   1  14
BRANCH   1  19
ATOM     19  C   UNL     1       1.246  10.007  18.990  0.00  0.00    +0.000 C 
BRANCH  19  23
ATOM     20  C   UNL     1      -2.783  11.473  18.253  0.00  0.00    +0.000 A 
ATOM     21  C   UNL     1      -1.975  12.099  19.208  0.00  0.00    +0.000 A 
ATOM     22  C   UNL     1      -0.672  11.642  19.455  0.00  0.00    +0.000 A 
ATOM     23  C   UNL     1      -0.153  10.545  18.750  0.00  0.00    +0.000 A 
ATOM     24  C   UNL     1      -0.968   9.931  17.787  0.00  0.00    +0.000 A 
ATOM     25  C   UNL     1      -2.286  10.353  17.577  0.00  0.00    +0.000 A 
BRANCH  20  27
ATOM     26  C   UNL     1      -4.936  11.989  19.063  0.00  0.00    +0.000 C 
ATOM     27  O   UNL     1      -4.052  11.893  17.949  0.00  0.00    +0.000 OA
ENDBRANCH  20  27
BRANCH  25  28
ATOM     28  O   UNL     1      -2.986   9.636  16.641  0.00  0.00    +0.000 OA
ATOM     29  C   UNL     1      -2.891  10.187  15.326  0.00  0.00    +0.000 C 
ENDBRANCH  25  28
ENDBRANCH  19  23
ENDBRANCH   1  19
TORSDOF 6
ENDMDL
MODEL 2
REMARK VINA RESULT:      -7.8      3.770      5.341
REMARK  Name = 
REMARK  8 active torsions:
REMARK  status: ('A' for Active; 'I' for Inactive)
REMARK    1  A    between atoms: C_1  and  O_2
REMARK    2  A    between atoms: O_2  and  C_3
REMARK    3  A    between atoms: C_6  and  C_7
REMARK    4  A    between atoms: C_7  and  N_8
REMARK    5  A    between atoms: N_8  and  N_20
REMARK    6  A    between atoms: N_11  and  C_12
REMARK    7  A    between atoms: C_26  and  O_27
REMARK    8  A    between atoms: O_27  and  C_28
REMARK                            x       y       z     vdW  Elec       q    Type
REMARK                         _______ _______ _______ _____ _____    ______ ____
ROOT
ATOM      1  N   UNL     1       3.504   4.684  18.575  0.00  0.00    +0.000 N 
ATOM      2  C   UNL     1       3.960   4.224  17.343  0.00  0.00    +0.000 C 
ATOM      3  O   UNL     1       3.714   3.083  16.947  0.00  0.00    +0.000 OA
ATOM      4  N   UNL     1       4.672   5.127  16.582  0.00  0.00    +0.000 N 
ATOM      5  H   UNL     1       4.406   6.099  16.663  0.00  0.00    +0.000 HD
ENDROOT
BRANCH   4   6
ATOM      6  C   UNL     1       5.454   4.797  15.450  0.00  0.00    +0.000 A 
ATOM      7  C   UNL     1       6.822   5.087  15.370  0.00  0.00    +0.000 A 
ATOM      8  C   UNL     1       7.534   4.840  14.195  0.00  0.00    +0.000 A 
ATOM      9  C   UNL     1       6.884   4.290  13.100  0.00  0.00    +0.000 A 
ATOM     10  F   UNL     1       7.577   4.092  11.970  0.00  0.00    +0.000 F 
ATOM     11  C   UNL     1       5.532   3.966  13.175  0.00  0.00    +0.000 A 
ATOM     12 CL   UNL     1       4.724   3.264  11.824  0.00  0.00    +0.000 Cl
ATOM     13  C   UNL     1       4.813   4.223  14.346  0.00  0.00    +0.000 A 
ENDBRANCH   4   6
BRANCH   1  14
ATOM     14  N   UNL     1       2.625   3.821  19.222  0.00  0.00    +0.000 N 
ATOM     15  C   UNL     1       1.287   3.714  18.993  0.00  0.00    +0.000 A 
ATOM     16  N   UNL     1       0.767   2.874  19.860  0.00  0.00    +0.000 NA
ATOM     17  N   UNL     1       1.787   2.431  20.677  0.00  0.00    +0.000 NA
ATOM     18  C   UNL     1       2.900   3.007  20.275  0.00  0.00    +0.000 A 
ENDBRANCH   1  14
BRANCH   1  19
ATOM     19  C   UNL     1       3.926   5.925  19.241  0.00  0.00    +0.000 C 
BRANCH  19  23
ATOM     20  C   UNL     1       1.164   9.261  18.833  0.00  0.00    +0.000 A 
ATOM     21  C   UNL     1       2.019   8.929  17.778  0.00  0.00    +0.000 A 
ATOM     22  C   UNL     1       2.913   7.854  17.891  0.00  0.00    +0.000 A 
ATOM     23  C   UNL     1       2.969   7.090  19.067  0.00  0.00    +0.000 A 
ATOM     24  C   UNL     1       2.099   7.425  20.116  0.00  0.00    +0.000 A 
ATOM     25  C   UNL     1       1.244   8.530  20.024  0.00  0.00    +0.000 A 
BRANCH  20  27
ATOM     26  C   UNL     1       0.789  11.584  18.984  0.00  0.00    +0.000 C 
ATOM     27  O   UNL     1       0.251  10.281  18.770  0.00  0.00    +0.000 OA
ENDBRANCH  20  27
BRANCH  25  28
ATOM     28  O   UNL     1       0.482   8.772  21.139  0.00  0.00    +0.000 OA
ATOM     29  C   UNL     1       1.255   9.171  22.272  0.00  0.00    +0.000 C 
ENDBRANCH  25  28
ENDBRANCH  19  23
ENDBRANCH   1  19
TORSDOF 6
ENDMDL
MODEL 3
REMARK VINA RESULT:      -7.7      4.328      8.730
REMARK  Name = 
REMARK  8 active torsions:
REMARK  status: ('A' for Active; 'I' for Inactive)
REMARK    1  A    between atoms: C_1  and  O_2
REMARK    2  A    between atoms: O_2  and  C_3
REMARK    3  A    between atoms: C_6  and  C_7
REMARK    4  A    between atoms: C_7  and  N_8
REMARK    5  A    between atoms: N_8  and  N_20
REMARK    6  A    between atoms: N_11  and  C_12
REMARK    7  A    between atoms: C_26  and  O_27
REMARK    8  A    between atoms: O_27  and  C_28
REMARK                            x       y       z     vdW  Elec       q    Type
REMARK                         _______ _______ _______ _____ _____    ______ ____
ROOT
ATOM      1  N   UNL     1       3.440   4.783  19.442  0.00  0.00    +0.000 N 
ATOM      2  C   UNL     1       2.352   5.629  19.637  0.00  0.00    +0.000 C 
ATOM      3  O   UNL     1       1.206   5.293  19.330  0.00  0.00    +0.000 OA
ATOM      4  N   UNL     1       2.627   6.847  20.224  0.00  0.00    +0.000 N 
ATOM      5  H   UNL     1       3.378   6.867  20.899  0.00  0.00    +0.000 HD
ENDROOT
BRANCH   4   6
ATOM      6  C   UNL     1       1.741   7.950  20.258  0.00  0.00    +0.000 A 
ATOM      7  C   UNL     1       1.518   8.770  19.144  0.00  0.00    +0.000 A 
ATOM      8  C   UNL     1       0.718   9.910  19.248  0.00  0.00    +0.000 A 
ATOM      9  C   UNL     1       0.128  10.226  20.463  0.00  0.00    +0.000 A 
ATOM     10  F   UNL     1      -0.609  11.342  20.552  0.00  0.00    +0.000 F 
ATOM     11  C   UNL     1       0.313   9.402  21.570  0.00  0.00    +0.000 A 
ATOM     12 CL   UNL     1      -0.434   9.780  23.077  0.00  0.00    +0.000 Cl
ATOM     13  C   UNL     1       1.124   8.267  21.473  0.00  0.00    +0.000 A 
ENDBRANCH   4   6
BRANCH   1  14
ATOM     14  N   UNL     1       3.101   3.495  19.039  0.00  0.00    +0.000 N 
ATOM     15  C   UNL     1       3.481   2.335  19.644  0.00  0.00    +0.000 A 
ATOM     16  N   UNL     1       3.061   1.317  18.927  0.00  0.00    +0.000 NA
ATOM     17  N   UNL     1       2.400   1.824  17.826  0.00  0.00    +0.000 NA
ATOM     18  C   UNL     1       2.429   3.137  17.912  0.00  0.00    +0.000 A 
ENDBRANCH   1  14
BRANCH   1  19
ATOM     19  C   UNL     1       4.856   5.161  19.554  0.00  0.00    +0.000 C 
BRANCH  19  23
ATOM     20  C   UNL     1       7.043   5.367  15.799  0.00  0.00    +0.000 A 
ATOM     21  C   UNL     1       6.207   4.278  16.062  0.00  0.00    +0.000 A 
ATOM     22  C   UNL     1       5.491   4.197  17.266  0.00  0.00    +0.000 A 
ATOM     23  C   UNL     1       5.601   5.208  18.233  0.00  0.00    +0.000 A 
ATOM     24  C   UNL     1       6.436   6.302  17.954  0.00  0.00    +0.000 A 
ATOM     25  C   UNL     1       7.191   6.357  16.777  0.00  0.00    +0.000 A 
BRANCH  20  27
ATOM     26  C   UNL     1       7.248   4.753  13.532  0.00  0.00    +0.000 C 
ATOM     27  O   UNL     1       7.745   5.513  14.631  0.00  0.00    +0.000 OA
ENDBRANCH  20  27
BRANCH  25  28
ATOM     28  O   UNL     1       7.999   7.458  16.654  0.00  0.00    +0.000 OA
ATOM     29  C   UNL     1       7.855   8.385  17.731  0.00  0.00    +0.000 C 
ENDBRANCH  25  28
ENDBRANCH  19  23
ENDBRANCH   1  19
TORSDOF 6
ENDMDL
MODEL 4
REMARK VINA RESULT:      -7.6      1.326      1.739
REMARK  Name = 
REMARK  8 active torsions:
REMARK  status: ('A' for Active; 'I' for Inactive)
REMARK    1  A    between atoms: C_1  and  O_2
REMARK    2  A    between atoms: O_2  and  C_3
REMARK    3  A    between atoms: C_6  and  C_7
REMARK    4  A    between atoms: C_7  and  N_8
REMARK    5  A    between atoms: N_8  and  N_20
REMARK    6  A    between atoms: N_11  and  C_12
REMARK    7  A    between atoms: C_26  and  O_27
REMARK    8  A    between atoms: O_27  and  C_28
REMARK                            x       y       z     vdW  Elec       q    Type
REMARK                         _______ _______ _______ _____ _____    ______ ____
ROOT
ATOM      1  N   UNL     1       1.036   9.200  19.703  0.00  0.00    +0.000 N 
ATOM      2  C   UNL     1       1.760   8.023  19.537  0.00  0.00    +0.000 C 
ATOM      3  O   UNL     1       2.041   7.295  20.492  0.00  0.00    +0.000 OA
ATOM      4  N   UNL     1       2.114   7.705  18.243  0.00  0.00    +0.000 N 
ATOM      5  H   UNL     1       1.469   7.978  17.515  0.00  0.00    +0.000 HD
ENDROOT
BRANCH   4   6
ATOM      6  C   UNL     1       3.072   6.728  17.880  0.00  0.00    +0.000 A 
ATOM      7  C   UNL     1       2.766   5.362  17.818  0.00  0.00    +0.000 A 
ATOM      8  C   UNL     1       3.764   4.420  17.558  0.00  0.00    +0.000 A 
ATOM      9  C   UNL     1       5.068   4.842  17.346  0.00  0.00    +0.000 A 
ATOM     10  F   UNL     1       6.018   3.921  17.131  0.00  0.00    +0.000 F 
ATOM     11  C   UNL     1       5.381   6.199  17.370  0.00  0.00    +0.000 A 
ATOM     12 CL   UNL     1       6.996   6.730  17.088  0.00  0.00    +0.000 Cl
ATOM     13  C   UNL     1       4.387   7.143  17.643  0.00  0.00    +0.000 A 
ENDBRANCH   4   6
BRANCH   1  14
ATOM     14  N   UNL     1       0.525   9.384  20.984  0.00  0.00    +0.000 N 
ATOM     15  C   UNL     1       1.007  10.239  21.928  0.00  0.00    +0.000 A 
ATOM     16  N   UNL     1       0.339  10.066  23.048  0.00  0.00    +0.000 NA
ATOM     17  N   UNL     1      -0.592   9.071  22.830  0.00  0.00    +0.000 NA
ATOM     18  C   UNL     1      -0.470   8.675  21.581  0.00  0.00    +0.000 A 
ENDBRANCH   1  14
BRANCH   1  19
ATOM     19  C   UNL     1       0.847  10.245  18.688  0.00  0.00    +0.000 C 
BRANCH  19  23
ATOM     20  C   UNL     1      -3.312  11.230  17.876  0.00  0.00    +0.000 A 
ATOM     21  C   UNL     1      -2.640  11.850  18.934  0.00  0.00    +0.000 A 
ATOM     22  C   UNL     1      -1.298  11.547  19.207  0.00  0.00    +0.000 A 
ATOM     23  C   UNL     1      -0.602  10.614  18.425  0.00  0.00    +0.000 A 
ATOM     24  C   UNL     1      -1.282  10.005  17.358  0.00  0.00    +0.000 A 
ATOM     25  C   UNL     1      -2.636  10.266  17.118  0.00  0.00    +0.000 A 
BRANCH  20  27
ATOM     26  C   UNL     1      -5.587  10.978  18.440  0.00  0.00    +0.000 C 
ATOM     27  O   UNL     1      -4.613  11.507  17.544  0.00  0.00    +0.000 OA
ENDBRANCH  20  27
BRANCH  25  28
ATOM     28  O   UNL     1      -3.188   9.569  16.075  0.00  0.00    +0.000 OA
ATOM     29  C   UNL     1      -2.948  10.175  14.804  0.00  0.00    +0.000 C 
ENDBRANCH  25  28
ENDBRANCH  19  23
ENDBRANCH   1  19
TORSDOF 6
ENDMDL
MODEL 5
REMARK VINA RESULT:      -7.6      0.815      1.822
REMARK  Name = 
REMARK  8 active torsions:
REMARK  status: ('A' for Active; 'I' for Inactive)
REMARK    1  A    between atoms: C_1  and  O_2
REMARK    2  A    between atoms: O_2  and  C_3
REMARK    3  A    between atoms: C_6  and  C_7
REMARK    4  A    between atoms: C_7  and  N_8
REMARK    5  A    between atoms: N_8  and  N_20
REMARK    6  A    between atoms: N_11  and  C_12
REMARK    7  A    between atoms: C_26  and  O_27
REMARK    8  A    between atoms: O_27  and  C_28
REMARK                            x       y       z     vdW  Elec       q    Type
REMARK                         _______ _______ _______ _____ _____    ______ ____
ROOT
ATOM      1  N   UNL     1       1.254   8.895  19.991  0.00  0.00    +0.000 N 
ATOM      2  C   UNL     1       1.846   7.665  19.717  0.00  0.00    +0.000 C 
ATOM      3  O   UNL     1       2.053   6.833  20.604  0.00  0.00    +0.000 OA
ATOM      4  N   UNL     1       2.156   7.421  18.396  0.00  0.00    +0.000 N 
ATOM      5  H   UNL     1       1.539   7.822  17.703  0.00  0.00    +0.000 HD
ENDROOT
BRANCH   4   6
ATOM      6  C   UNL     1       3.000   6.381  17.938  0.00  0.00    +0.000 A 
ATOM      7  C   UNL     1       4.280   6.623  17.422  0.00  0.00    +0.000 A 
ATOM      8  C   UNL     1       5.039   5.582  16.884  0.00  0.00    +0.000 A 
ATOM      9  C   UNL     1       4.527   4.293  16.873  0.00  0.00    +0.000 A 
ATOM     10  F   UNL     1       5.256   3.313  16.322  0.00  0.00    +0.000 F 
ATOM     11  C   UNL     1       3.270   4.031  17.413  0.00  0.00    +0.000 A 
ATOM     12 CL   UNL     1       2.638   2.428  17.420  0.00  0.00    +0.000 Cl
ATOM     13  C   UNL     1       2.502   5.073  17.941  0.00  0.00    +0.000 A 
ENDBRANCH   4   6
BRANCH   1  14
ATOM     14  N   UNL     1       0.774   9.024  21.291  0.00  0.00    +0.000 N 
ATOM     15  C   UNL     1      -0.459   8.654  21.735  0.00  0.00    +0.000 A 
ATOM     16  N   UNL     1      -0.595   9.023  22.989  0.00  0.00    +0.000 NA
ATOM     17  N   UNL     1       0.572   9.656  23.368  0.00  0.00    +0.000 NA
ATOM     18  C   UNL     1       1.387   9.643  22.335  0.00  0.00    +0.000 A 
ENDBRANCH   1  14
BRANCH   1  19
ATOM     19  C   UNL     1       1.173  10.036  19.069  0.00  0.00    +0.000 C 
BRANCH  19  23
ATOM     20  C   UNL     1      -2.867  11.371  18.165  0.00  0.00    +0.000 A 
ATOM     21  C   UNL     1      -2.287  10.342  17.417  0.00  0.00    +0.000 A 
ATOM     22  C   UNL     1      -0.987   9.897  17.697  0.00  0.00    +0.000 A 
ATOM     23  C   UNL     1      -0.240  10.476  18.735  0.00  0.00    +0.000 A 
ATOM     24  C   UNL     1      -0.836  11.501  19.486  0.00  0.00    +0.000 A 
ATOM     25  C   UNL     1      -2.112  11.983  19.173  0.00  0.00    +0.000 A 
BRANCH  20  27
ATOM     26  C   UNL     1      -4.714  11.461  16.702  0.00  0.00    +0.000 C 
ATOM     27  O   UNL     1      -4.142  11.829  17.955  0.00  0.00    +0.000 OA
ENDBRANCH  20  27
BRANCH  25  28
ATOM     28  O   UNL     1      -2.554  13.017  19.957  0.00  0.00    +0.000 OA
ATOM     29  C   UNL     1      -1.514  13.918  20.338  0.00  0.00    +0.000 C 
ENDBRANCH  25  28
ENDBRANCH  19  23
ENDBRANCH   1  19
TORSDOF 6
ENDMDL
MODEL 6
REMARK VINA RESULT:      -7.5      1.402      2.337
REMARK  Name = 
REMARK  8 active torsions:
REMARK  status: ('A' for Active; 'I' for Inactive)
REMARK    1  A    between atoms: C_1  and  O_2
REMARK    2  A    between atoms: O_2  and  C_3
REMARK    3  A    between atoms: C_6  and  C_7
REMARK    4  A    between atoms: C_7  and  N_8
REMARK    5  A    between atoms: N_8  and  N_20
REMARK    6  A    between atoms: N_11  and  C_12
REMARK    7  A    between atoms: C_26  and  O_27
REMARK    8  A    between atoms: O_27  and  C_28
REMARK                            x       y       z     vdW  Elec       q    Type
REMARK                         _______ _______ _______ _____ _____    ______ ____
ROOT
ATOM      1  N   UNL     1       1.278   8.936  19.874  0.00  0.00    +0.000 N 
ATOM      2  C   UNL     1       1.922   7.733  19.598  0.00  0.00    +0.000 C 
ATOM      3  O   UNL     1       2.160   6.908  20.482  0.00  0.00    +0.000 OA
ATOM      4  N   UNL     1       2.245   7.506  18.276  0.00  0.00    +0.000 N 
ATOM      5  H   UNL     1       1.614   7.884  17.583  0.00  0.00    +0.000 HD
ENDROOT
BRANCH   4   6
ATOM      6  C   UNL     1       3.133   6.504  17.818  0.00  0.00    +0.000 A 
ATOM      7  C   UNL     1       2.760   5.157  17.718  0.00  0.00    +0.000 A 
ATOM      8  C   UNL     1       3.695   4.184  17.362  0.00  0.00    +0.000 A 
ATOM      9  C   UNL     1       5.004   4.556  17.091  0.00  0.00    +0.000 A 
ATOM     10  F   UNL     1       5.896   3.603  16.784  0.00  0.00    +0.000 F 
ATOM     11  C   UNL     1       5.382   5.895  17.154  0.00  0.00    +0.000 A 
ATOM     12 CL   UNL     1       7.002   6.364  16.800  0.00  0.00    +0.000 Cl
ATOM     13  C   UNL     1       4.451   6.870  17.523  0.00  0.00    +0.000 A 
ENDBRANCH   4   6
BRANCH   1  14
ATOM     14  N   UNL     1       0.789   9.041  21.172  0.00  0.00    +0.000 N 
ATOM     15  C   UNL     1      -0.424   8.608  21.614  0.00  0.00    +0.000 A 
ATOM     16  N   UNL     1      -0.582   8.970  22.868  0.00  0.00    +0.000 NA
ATOM     17  N   UNL     1       0.550   9.662  23.249  0.00  0.00    +0.000 NA
ATOM     18  C   UNL     1       1.367   9.691  22.217  0.00  0.00    +0.000 A 
ENDBRANCH   1  14
BRANCH   1  19
ATOM     19  C   UNL     1       1.152  10.076  18.955  0.00  0.00    +0.000 C 
BRANCH  19  23
ATOM     20  C   UNL     1      -2.928  11.406  18.240  0.00  0.00    +0.000 A 
ATOM     21  C   UNL     1      -2.387  10.367  17.476  0.00  0.00    +0.000 A 
ATOM     22  C   UNL     1      -1.075   9.923  17.696  0.00  0.00    +0.000 A 
ATOM     23  C   UNL     1      -0.276  10.514  18.687  0.00  0.00    +0.000 A 
ATOM     24  C   UNL     1      -0.832  11.549  19.455  0.00  0.00    +0.000 A 
ATOM     25  C   UNL     1      -2.122  12.028  19.201  0.00  0.00    +0.000 A 
BRANCH  20  27
ATOM     26  C   UNL     1      -4.824  11.536  16.844  0.00  0.00    +0.000 C 
ATOM     27  O   UNL     1      -4.211  11.863  18.089  0.00  0.00    +0.000 OA
ENDBRANCH  20  27
BRANCH  25  28
ATOM     28  O   UNL     1      -2.524  13.073  19.994  0.00  0.00    +0.000 OA
ATOM     29  C   UNL     1      -2.898  12.666  21.311  0.00  0.00    +0.000 C 
ENDBRANCH  25  28
ENDBRANCH  19  23
ENDBRANCH   1  19
TORSDOF 6
ENDMDL
MODEL 7
REMARK VINA RESULT:      -7.3      4.257      8.360
REMARK  Name = 
REMARK  8 active torsions:
REMARK  status: ('A' for Active; 'I' for Inactive)
REMARK    1  A    between atoms: C_1  and  O_2
REMARK    2  A    between atoms: O_2  and  C_3
REMARK    3  A    between atoms: C_6  and  C_7
REMARK    4  A    between atoms: C_7  and  N_8
REMARK    5  A    between atoms: N_8  and  N_20
REMARK    6  A    between atoms: N_11  and  C_12
REMARK    7  A    between atoms: C_26  and  O_27
REMARK    8  A    between atoms: O_27  and  C_28
REMARK                            x       y       z     vdW  Elec       q    Type
REMARK                         _______ _______ _______ _____ _____    ______ ____
ROOT
ATOM      1  N   UNL     1       3.320   4.781  19.828  0.00  0.00    +0.000 N 
ATOM      2  C   UNL     1       2.339   5.763  19.716  0.00  0.00    +0.000 C 
ATOM      3  O   UNL     1       1.146   5.476  19.601  0.00  0.00    +0.000 OA
ATOM      4  N   UNL     1       2.778   7.069  19.773  0.00  0.00    +0.000 N 
ATOM      5  H   UNL     1       3.578   7.254  20.362  0.00  0.00    +0.000 HD
ENDROOT
BRANCH   4   6
ATOM      6  C   UNL     1       2.011   8.200  19.406  0.00  0.00    +0.000 A 
ATOM      7  C   UNL     1       2.043   8.743  18.115  0.00  0.00    +0.000 A 
ATOM      8  C   UNL     1       1.353   9.921  17.821  0.00  0.00    +0.000 A 
ATOM      9  C   UNL     1       0.618  10.553  18.813  0.00  0.00    +0.000 A 
ATOM     10  F   UNL     1      -0.009  11.701  18.521  0.00  0.00    +0.000 F 
ATOM     11  C   UNL     1       0.550  10.007  20.093  0.00  0.00    +0.000 A 
ATOM     12 CL   UNL     1      -0.377  10.778  21.324  0.00  0.00    +0.000 Cl
ATOM     13  C   UNL     1       1.250   8.835  20.394  0.00  0.00    +0.000 A 
ENDBRANCH   4   6
BRANCH   1  14
ATOM     14  N   UNL     1       2.825   3.489  19.968  0.00  0.00    +0.000 N 
ATOM     15  C   UNL     1       2.368   2.687  18.966  0.00  0.00    +0.000 A 
ATOM     16  N   UNL     1       1.884   1.581  19.485  0.00  0.00    +0.000 NA
ATOM     17  N   UNL     1       2.020   1.667  20.856  0.00  0.00    +0.000 NA
ATOM     18  C   UNL     1       2.593   2.820  21.130  0.00  0.00    +0.000 A 
ENDBRANCH   1  14
BRANCH   1  19
ATOM     19  C   UNL     1       4.771   4.999  19.737  0.00  0.00    +0.000 C 
BRANCH  19  23
ATOM     20  C   UNL     1       6.391   5.193  15.704  0.00  0.00    +0.000 A 
ATOM     21  C   UNL     1       5.440   4.221  16.030  0.00  0.00    +0.000 A 
ATOM     22  C   UNL     1       4.904   4.146  17.324  0.00  0.00    +0.000 A 
ATOM     23  C   UNL     1       5.313   5.046  18.320  0.00  0.00    +0.000 A 
ATOM     24  C   UNL     1       6.260   6.025  17.980  0.00  0.00    +0.000 A 
ATOM     25  C   UNL     1       6.834   6.066  16.705  0.00  0.00    +0.000 A 
BRANCH  20  27
ATOM     26  C   UNL     1       6.605   4.284  13.539  0.00  0.00    +0.000 C 
ATOM     27  O   UNL     1       6.928   5.331  14.451  0.00  0.00    +0.000 OA
ENDBRANCH  20  27
BRANCH  25  28
ATOM     28  O   UNL     1       7.779   7.043  16.522  0.00  0.00    +0.000 OA
ATOM     29  C   UNL     1       7.763   8.039  17.545  0.00  0.00    +0.000 C 
ENDBRANCH  25  28
ENDBRANCH  19  23
ENDBRANCH   1  19
TORSDOF 6
ENDMDL
MODEL 8
REMARK VINA RESULT:      -7.3      4.249      8.712
REMARK  Name = 
REMARK  8 active torsions:
REMARK  status: ('A' for Active; 'I' for Inactive)
REMARK    1  A    between atoms: C_1  and  O_2
REMARK    2  A    between atoms: O_2  and  C_3
REMARK    3  A    between atoms: C_6  and  C_7
REMARK    4  A    between atoms: C_7  and  N_8
REMARK    5  A    between atoms: N_8  and  N_20
REMARK    6  A    between atoms: N_11  and  C_12
REMARK    7  A    between atoms: C_26  and  O_27
REMARK    8  A    between atoms: O_27  and  C_28
REMARK                            x       y       z     vdW  Elec       q    Type
REMARK                         _______ _______ _______ _____ _____    ______ ____
ROOT
ATOM      1  N   UNL     1       3.299   4.858  19.432  0.00  0.00    +0.000 N 
ATOM      2  C   UNL     1       2.225   5.692  19.731  0.00  0.00    +0.000 C 
ATOM      3  O   UNL     1       1.070   5.399  19.414  0.00  0.00    +0.000 OA
ATOM      4  N   UNL     1       2.526   6.843  20.428  0.00  0.00    +0.000 N 
ATOM      5  H   UNL     1       3.289   6.789  21.087  0.00  0.00    +0.000 HD
ENDROOT
BRANCH   4   6
ATOM      6  C   UNL     1       1.654   7.947  20.587  0.00  0.00    +0.000 A 
ATOM      7  C   UNL     1       0.927   8.167  21.764  0.00  0.00    +0.000 A 
ATOM      8  C   UNL     1      -0.001   9.207  21.843  0.00  0.00    +0.000 A 
ATOM      9  C   UNL     1      -0.194  10.040  20.751  0.00  0.00    +0.000 A 
ATOM     10  F   UNL     1      -1.114  11.012  20.834  0.00  0.00    +0.000 F 
ATOM     11  C   UNL     1       0.545   9.854  19.586  0.00  0.00    +0.000 A 
ATOM     12 CL   UNL     1       0.323  10.897  18.232  0.00  0.00    +0.000 Cl
ATOM     13  C   UNL     1       1.465   8.805  19.499  0.00  0.00    +0.000 A 
ENDBRANCH   4   6
BRANCH   1  14
ATOM     14  N   UNL     1       2.937   3.619  18.912  0.00  0.00    +0.000 N 
ATOM     15  C   UNL     1       3.240   2.402  19.443  0.00  0.00    +0.000 A 
ATOM     16  N   UNL     1       2.825   1.459  18.627  0.00  0.00    +0.000 NA
ATOM     17  N   UNL     1       2.246   2.076  17.536  0.00  0.00    +0.000 NA
ATOM     18  C   UNL     1       2.317   3.376  17.726  0.00  0.00    +0.000 A 
ENDBRANCH   1  14
BRANCH   1  19
ATOM     19  C   UNL     1       4.721   5.208  19.553  0.00  0.00    +0.000 C 
BRANCH  19  23
ATOM     20  C   UNL     1       6.949   5.316  15.819  0.00  0.00    +0.000 A 
ATOM     21  C   UNL     1       6.092   4.246  16.091  0.00  0.00    +0.000 A 
ATOM     22  C   UNL     1       5.363   4.197  17.288  0.00  0.00    +0.000 A 
ATOM     23  C   UNL     1       5.480   5.221  18.239  0.00  0.00    +0.000 A 
ATOM     24  C   UNL     1       6.335   6.297  17.952  0.00  0.00    +0.000 A 
ATOM     25  C   UNL     1       7.103   6.320  16.782  0.00  0.00    +0.000 A 
BRANCH  20  27
ATOM     26  C   UNL     1       7.154   4.679  13.558  0.00  0.00    +0.000 C 
ATOM     27  O   UNL     1       7.664   5.432  14.655  0.00  0.00    +0.000 OA
ENDBRANCH  20  27
BRANCH  25  28
ATOM     28  O   UNL     1       7.930   7.406  16.649  0.00  0.00    +0.000 OA
ATOM     29  C   UNL     1       7.849   8.312  17.749  0.00  0.00    +0.000 C 
ENDBRANCH  25  28
ENDBRANCH  19  23
ENDBRANCH   1  19
TORSDOF 6
ENDMDL
MODEL 9
REMARK VINA RESULT:      -7.2      4.490      8.568
REMARK  Name = 
REMARK  8 active torsions:
REMARK  status: ('A' for Active; 'I' for Inactive)
REMARK    1  A    between atoms: C_1  and  O_2
REMARK    2  A    between atoms: O_2  and  C_3
REMARK    3  A    between atoms: C_6  and  C_7
REMARK    4  A    between atoms: C_7  and  N_8
REMARK    5  A    between atoms: N_8  and  N_20
REMARK    6  A    between atoms: N_11  and  C_12
REMARK    7  A    between atoms: C_26  and  O_27
REMARK    8  A    between atoms: O_27  and  C_28
REMARK                            x       y       z     vdW  Elec       q    Type
REMARK                         _______ _______ _______ _____ _____    ______ ____
ROOT
ATOM      1  N   UNL     1       2.332   5.774  19.159  0.00  0.00    +0.000 N 
ATOM      2  C   UNL     1       1.839   6.515  20.229  0.00  0.00    +0.000 C 
ATOM      3  O   UNL     1       1.479   5.976  21.279  0.00  0.00    +0.000 OA
ATOM      4  N   UNL     1       1.808   7.883  20.059  0.00  0.00    +0.000 N 
ATOM      5  H   UNL     1       2.540   8.287  19.492  0.00  0.00    +0.000 HD
ENDROOT
BRANCH   4   6
ATOM      6  C   UNL     1       1.100   8.789  20.885  0.00  0.00    +0.000 A 
ATOM      7  C   UNL     1       1.153   8.730  22.283  0.00  0.00    +0.000 A 
ATOM      8  C   UNL     1       0.359   9.574  23.062  0.00  0.00    +0.000 A 
ATOM      9  C   UNL     1      -0.481  10.489  22.444  0.00  0.00    +0.000 A 
ATOM     10  F   UNL     1      -1.261  11.267  23.208  0.00  0.00    +0.000 F 
ATOM     11  C   UNL     1      -0.521  10.582  21.055  0.00  0.00    +0.000 A 
ATOM     12 CL   UNL     1      -1.549  11.729  20.284  0.00  0.00    +0.000 Cl
ATOM     13  C   UNL     1       0.264   9.729  20.273  0.00  0.00    +0.000 A 
ENDBRANCH   4   6
BRANCH   1  14
ATOM     14  N   UNL     1       2.537   4.427  19.439  0.00  0.00    +0.000 N 
ATOM     15  C   UNL     1       1.673   3.408  19.173  0.00  0.00    +0.000 A 
ATOM     16  N   UNL     1       2.156   2.291  19.671  0.00  0.00    +0.000 NA
ATOM     17  N   UNL     1       3.358   2.591  20.281  0.00  0.00    +0.000 NA
ATOM     18  C   UNL     1       3.574   3.880  20.128  0.00  0.00    +0.000 A 
ENDBRANCH   1  14
BRANCH   1  19
ATOM     19  C   UNL     1       2.568   6.278  17.799  0.00  0.00    +0.000 C 
BRANCH  19  23
ATOM     20  C   UNL     1       6.378   5.088  16.070  0.00  0.00    +0.000 A 
ATOM     21  C   UNL     1       5.295   4.204  16.051  0.00  0.00    +0.000 A 
ATOM     22  C   UNL     1       4.058   4.573  16.600  0.00  0.00    +0.000 A 
ATOM     23  C   UNL     1       3.882   5.837  17.183  0.00  0.00    +0.000 A 
ATOM     24  C   UNL     1       4.973   6.721  17.187  0.00  0.00    +0.000 A 
ATOM     25  C   UNL     1       6.222   6.334  16.687  0.00  0.00    +0.000 A 
BRANCH  20  27
ATOM     26  C   UNL     1       7.651   4.841  14.101  0.00  0.00    +0.000 C 
ATOM     27  O   UNL     1       7.600   4.793  15.525  0.00  0.00    +0.000 OA
ENDBRANCH  20  27
BRANCH  25  28
ATOM     28  O   UNL     1       7.211   7.278  16.796  0.00  0.00    +0.000 OA
ATOM     29  C   UNL     1       7.862   7.265  18.067  0.00  0.00    +0.000 C 
ENDBRANCH  25  28
ENDBRANCH  19  23
ENDBRANCH   1  19
TORSDOF 6
ENDMDL
