MODEL 1
REMARK VINA RESULT:      -6.8      0.000      0.000
REMARK  Name = 
REMARK  7 active torsions:
REMARK  status: ('A' for Active; 'I' for Inactive)
REMARK    1  A    between atoms: C_1  and  C_2
REMARK    2  A    between atoms: C_2  and  N_3
REMARK    3  A    between atoms: N_3  and  C_4
REMARK    4  A    between atoms: N_3  and  C_6
REMARK    5  A    between atoms: C_4  and  C_5
REMARK    6  A    between atoms: C_9  and  N_10
REMARK    7  A    between atoms: C_11  and  C_13
REMARK                            x       y       z     vdW  Elec       q    Type
REMARK                         _______ _______ _______ _____ _____    ______ ____
ROOT
ATOM      1  C   UNL     1       6.300   5.281  17.262  0.00  0.00    +0.000 A 
ATOM      2  C   UNL     1       6.262   6.583  16.751  0.00  0.00    +0.000 A 
ATOM      3  C   UNL     1       7.065   7.601  17.266  0.00  0.00    +0.000 A 
ATOM      4  C   UNL     1       7.930   7.368  18.327  0.00  0.00    +0.000 A 
ATOM      5  C   UNL     1       8.010   6.070  18.839  0.00  0.00    +0.000 A 
ATOM      6  C   UNL     1       7.193   5.047  18.320  0.00  0.00    +0.000 A 
ENDROOT
BRANCH   4   7
ATOM      7  N   UNL     1       8.726   8.393  18.897  0.00  0.00    +0.000 N 
ATOM      8  C   UNL     1       8.718   9.715  18.474  0.00  0.00    +0.000 C 
ATOM      9  O   UNL     1       7.977  10.191  17.619  0.00  0.00    +0.000 OA
ATOM     10  H   UNL     1       9.212   8.164  19.753  0.00  0.00    +0.000 HD
BRANCH   8  11
ATOM     11  C   UNL     1       9.643  10.657  19.137  0.00  0.00    +0.000 A 
ATOM     12  C   UNL     1      10.703  11.302  18.500  0.00  0.00    +0.000 A 
ATOM     13  C   UNL     1      11.450  12.240  19.214  0.00  0.00    +0.000 A 
ATOM     14  C   UNL     1      11.112  12.498  20.537  0.00  0.00    +0.000 A 
ATOM     15  N   UNL     1      10.099  11.887  21.183  0.00  0.00    +0.000 NA
ATOM     16  C   UNL     1       9.381  10.989  20.465  0.00  0.00    +0.000 A 
ENDBRANCH   8  11
ENDBRANCH   4   7
BRANCH   1  17
ATOM     17  N   UNL     1       5.502   4.250  16.738  0.00  0.00    +0.000 N 
BRANCH  17  19
ATOM     18  C   UNL     1       6.321   3.879  14.410  0.00  0.00    +0.000 C 
ATOM     19  C   UNL     1       5.179   4.341  15.303  0.00  0.00    +0.000 C 
ENDBRANCH  17  19
BRANCH  17  20
ATOM     20  C   UNL     1       4.484   3.694  17.651  0.00  0.00    +0.000 C 
ATOM     21  C   UNL     1       3.220   4.541  17.757  0.00  0.00    +0.000 C 
ENDBRANCH  17  20
ENDBRANCH   1  17
TORSDOF 5
ENDMDL
MODEL 2
REMARK VINA RESULT:      -6.7      0.424      1.578
REMARK  Name = 
REMARK  7 active torsions:
REMARK  status: ('A' for Active; 'I' for Inactive)
REMARK    1  A    between atoms: C_1  and  C_2
REMARK    2  A    between atoms: C_2  and  N_3
REMARK    3  A    between atoms: N_3  and  C_4
REMARK    4  A    between atoms: N_3  and  C_6
REMARK    5  A    between atoms: C_4  and  C_5
REMARK    6  A    between atoms: C_9  and  N_10
REMARK    7  A    between atoms: C_11  and  C_13
REMARK                            x       y       z     vdW  Elec       q    Type
REMARK                         _______ _______ _______ _____ _____    ______ ____
ROOT
ATOM      1  C   UNL     1       6.156   5.402  17.307  0.00  0.00    +0.000 A 
ATOM      2  C   UNL     1       6.154   6.700  16.785  0.00  0.00    +0.000 A 
ATOM      3  C   UNL     1       7.008   7.691  17.271  0.00  0.00    +0.000 A 
ATOM      4  C   UNL     1       7.888   7.435  18.313  0.00  0.00    +0.000 A 
ATOM      5  C   UNL     1       7.931   6.139  18.836  0.00  0.00    +0.000 A 
ATOM      6  C   UNL     1       7.065   5.143  18.346  0.00  0.00    +0.000 A 
ENDROOT
BRANCH   4   7
ATOM      7  N   UNL     1       8.736   8.433  18.856  0.00  0.00    +0.000 N 
ATOM      8  C   UNL     1       8.713   9.768  18.474  0.00  0.00    +0.000 C 
ATOM      9  O   UNL     1       7.919  10.277  17.689  0.00  0.00    +0.000 OA
ATOM     10  H   UNL     1       9.279   8.173  19.667  0.00  0.00    +0.000 HD
BRANCH   8  11
ATOM     11  C   UNL     1       9.695  10.680  19.096  0.00  0.00    +0.000 A 
ATOM     12  C   UNL     1      10.755  11.281  18.417  0.00  0.00    +0.000 A 
ATOM     13  C   UNL     1      11.560  12.196  19.098  0.00  0.00    +0.000 A 
ATOM     14  C   UNL     1      11.279  12.476  20.428  0.00  0.00    +0.000 A 
ATOM     15  N   UNL     1      10.267  11.907  21.115  0.00  0.00    +0.000 NA
ATOM     16  C   UNL     1       9.492  11.031  20.429  0.00  0.00    +0.000 A 
ENDBRANCH   8  11
ENDBRANCH   4   7
BRANCH   1  17
ATOM     17  N   UNL     1       5.307   4.398  16.812  0.00  0.00    +0.000 N 
BRANCH  17  19
ATOM     18  C   UNL     1       3.039   3.463  17.272  0.00  0.00    +0.000 C 
ATOM     19  C   UNL     1       4.442   3.729  17.799  0.00  0.00    +0.000 C 
ENDBRANCH  17  19
BRANCH  17  20
ATOM     20  C   UNL     1       5.840   3.597  15.692  0.00  0.00    +0.000 C 
ATOM     21  C   UNL     1       5.580   4.206  14.318  0.00  0.00    +0.000 C 
ENDBRANCH  17  20
ENDBRANCH   1  17
TORSDOF 5
ENDMDL
MODEL 3
REMARK VINA RESULT:      -6.7      0.338      1.950
REMARK  Name = 
REMARK  7 active torsions:
REMARK  status: ('A' for Active; 'I' for Inactive)
REMARK    1  A    between atoms: C_1  and  C_2
REMARK    2  A    between atoms: C_2  and  N_3
REMARK    3  A    between atoms: N_3  and  C_4
REMARK    4  A    between atoms: N_3  and  C_6
REMARK    5  A    between atoms: C_4  and  C_5
REMARK    6  A    between atoms: C_9  and  N_10
REMARK    7  A    between atoms: C_11  and  C_13
REMARK                            x       y       z     vdW  Elec       q    Type
REMARK                         _______ _______ _______ _____ _____    ______ ____
ROOT
ATOM      1  C   UNL     1       6.226   5.354  17.208  0.00  0.00    +0.000 A 
ATOM      2  C   UNL     1       7.018   5.113  18.336  0.00  0.00    +0.000 A 
ATOM      3  C   UNL     1       7.834   6.101  18.889  0.00  0.00    +0.000 A 
ATOM      4  C   UNL     1       7.909   7.369  18.328  0.00  0.00    +0.000 A 
ATOM      5  C   UNL     1       7.107   7.647  17.218  0.00  0.00    +0.000 A 
ATOM      6  C   UNL     1       6.289   6.645  16.659  0.00  0.00    +0.000 A 
ENDROOT
BRANCH   4   7
ATOM      7  N   UNL     1       8.760   8.379  18.843  0.00  0.00    +0.000 N 
ATOM      8  C   UNL     1       8.700   9.715  18.471  0.00  0.00    +0.000 C 
ATOM      9  O   UNL     1       7.867  10.215  17.722  0.00  0.00    +0.000 OA
ATOM     10  H   UNL     1       9.339   8.123  19.630  0.00  0.00    +0.000 HD
BRANCH   8  11
ATOM     11  C   UNL     1       9.690  10.640  19.060  0.00  0.00    +0.000 A 
ATOM     12  C   UNL     1      10.737  11.231  18.352  0.00  0.00    +0.000 A 
ATOM     13  C   UNL     1      11.551  12.160  19.002  0.00  0.00    +0.000 A 
ATOM     14  C   UNL     1      11.292  12.463  20.332  0.00  0.00    +0.000 A 
ATOM     15  N   UNL     1      10.293  11.904  21.046  0.00  0.00    +0.000 NA
ATOM     16  C   UNL     1       9.510  11.014  20.390  0.00  0.00    +0.000 A 
ENDBRANCH   8  11
ENDBRANCH   4   7
BRANCH   1  17
ATOM     17  N   UNL     1       5.394   4.366  16.656  0.00  0.00    +0.000 N 
BRANCH  17  19
ATOM     18  C   UNL     1       3.069   4.263  17.558  0.00  0.00    +0.000 C 
ATOM     19  C   UNL     1       4.478   3.688  17.590  0.00  0.00    +0.000 C 
ENDBRANCH  17  19
BRANCH  17  20
ATOM     20  C   UNL     1       5.973   3.579  15.549  0.00  0.00    +0.000 C 
ATOM     21  C   UNL     1       5.788   4.215  14.175  0.00  0.00    +0.000 C 
ENDBRANCH  17  20
ENDBRANCH   1  17
TORSDOF 5
ENDMDL
MODEL 4
REMARK VINA RESULT:      -6.7      0.728      1.112
REMARK  Name = 
REMARK  7 active torsions:
REMARK  status: ('A' for Active; 'I' for Inactive)
REMARK    1  A    between atoms: C_1  and  C_2
REMARK    2  A    between atoms: C_2  and  N_3
REMARK    3  A    between atoms: N_3  and  C_4
REMARK    4  A    between atoms: N_3  and  C_6
REMARK    5  A    between atoms: C_4  and  C_5
REMARK    6  A    between atoms: C_9  and  N_10
REMARK    7  A    between atoms: C_11  and  C_13
REMARK                            x       y       z     vdW  Elec       q    Type
REMARK                         _______ _______ _______ _____ _____    ______ ____
ROOT
ATOM      1  C   UNL     1       6.324   5.223  17.385  0.00  0.00    +0.000 A 
ATOM      2  C   UNL     1       6.373   6.467  16.745  0.00  0.00    +0.000 A 
ATOM      3  C   UNL     1       7.188   7.501  17.207  0.00  0.00    +0.000 A 
ATOM      4  C   UNL     1       7.976   7.345  18.339  0.00  0.00    +0.000 A 
ATOM      5  C   UNL     1       7.969   6.104  18.981  0.00  0.00    +0.000 A 
ATOM      6  C   UNL     1       7.140   5.065  18.516  0.00  0.00    +0.000 A 
ENDROOT
BRANCH   4   7
ATOM      7  N   UNL     1       8.781   8.392  18.855  0.00  0.00    +0.000 N 
ATOM      8  C   UNL     1       8.652   9.727  18.495  0.00  0.00    +0.000 C 
ATOM      9  O   UNL     1       7.787  10.191  17.758  0.00  0.00    +0.000 OA
ATOM     10  H   UNL     1       9.380   8.159  19.635  0.00  0.00    +0.000 HD
BRANCH   8  11
ATOM     11  C   UNL     1       9.600  10.695  19.083  0.00  0.00    +0.000 A 
ATOM     12  C   UNL     1       9.588  11.100  20.418  0.00  0.00    +0.000 A 
ATOM     13  C   UNL     1      10.597  11.952  20.873  0.00  0.00    +0.000 A 
ATOM     14  C   UNL     1      11.576  12.367  19.980  0.00  0.00    +0.000 A 
ATOM     15  N   UNL     1      11.611  11.999  18.683  0.00  0.00    +0.000 NA
ATOM     16  C   UNL     1      10.628  11.163  18.268  0.00  0.00    +0.000 A 
ENDBRANCH   8  11
ENDBRANCH   4   7
BRANCH   1  17
ATOM     17  N   UNL     1       5.514   4.175  16.916  0.00  0.00    +0.000 N 
BRANCH  17  19
ATOM     18  C   UNL     1       6.248   3.723  14.573  0.00  0.00    +0.000 C 
ATOM     19  C   UNL     1       5.142   4.226  15.491  0.00  0.00    +0.000 C 
ENDBRANCH  17  19
BRANCH  17  20
ATOM     20  C   UNL     1       4.530   3.640  17.877  0.00  0.00    +0.000 C 
ATOM     21  C   UNL     1       3.426   4.625  18.246  0.00  0.00    +0.000 C 
ENDBRANCH  17  20
ENDBRANCH   1  17
TORSDOF 5
ENDMDL
MODEL 5
REMARK VINA RESULT:      -6.6      0.834      1.596
REMARK  Name = 
REMARK  7 active torsions:
REMARK  status: ('A' for Active; 'I' for Inactive)
REMARK    1  A    between atoms: C_1  and  C_2
REMARK    2  A    between atoms: C_2  and  N_3
REMARK    3  A    between atoms: N_3  and  C_4
REMARK    4  A    between atoms: N_3  and  C_6
REMARK    5  A    between atoms: C_4  and  C_5
REMARK    6  A    between atoms: C_9  and  N_10
REMARK    7  A    between atoms: C_11  and  C_13
REMARK                            x       y       z     vdW  Elec       q    Type
REMARK                         _______ _______ _______ _____ _____    ______ ____
ROOT
ATOM      1  C   UNL     1       6.431   5.278  17.255  0.00  0.00    +0.000 A 
ATOM      2  C   UNL     1       7.274   5.074  18.353  0.00  0.00    +0.000 A 
ATOM      3  C   UNL     1       8.028   6.110  18.906  0.00  0.00    +0.000 A 
ATOM      4  C   UNL     1       7.986   7.392  18.375  0.00  0.00    +0.000 A 
ATOM      5  C   UNL     1       7.131   7.631  17.296  0.00  0.00    +0.000 A 
ATOM      6  C   UNL     1       6.377   6.582  16.737  0.00  0.00    +0.000 A 
ENDROOT
BRANCH   4   7
ATOM      7  N   UNL     1       8.773   8.453  18.890  0.00  0.00    +0.000 N 
ATOM      8  C   UNL     1       8.694   9.768  18.450  0.00  0.00    +0.000 C 
ATOM      9  O   UNL     1       7.893  10.204  17.629  0.00  0.00    +0.000 OA
ATOM     10  H   UNL     1       9.310   8.255  19.722  0.00  0.00    +0.000 HD
BRANCH   8  11
ATOM     11  C   UNL     1       9.616  10.753  19.050  0.00  0.00    +0.000 A 
ATOM     12  C   UNL     1       9.640  11.090  20.404  0.00  0.00    +0.000 A 
ATOM     13  C   UNL     1      10.623  11.968  20.864  0.00  0.00    +0.000 A 
ATOM     14  C   UNL     1      11.543  12.478  19.957  0.00  0.00    +0.000 A 
ATOM     15  N   UNL     1      11.543  12.178  18.642  0.00  0.00    +0.000 NA
ATOM     16  C   UNL     1      10.586  11.314  18.222  0.00  0.00    +0.000 A 
ENDBRANCH   8  11
ENDBRANCH   4   7
BRANCH   1  17
ATOM     17  N   UNL     1       5.661   4.240  16.703  0.00  0.00    +0.000 N 
BRANCH  17  19
ATOM     18  C   UNL     1       5.627   4.257  14.207  0.00  0.00    +0.000 C 
ATOM     19  C   UNL     1       6.185   3.622  15.473  0.00  0.00    +0.000 C 
ENDBRANCH  17  19
BRANCH  17  20
ATOM     20  C   UNL     1       4.199   4.372  16.852  0.00  0.00    +0.000 C 
ATOM     21  C   UNL     1       3.709   4.239  18.290  0.00  0.00    +0.000 C 
ENDBRANCH  17  20
ENDBRANCH   1  17
TORSDOF 5
ENDMDL
MODEL 6
REMARK VINA RESULT:      -6.6      5.369      8.243
REMARK  Name = 
REMARK  7 active torsions:
REMARK  status: ('A' for Active; 'I' for Inactive)
REMARK    1  A    between atoms: C_1  and  C_2
REMARK    2  A    between atoms: C_2  and  N_3
REMARK    3  A    between atoms: N_3  and  C_4
REMARK    4  A    between atoms: N_3  and  C_6
REMARK    5  A    between atoms: C_4  and  C_5
REMARK    6  A    between atoms: C_9  and  N_10
REMARK    7  A    between atoms: C_11  and  C_13
REMARK                            x       y       z     vdW  Elec       q    Type
REMARK                         _______ _______ _______ _____ _____    ______ ____
ROOT
ATOM      1  C   UNL     1       0.707   9.369  19.836  0.00  0.00    +0.000 A 
ATOM      2  C   UNL     1       1.377   8.248  20.338  0.00  0.00    +0.000 A 
ATOM      3  C   UNL     1       2.346   7.572  19.594  0.00  0.00    +0.000 A 
ATOM      4  C   UNL     1       2.674   7.977  18.307  0.00  0.00    +0.000 A 
ATOM      5  C   UNL     1       2.042   9.110  17.790  0.00  0.00    +0.000 A 
ATOM      6  C   UNL     1       1.061   9.786  18.543  0.00  0.00    +0.000 A 
ENDROOT
BRANCH   4   7
ATOM      7  N   UNL     1       3.623   7.285  17.512  0.00  0.00    +0.000 N 
ATOM      8  C   UNL     1       3.995   5.962  17.714  0.00  0.00    +0.000 C 
ATOM      9  O   UNL     1       3.506   5.197  18.540  0.00  0.00    +0.000 OA
ATOM     10  H   UNL     1       3.927   7.747  16.667  0.00  0.00    +0.000 HD
BRANCH   8  11
ATOM     11  C   UNL     1       5.035   5.396  16.832  0.00  0.00    +0.000 A 
ATOM     12  C   UNL     1       4.883   4.232  16.078  0.00  0.00    +0.000 A 
ATOM     13  C   UNL     1       5.909   3.851  15.211  0.00  0.00    +0.000 A 
ATOM     14  C   UNL     1       7.046   4.644  15.130  0.00  0.00    +0.000 A 
ATOM     15  N   UNL     1       7.227   5.770  15.849  0.00  0.00    +0.000 NA
ATOM     16  C   UNL     1       6.212   6.125  16.675  0.00  0.00    +0.000 A 
ENDBRANCH   8  11
ENDBRANCH   4   7
BRANCH   1  17
ATOM     17  N   UNL     1      -0.259  10.058  20.587  0.00  0.00    +0.000 N 
BRANCH  17  19
ATOM     18  C   UNL     1      -1.058  12.391  20.197  0.00  0.00    +0.000 C 
ATOM     19  C   UNL     1      -1.183  10.920  19.828  0.00  0.00    +0.000 C 
ENDBRANCH  17  19
BRANCH  17  20
ATOM     20  C   UNL     1       0.162  10.497  21.932  0.00  0.00    +0.000 C 
ATOM     21  C   UNL     1      -0.600   9.824  23.069  0.00  0.00    +0.000 C 
ENDBRANCH  17  20
ENDBRANCH   1  17
TORSDOF 5
ENDMDL
MODEL 7
REMARK VINA RESULT:      -6.5      5.100      6.880
REMARK  Name = 
REMARK  7 active torsions:
REMARK  status: ('A' for Active; 'I' for Inactive)
REMARK    1  A    between atoms: C_1  and  C_2
REMARK    2  A    between atoms: C_2  and  N_3
REMARK    3  A    between atoms: N_3  and  C_4
REMARK    4  A    between atoms: N_3  and  C_6
REMARK    5  A    between atoms: C_4  and  C_5
REMARK    6  A    between atoms: C_9  and  N_10
REMARK    7  A    between atoms: C_11  and  C_13
REMARK                            x       y       z     vdW  Elec       q    Type
REMARK                         _______ _______ _______ _____ _____    ______ ____
ROOT
ATOM      1  C   UNL     1       4.943   5.252  16.589  0.00  0.00    +0.000 A 
ATOM      2  C   UNL     1       5.024   6.649  16.587  0.00  0.00    +0.000 A 
ATOM      3  C   UNL     1       4.153   7.439  17.338  0.00  0.00    +0.000 A 
ATOM      4  C   UNL     1       3.150   6.868  18.110  0.00  0.00    +0.000 A 
ATOM      5  C   UNL     1       3.063   5.474  18.154  0.00  0.00    +0.000 A 
ATOM      6  C   UNL     1       3.941   4.681  17.390  0.00  0.00    +0.000 A 
ENDROOT
BRANCH   4   7
ATOM      7  N   UNL     1       2.224   7.647  18.849  0.00  0.00    +0.000 N 
ATOM      8  C   UNL     1       1.750   8.889  18.445  0.00  0.00    +0.000 C 
ATOM      9  O   UNL     1       1.997   9.439  17.377  0.00  0.00    +0.000 OA
ATOM     10  H   UNL     1       1.782   7.196  19.637  0.00  0.00    +0.000 HD
BRANCH   8  11
ATOM     11  C   UNL     1       0.825   9.601  19.350  0.00  0.00    +0.000 A 
ATOM     12  C   UNL     1       0.768   9.410  20.731  0.00  0.00    +0.000 A 
ATOM     13  C   UNL     1      -0.087  10.213  21.488  0.00  0.00    +0.000 A 
ATOM     14  C   UNL     1      -0.853  11.173  20.840  0.00  0.00    +0.000 A 
ATOM     15  N   UNL     1      -0.826  11.377  19.508  0.00  0.00    +0.000 NA
ATOM     16  C   UNL     1       0.020  10.594  18.796  0.00  0.00    +0.000 A 
ENDBRANCH   8  11
ENDBRANCH   4   7
BRANCH   1  17
ATOM     17  N   UNL     1       5.827   4.453  15.844  0.00  0.00    +0.000 N 
BRANCH  17  19
ATOM     18  C   UNL     1       7.608   4.530  17.592  0.00  0.00    +0.000 C 
ATOM     19  C   UNL     1       7.263   4.644  16.113  0.00  0.00    +0.000 C 
ENDBRANCH  17  19
BRANCH  17  20
ATOM     20  C   UNL     1       5.409   4.143  14.463  0.00  0.00    +0.000 C 
ATOM     21  C   UNL     1       6.556   4.128  13.458  0.00  0.00    +0.000 C 
ENDBRANCH  17  20
ENDBRANCH   1  17
TORSDOF 5
ENDMDL
MODEL 8
REMARK VINA RESULT:      -6.4      0.932      2.222
REMARK  Name = 
REMARK  7 active torsions:
REMARK  status: ('A' for Active; 'I' for Inactive)
REMARK    1  A    between atoms: C_1  and  C_2
REMARK    2  A    between atoms: C_2  and  N_3
REMARK    3  A    between atoms: N_3  and  C_4
REMARK    4  A    between atoms: N_3  and  C_6
REMARK    5  A    between atoms: C_4  and  C_5
REMARK    6  A    between atoms: C_9  and  N_10
REMARK    7  A    between atoms: C_11  and  C_13
REMARK                            x       y       z     vdW  Elec       q    Type
REMARK                         _______ _______ _______ _____ _____    ______ ____
ROOT
ATOM      1  C   UNL     1       6.176   5.586  17.412  0.00  0.00    +0.000 A 
ATOM      2  C   UNL     1       7.183   5.307  18.344  0.00  0.00    +0.000 A 
ATOM      3  C   UNL     1       8.045   6.298  18.816  0.00  0.00    +0.000 A 
ATOM      4  C   UNL     1       7.952   7.607  18.364  0.00  0.00    +0.000 A 
ATOM      5  C   UNL     1       6.938   7.920  17.455  0.00  0.00    +0.000 A 
ATOM      6  C   UNL     1       6.073   6.916  16.977  0.00  0.00    +0.000 A 
ENDROOT
BRANCH   4   7
ATOM      7  N   UNL     1       8.841   8.624  18.794  0.00  0.00    +0.000 N 
ATOM      8  C   UNL     1       8.779   9.946  18.370  0.00  0.00    +0.000 C 
ATOM      9  O   UNL     1       7.915  10.427  17.643  0.00  0.00    +0.000 OA
ATOM     10  H   UNL     1       9.455   8.393  19.561  0.00  0.00    +0.000 HD
BRANCH   8  11
ATOM     11  C   UNL     1       9.809  10.879  18.870  0.00  0.00    +0.000 A 
ATOM     12  C   UNL     1      10.016  11.178  20.217  0.00  0.00    +0.000 A 
ATOM     13  C   UNL     1      11.084  12.006  20.567  0.00  0.00    +0.000 A 
ATOM     14  C   UNL     1      11.902  12.506  19.562  0.00  0.00    +0.000 A 
ATOM     15  N   UNL     1      11.723  12.242  18.252  0.00  0.00    +0.000 NA
ATOM     16  C   UNL     1      10.688  11.426  17.938  0.00  0.00    +0.000 A 
ENDBRANCH   8  11
ENDBRANCH   4   7
BRANCH   1  17
ATOM     17  N   UNL     1       5.298   4.593  16.944  0.00  0.00    +0.000 N 
BRANCH  17  19
ATOM     18  C   UNL     1       3.811   2.692  17.580  0.00  0.00    +0.000 C 
ATOM     19  C   UNL     1       4.304   4.094  17.910  0.00  0.00    +0.000 C 
ENDBRANCH  17  19
BRANCH  17  20
ATOM     20  C   UNL     1       5.861   3.644  15.965  0.00  0.00    +0.000 C 
ATOM     21  C   UNL     1       6.009   4.219  14.560  0.00  0.00    +0.000 C 
ENDBRANCH  17  20
ENDBRANCH   1  17
TORSDOF 5
ENDMDL
MODEL 9
REMARK VINA RESULT:      -6.4      5.871      8.616
REMARK  Name = 
REMARK  7 active torsions:
REMARK  status: ('A' for Active; 'I' for Inactive)
REMARK    1  A    between atoms: C_1  and  C_2
REMARK    2  A    between atoms: C_2  and  N_3
REMARK    3  A    between atoms: N_3  and  C_4
REMARK    4  A    between atoms: N_3  and  C_6
REMARK    5  A    between atoms: C_4  and  C_5
REMARK    6  A    between atoms: C_9  and  N_10
REMARK    7  A    between atoms: C_11  and  C_13
REMARK                            x       y       z     vdW  Elec       q    Type
REMARK                         _______ _______ _______ _____ _____    ______ ____
ROOT
ATOM      1  C   UNL     1       0.356   9.919  20.030  0.00  0.00    +0.000 A 
ATOM      2  C   UNL     1       0.673  10.212  18.698  0.00  0.00    +0.000 A 
ATOM      3  C   UNL     1       1.598   9.456  17.977  0.00  0.00    +0.000 A 
ATOM      4  C   UNL     1       2.262   8.385  18.560  0.00  0.00    +0.000 A 
ATOM      5  C   UNL     1       1.945   8.052  19.880  0.00  0.00    +0.000 A 
ATOM      6  C   UNL     1       1.015   8.821  20.606  0.00  0.00    +0.000 A 
ENDROOT
BRANCH   4   7
ATOM      7  N   UNL     1       3.238   7.626  17.866  0.00  0.00    +0.000 N 
ATOM      8  C   UNL     1       3.216   6.242  17.752  0.00  0.00    +0.000 C 
ATOM      9  O   UNL     1       2.325   5.503  18.159  0.00  0.00    +0.000 OA
ATOM     10  H   UNL     1       3.898   8.145  17.304  0.00  0.00    +0.000 HD
BRANCH   8  11
ATOM     11  C   UNL     1       4.332   5.591  17.038  0.00  0.00    +0.000 A 
ATOM     12  C   UNL     1       4.405   4.225  16.764  0.00  0.00    +0.000 A 
ATOM     13  C   UNL     1       5.470   3.746  15.999  0.00  0.00    +0.000 A 
ATOM     14  C   UNL     1       6.423   4.646  15.540  0.00  0.00    +0.000 A 
ATOM     15  N   UNL     1       6.386   5.970  15.794  0.00  0.00    +0.000 NA
ATOM     16  C   UNL     1       5.336   6.413  16.528  0.00  0.00    +0.000 A 
ENDBRANCH   8  11
ENDBRANCH   4   7
BRANCH   1  17
ATOM     17  N   UNL     1      -0.584  10.670  20.755  0.00  0.00    +0.000 N 
BRANCH  17  19
ATOM     18  C   UNL     1      -2.300  11.915  19.437  0.00  0.00    +0.000 C 
ATOM     19  C   UNL     1      -0.970  11.968  20.174  0.00  0.00    +0.000 C 
ENDBRANCH  17  19
BRANCH  17  20
ATOM     20  C   UNL     1      -0.507  10.555  22.224  0.00  0.00    +0.000 C 
ATOM     21  C   UNL     1      -1.533  11.405  22.966  0.00  0.00    +0.000 C 
ENDBRANCH  17  20
ENDBRANCH   1  17
TORSDOF 5
ENDMDL
