MODEL 1
REMARK VINA RESULT:      -6.9      0.000      0.000
REMARK  Name = 
REMARK  18 active torsions:
REMARK  status: ('A' for Active; 'I' for Inactive)
REMARK    1  A    between atoms: C_1  and  O_2
REMARK    2  A    between atoms: O_2  and  C_3
REMARK    3  A    between atoms: C_3  and  C_5
REMARK    4  A    between atoms: C_5  and  C_6
REMARK    5  A    between atoms: C_5  and  N_10
REMARK    6  A    between atoms: C_6  and  C_7
REMARK    7  A    between atoms: C_7  and  C_8
REMARK    8  A    between atoms: C_7  and  C_9
REMARK    9  A    between atoms: N_10  and  S_11
REMARK   10  A    between atoms: S_11  and  N_14
REMARK   11  A    between atoms: N_14  and  C_15
REMARK   12  A    between atoms: C_15  and  C_16
REMARK   13  A    between atoms: C_15  and  C_20
REMARK   14  A    between atoms: C_16  and  C_17
REMARK   15  A    between atoms: C_17  and  C_18
REMARK   16  A    between atoms: C_17  and  C_19
REMARK   17  A    between atoms: C_20  and  O_22
REMARK   18  A    between atoms: O_22  and  C_23
REMARK                            x       y       z     vdW  Elec       q    Type
REMARK                         _______ _______ _______ _____ _____    ______ ____
ROOT
ATOM      1  S   UNL     1       4.347   3.346  18.027  0.00  0.00    +0.000 S 
ATOM      2  O   UNL     1       5.197   3.250  19.183  0.00  0.00    +0.000 OA
ATOM      3  O   UNL     1       3.295   2.401  17.759  0.00  0.00    +0.000 OA
ENDROOT
BRANCH   1   4
ATOM      4  N   UNL     1       3.708   4.879  18.009  0.00  0.00    +0.000 NA
ATOM      5  H   UNL     1       4.436   5.596  17.971  0.00  0.00    +0.000 HD
BRANCH   4   6
ATOM      6  C   UNL     1       2.561   5.237  18.890  0.00  0.00    +0.000 C 
BRANCH   6   7
ATOM      7  C   UNL     1       2.498   6.758  19.083  0.00  0.00    +0.000 C 
ATOM      8  O   UNL     1       2.143   7.320  20.112  0.00  0.00    +0.000 OA
BRANCH   7  10
ATOM      9  C   UNL     1       2.277   8.669  17.681  0.00  0.00    +0.000 C 
ATOM     10  O   UNL     1       2.873   7.394  17.934  0.00  0.00    +0.000 OA
ENDBRANCH   7  10
ENDBRANCH   6   7
BRANCH   6  11
ATOM     11  C   UNL     1       2.585   4.498  20.241  0.00  0.00    +0.000 C 
BRANCH  11  12
ATOM     12  C   UNL     1       1.308   3.732  20.655  0.00  0.00    +0.000 C 
ATOM     13  C   UNL     1       0.598   3.053  19.484  0.00  0.00    +0.000 C 
ATOM     14  C   UNL     1       1.671   2.665  21.694  0.00  0.00    +0.000 C 
ENDBRANCH  11  12
ENDBRANCH   6  11
ENDBRANCH   4   6
ENDBRANCH   1   4
BRANCH   1  15
ATOM     15  N   UNL     1       5.335   3.482  16.695  0.00  0.00    +0.000 NA
ATOM     16  H   UNL     1       4.727   3.335  15.884  0.00  0.00    +0.000 HD
BRANCH  15  17
ATOM     17  C   UNL     1       6.073   4.782  16.509  0.00  0.00    +0.000 C 
BRANCH  17  18
ATOM     18  C   UNL     1       6.498   4.812  15.034  0.00  0.00    +0.000 C 
ATOM     19  O   UNL     1       7.541   5.301  14.612  0.00  0.00    +0.000 OA
BRANCH  18  20
ATOM     20  O   UNL     1       5.540   4.239  14.249  0.00  0.00    +0.000 OA
ATOM     21  C   UNL     1       6.042   3.677  13.035  0.00  0.00    +0.000 C 
ENDBRANCH  18  20
ENDBRANCH  17  18
BRANCH  17  22
ATOM     22  C   UNL     1       7.327   4.911  17.394  0.00  0.00    +0.000 C 
BRANCH  22  23
ATOM     23  C   UNL     1       7.258   6.075  18.416  0.00  0.00    +0.000 C 
ATOM     24  C   UNL     1       8.024   5.773  19.707  0.00  0.00    +0.000 C 
ATOM     25  C   UNL     1       7.783   7.382  17.813  0.00  0.00    +0.000 C 
ENDBRANCH  22  23
ENDBRANCH  17  22
ENDBRANCH  15  17
ENDBRANCH   1  15
TORSDOF 12
ENDMDL
MODEL 2
REMARK VINA RESULT:      -6.8      0.934      1.407
REMARK  Name = 
REMARK  18 active torsions:
REMARK  status: ('A' for Active; 'I' for Inactive)
REMARK    1  A    between atoms: C_1  and  O_2
REMARK    2  A    between atoms: O_2  and  C_3
REMARK    3  A    between atoms: C_3  and  C_5
REMARK    4  A    between atoms: C_5  and  C_6
REMARK    5  A    between atoms: C_5  and  N_10
REMARK    6  A    between atoms: C_6  and  C_7
REMARK    7  A    between atoms: C_7  and  C_8
REMARK    8  A    between atoms: C_7  and  C_9
REMARK    9  A    between atoms: N_10  and  S_11
REMARK   10  A    between atoms: S_11  and  N_14
REMARK   11  A    between atoms: N_14  and  C_15
REMARK   12  A    between atoms: C_15  and  C_16
REMARK   13  A    between atoms: C_15  and  C_20
REMARK   14  A    between atoms: C_16  and  C_17
REMARK   15  A    between atoms: C_17  and  C_18
REMARK   16  A    between atoms: C_17  and  C_19
REMARK   17  A    between atoms: C_20  and  O_22
REMARK   18  A    between atoms: O_22  and  C_23
REMARK                            x       y       z     vdW  Elec       q    Type
REMARK                         _______ _______ _______ _____ _____    ______ ____
ROOT
ATOM      1  S   UNL     1       3.690   3.311  17.570  0.00  0.00    +0.000 S 
ATOM      2  O   UNL     1       3.943   2.348  18.606  0.00  0.00    +0.000 OA
ATOM      3  O   UNL     1       2.548   3.228  16.698  0.00  0.00    +0.000 OA
ENDROOT
BRANCH   1   4
ATOM      4  N   UNL     1       3.719   4.816  18.274  0.00  0.00    +0.000 NA
ATOM      5  H   UNL     1       4.614   5.007  18.729  0.00  0.00    +0.000 HD
BRANCH   4   6
ATOM      6  C   UNL     1       2.542   5.324  19.033  0.00  0.00    +0.000 C 
BRANCH   6   7
ATOM      7  C   UNL     1       2.500   6.857  18.977  0.00  0.00    +0.000 C 
ATOM      8  O   UNL     1       2.896   7.535  18.036  0.00  0.00    +0.000 OA
BRANCH   7  10
ATOM      9  C   UNL     1       1.405   8.664  20.073  0.00  0.00    +0.000 C 
ATOM     10  O   UNL     1       1.981   7.357  20.137  0.00  0.00    +0.000 OA
ENDBRANCH   7  10
ENDBRANCH   6   7
BRANCH   6  11
ATOM     11  C   UNL     1       2.491   4.810  20.484  0.00  0.00    +0.000 C 
BRANCH  11  12
ATOM     12  C   UNL     1       1.345   3.843  20.856  0.00  0.00    +0.000 C 
ATOM     13  C   UNL     1       0.670   3.203  19.642  0.00  0.00    +0.000 C 
ATOM     14  C   UNL     1       1.894   2.729  21.756  0.00  0.00    +0.000 C 
ENDBRANCH  11  12
ENDBRANCH   6  11
ENDBRANCH   4   6
ENDBRANCH   1   4
BRANCH   1  15
ATOM     15  N   UNL     1       5.081   3.444  16.665  0.00  0.00    +0.000 NA
ATOM     16  H   UNL     1       4.790   3.314  15.692  0.00  0.00    +0.000 HD
BRANCH  15  17
ATOM     17  C   UNL     1       5.853   4.732  16.767  0.00  0.00    +0.000 C 
BRANCH  17  18
ATOM     18  C   UNL     1       5.896   5.305  15.343  0.00  0.00    +0.000 C 
ATOM     19  O   UNL     1       5.282   6.296  14.963  0.00  0.00    +0.000 OA
BRANCH  18  20
ATOM     20  O   UNL     1       6.699   4.541  14.545  0.00  0.00    +0.000 OA
ATOM     21  C   UNL     1       6.013   3.913  13.460  0.00  0.00    +0.000 C 
ENDBRANCH  18  20
ENDBRANCH  17  18
BRANCH  17  22
ATOM     22  C   UNL     1       7.296   4.548  17.275  0.00  0.00    +0.000 C 
BRANCH  22  23
ATOM     23  C   UNL     1       7.709   5.564  18.371  0.00  0.00    +0.000 C 
ATOM     24  C   UNL     1       7.722   7.008  17.862  0.00  0.00    +0.000 C 
ATOM     25  C   UNL     1       6.794   5.470  19.596  0.00  0.00    +0.000 C 
ENDBRANCH  22  23
ENDBRANCH  17  22
ENDBRANCH  15  17
ENDBRANCH   1  15
TORSDOF 12
ENDMDL
MODEL 3
REMARK VINA RESULT:      -6.7      1.591      6.674
REMARK  Name = 
REMARK  18 active torsions:
REMARK  status: ('A' for Active; 'I' for Inactive)
REMARK    1  A    between atoms: C_1  and  O_2
REMARK    2  A    between atoms: O_2  and  C_3
REMARK    3  A    between atoms: C_3  and  C_5
REMARK    4  A    between atoms: C_5  and  C_6
REMARK    5  A    between atoms: C_5  and  N_10
REMARK    6  A    between atoms: C_6  and  C_7
REMARK    7  A    between atoms: C_7  and  C_8
REMARK    8  A    between atoms: C_7  and  C_9
REMARK    9  A    between atoms: N_10  and  S_11
REMARK   10  A    between atoms: S_11  and  N_14
REMARK   11  A    between atoms: N_14  and  C_15
REMARK   12  A    between atoms: C_15  and  C_16
REMARK   13  A    between atoms: C_15  and  C_20
REMARK   14  A    between atoms: C_16  and  C_17
REMARK   15  A    between atoms: C_17  and  C_18
REMARK   16  A    between atoms: C_17  and  C_19
REMARK   17  A    between atoms: C_20  and  O_22
REMARK   18  A    between atoms: O_22  and  C_23
REMARK                            x       y       z     vdW  Elec       q    Type
REMARK                         _______ _______ _______ _____ _____    ______ ____
ROOT
ATOM      1  S   UNL     1       4.898   4.609  18.901  0.00  0.00    +0.000 S 
ATOM      2  O   UNL     1       4.469   4.999  17.586  0.00  0.00    +0.000 OA
ATOM      3  O   UNL     1       5.030   3.230  19.296  0.00  0.00    +0.000 OA
ENDROOT
BRANCH   1   4
ATOM      4  N   UNL     1       6.329   5.394  19.209  0.00  0.00    +0.000 NA
ATOM      5  H   UNL     1       6.317   5.868  20.114  0.00  0.00    +0.000 HD
BRANCH   4   6
ATOM      6  C   UNL     1       7.020   6.167  18.138  0.00  0.00    +0.000 C 
BRANCH   6   7
ATOM      7  C   UNL     1       7.553   5.213  17.061  0.00  0.00    +0.000 C 
ATOM      8  O   UNL     1       8.098   4.139  17.283  0.00  0.00    +0.000 OA
BRANCH   7  10
ATOM      9  C   UNL     1       6.838   4.866  14.817  0.00  0.00    +0.000 C 
ATOM     10  O   UNL     1       7.353   5.746  15.820  0.00  0.00    +0.000 OA
ENDBRANCH   7  10
ENDBRANCH   6   7
BRANCH   6  11
ATOM     11  C   UNL     1       8.131   7.085  18.679  0.00  0.00    +0.000 C 
BRANCH  11  12
ATOM     12  C   UNL     1       8.355   8.432  17.955  0.00  0.00    +0.000 C 
ATOM     13  C   UNL     1       7.079   9.017  17.349  0.00  0.00    +0.000 C 
ATOM     14  C   UNL     1       8.938   9.449  18.944  0.00  0.00    +0.000 C 
ENDBRANCH  11  12
ENDBRANCH   6  11
ENDBRANCH   4   6
ENDBRANCH   1   4
BRANCH   1  15
ATOM     15  N   UNL     1       3.940   5.418  19.995  0.00  0.00    +0.000 NA
ATOM     16  H   UNL     1       4.379   6.335  20.121  0.00  0.00    +0.000 HD
BRANCH  15  17
ATOM     17  C   UNL     1       2.494   5.626  19.630  0.00  0.00    +0.000 C 
BRANCH  17  18
ATOM     18  C   UNL     1       2.323   7.141  19.451  0.00  0.00    +0.000 C 
ATOM     19  O   UNL     1       2.621   7.769  18.441  0.00  0.00    +0.000 OA
BRANCH  18  20
ATOM     20  O   UNL     1       1.814   7.702  20.587  0.00  0.00    +0.000 OA
ATOM     21  C   UNL     1       1.077   8.906  20.363  0.00  0.00    +0.000 C 
ENDBRANCH  18  20
ENDBRANCH  17  18
BRANCH  17  22
ATOM     22  C   UNL     1       1.509   5.136  20.708  0.00  0.00    +0.000 C 
BRANCH  22  23
ATOM     23  C   UNL     1       1.077   3.656  20.538  0.00  0.00    +0.000 C 
ATOM     24  C   UNL     1       1.289   3.141  19.112  0.00  0.00    +0.000 C 
ATOM     25  C   UNL     1       1.816   2.740  21.519  0.00  0.00    +0.000 C 
ENDBRANCH  22  23
ENDBRANCH  17  22
ENDBRANCH  15  17
ENDBRANCH   1  15
TORSDOF 12
ENDMDL
MODEL 4
REMARK VINA RESULT:      -6.7      1.444      6.375
REMARK  Name = 
REMARK  18 active torsions:
REMARK  status: ('A' for Active; 'I' for Inactive)
REMARK    1  A    between atoms: C_1  and  O_2
REMARK    2  A    between atoms: O_2  and  C_3
REMARK    3  A    between atoms: C_3  and  C_5
REMARK    4  A    between atoms: C_5  and  C_6
REMARK    5  A    between atoms: C_5  and  N_10
REMARK    6  A    between atoms: C_6  and  C_7
REMARK    7  A    between atoms: C_7  and  C_8
REMARK    8  A    between atoms: C_7  and  C_9
REMARK    9  A    between atoms: N_10  and  S_11
REMARK   10  A    between atoms: S_11  and  N_14
REMARK   11  A    between atoms: N_14  and  C_15
REMARK   12  A    between atoms: C_15  and  C_16
REMARK   13  A    between atoms: C_15  and  C_20
REMARK   14  A    between atoms: C_16  and  C_17
REMARK   15  A    between atoms: C_17  and  C_18
REMARK   16  A    between atoms: C_17  and  C_19
REMARK   17  A    between atoms: C_20  and  O_22
REMARK   18  A    between atoms: O_22  and  C_23
REMARK                            x       y       z     vdW  Elec       q    Type
REMARK                         _______ _______ _______ _____ _____    ______ ____
ROOT
ATOM      1  S   UNL     1       5.018   4.276  18.714  0.00  0.00    +0.000 S 
ATOM      2  O   UNL     1       4.592   2.904  18.708  0.00  0.00    +0.000 OA
ATOM      3  O   UNL     1       6.246   4.703  19.334  0.00  0.00    +0.000 OA
ENDROOT
BRANCH   1   4
ATOM      4  N   UNL     1       4.999   4.808  17.140  0.00  0.00    +0.000 NA
ATOM      5  H   UNL     1       4.051   4.845  16.762  0.00  0.00    +0.000 HD
BRANCH   4   6
ATOM      6  C   UNL     1       6.016   4.329  16.162  0.00  0.00    +0.000 C 
BRANCH   6   7
ATOM      7  C   UNL     1       7.404   4.862  16.540  0.00  0.00    +0.000 C 
ATOM      8  O   UNL     1       8.292   4.198  17.060  0.00  0.00    +0.000 OA
BRANCH   7  10
ATOM      9  C   UNL     1       7.579   7.099  17.338  0.00  0.00    +0.000 C 
ATOM     10  O   UNL     1       7.497   6.190  16.236  0.00  0.00    +0.000 OA
ENDBRANCH   7  10
ENDBRANCH   6   7
BRANCH   6  11
ATOM     11  C   UNL     1       5.658   4.671  14.704  0.00  0.00    +0.000 C 
BRANCH  11  12
ATOM     12  C   UNL     1       6.452   3.953  13.590  0.00  0.00    +0.000 C 
ATOM     13  C   UNL     1       5.564   3.335  12.509  0.00  0.00    +0.000 C 
ATOM     14  C   UNL     1       7.410   4.950  12.926  0.00  0.00    +0.000 C 
ENDBRANCH  11  12
ENDBRANCH   6  11
ENDBRANCH   4   6
ENDBRANCH   1   4
BRANCH   1  15
ATOM     15  N   UNL     1       3.751   5.187  19.290  0.00  0.00    +0.000 NA
ATOM     16  H   UNL     1       4.178   6.002  19.739  0.00  0.00    +0.000 HD
BRANCH  15  17
ATOM     17  C   UNL     1       2.734   5.671  18.290  0.00  0.00    +0.000 C 
BRANCH  17  18
ATOM     18  C   UNL     1       2.264   7.040  18.802  0.00  0.00    +0.000 C 
ATOM     19  O   UNL     1       2.219   7.373  19.981  0.00  0.00    +0.000 OA
BRANCH  18  20
ATOM     20  O   UNL     1       1.877   7.833  17.761  0.00  0.00    +0.000 OA
ATOM     21  C   UNL     1       2.120   9.225  17.966  0.00  0.00    +0.000 C 
ENDBRANCH  18  20
ENDBRANCH  17  18
BRANCH  17  22
ATOM     22  C   UNL     1       1.513   4.742  18.154  0.00  0.00    +0.000 C 
BRANCH  22  23
ATOM     23  C   UNL     1       1.464   3.610  19.213  0.00  0.00    +0.000 C 
ATOM     24  C   UNL     1       0.808   4.056  20.523  0.00  0.00    +0.000 C 
ATOM     25  C   UNL     1       0.732   2.374  18.679  0.00  0.00    +0.000 C 
ENDBRANCH  22  23
ENDBRANCH  17  22
ENDBRANCH  15  17
ENDBRANCH   1  15
TORSDOF 12
ENDMDL
MODEL 5
REMARK VINA RESULT:      -6.7      1.519      3.247
REMARK  Name = 
REMARK  18 active torsions:
REMARK  status: ('A' for Active; 'I' for Inactive)
REMARK    1  A    between atoms: C_1  and  O_2
REMARK    2  A    between atoms: O_2  and  C_3
REMARK    3  A    between atoms: C_3  and  C_5
REMARK    4  A    between atoms: C_5  and  C_6
REMARK    5  A    between atoms: C_5  and  N_10
REMARK    6  A    between atoms: C_6  and  C_7
REMARK    7  A    between atoms: C_7  and  C_8
REMARK    8  A    between atoms: C_7  and  C_9
REMARK    9  A    between atoms: N_10  and  S_11
REMARK   10  A    between atoms: S_11  and  N_14
REMARK   11  A    between atoms: N_14  and  C_15
REMARK   12  A    between atoms: C_15  and  C_16
REMARK   13  A    between atoms: C_15  and  C_20
REMARK   14  A    between atoms: C_16  and  C_17
REMARK   15  A    between atoms: C_17  and  C_18
REMARK   16  A    between atoms: C_17  and  C_19
REMARK   17  A    between atoms: C_20  and  O_22
REMARK   18  A    between atoms: O_22  and  C_23
REMARK                            x       y       z     vdW  Elec       q    Type
REMARK                         _______ _______ _______ _____ _____    ______ ____
ROOT
ATOM      1  S   UNL     1       3.964   4.445  17.904  0.00  0.00    +0.000 S 
ATOM      2  O   UNL     1       4.877   3.527  18.530  0.00  0.00    +0.000 OA
ATOM      3  O   UNL     1       2.739   4.015  17.282  0.00  0.00    +0.000 OA
ENDROOT
BRANCH   1   4
ATOM      4  N   UNL     1       3.614   5.630  19.014  0.00  0.00    +0.000 NA
ATOM      5  H   UNL     1       4.348   5.722  19.719  0.00  0.00    +0.000 HD
BRANCH   4   6
ATOM      6  C   UNL     1       2.236   5.776  19.564  0.00  0.00    +0.000 C 
BRANCH   6   7
ATOM      7  C   UNL     1       1.929   7.255  19.830  0.00  0.00    +0.000 C 
ATOM      8  O   UNL     1       2.228   8.179  19.082  0.00  0.00    +0.000 OA
BRANCH   7  10
ATOM      9  C   UNL     1       1.340   8.692  21.634  0.00  0.00    +0.000 C 
ATOM     10  O   UNL     1       1.296   7.396  21.031  0.00  0.00    +0.000 OA
ENDBRANCH   7  10
ENDBRANCH   6   7
BRANCH   6  11
ATOM     11  C   UNL     1       1.992   4.914  20.816  0.00  0.00    +0.000 C 
BRANCH  11  12
ATOM     12  C   UNL     1       1.848   3.389  20.613  0.00  0.00    +0.000 C 
ATOM     13  C   UNL     1       1.736   2.608  21.923  0.00  0.00    +0.000 C 
ATOM     14  C   UNL     1       0.603   3.105  19.766  0.00  0.00    +0.000 C 
ENDBRANCH  11  12
ENDBRANCH   6  11
ENDBRANCH   4   6
ENDBRANCH   1   4
BRANCH   1  15
ATOM     15  N   UNL     1       4.843   5.369  16.836  0.00  0.00    +0.000 NA
ATOM     16  H   UNL     1       5.335   6.060  17.409  0.00  0.00    +0.000 HD
BRANCH  15  17
ATOM     17  C   UNL     1       5.852   4.659  15.973  0.00  0.00    +0.000 C 
BRANCH  17  18
ATOM     18  C   UNL     1       7.228   5.068  16.518  0.00  0.00    +0.000 C 
ATOM     19  O   UNL     1       8.000   4.324  17.113  0.00  0.00    +0.000 OA
BRANCH  18  20
ATOM     20  O   UNL     1       7.467   6.389  16.271  0.00  0.00    +0.000 OA
ATOM     21  C   UNL     1       7.600   7.188  17.447  0.00  0.00    +0.000 C 
ENDBRANCH  18  20
ENDBRANCH  17  18
BRANCH  17  22
ATOM     22  C   UNL     1       5.771   5.044  14.484  0.00  0.00    +0.000 C 
BRANCH  22  23
ATOM     23  C   UNL     1       6.740   4.245  13.574  0.00  0.00    +0.000 C 
ATOM     24  C   UNL     1       6.005   3.394  12.535  0.00  0.00    +0.000 C 
ATOM     25  C   UNL     1       7.728   5.171  12.859  0.00  0.00    +0.000 C 
ENDBRANCH  22  23
ENDBRANCH  17  22
ENDBRANCH  15  17
ENDBRANCH   1  15
TORSDOF 12
ENDMDL
MODEL 6
REMARK VINA RESULT:      -6.6      1.037      5.875
REMARK  Name = 
REMARK  18 active torsions:
REMARK  status: ('A' for Active; 'I' for Inactive)
REMARK    1  A    between atoms: C_1  and  O_2
REMARK    2  A    between atoms: O_2  and  C_3
REMARK    3  A    between atoms: C_3  and  C_5
REMARK    4  A    between atoms: C_5  and  C_6
REMARK    5  A    between atoms: C_5  and  N_10
REMARK    6  A    between atoms: C_6  and  C_7
REMARK    7  A    between atoms: C_7  and  C_8
REMARK    8  A    between atoms: C_7  and  C_9
REMARK    9  A    between atoms: N_10  and  S_11
REMARK   10  A    between atoms: S_11  and  N_14
REMARK   11  A    between atoms: N_14  and  C_15
REMARK   12  A    between atoms: C_15  and  C_16
REMARK   13  A    between atoms: C_15  and  C_20
REMARK   14  A    between atoms: C_16  and  C_17
REMARK   15  A    between atoms: C_17  and  C_18
REMARK   16  A    between atoms: C_17  and  C_19
REMARK   17  A    between atoms: C_20  and  O_22
REMARK   18  A    between atoms: O_22  and  C_23
REMARK                            x       y       z     vdW  Elec       q    Type
REMARK                         _______ _______ _______ _____ _____    ______ ____
ROOT
ATOM      1  S   UNL     1       3.655   2.996  17.658  0.00  0.00    +0.000 S 
ATOM      2  O   UNL     1       2.585   3.309  16.752  0.00  0.00    +0.000 OA
ATOM      3  O   UNL     1       3.787   1.706  18.285  0.00  0.00    +0.000 OA
ENDROOT
BRANCH   1   4
ATOM      4  N   UNL     1       5.080   3.367  16.890  0.00  0.00    +0.000 NA
ATOM      5  H   UNL     1       5.817   2.693  17.105  0.00  0.00    +0.000 HD
BRANCH   4   6
ATOM      6  C   UNL     1       5.562   4.776  16.817  0.00  0.00    +0.000 C 
BRANCH   6   7
ATOM      7  C   UNL     1       5.444   5.300  15.380  0.00  0.00    +0.000 C 
ATOM      8  O   UNL     1       5.434   6.484  15.064  0.00  0.00    +0.000 OA
BRANCH   7  10
ATOM      9  C   UNL     1       6.431   4.027  13.627  0.00  0.00    +0.000 C 
ATOM     10  O   UNL     1       5.327   4.257  14.506  0.00  0.00    +0.000 OA
ENDBRANCH   7  10
ENDBRANCH   6   7
BRANCH   6  11
ATOM     11  C   UNL     1       6.988   4.955  17.368  0.00  0.00    +0.000 C 
BRANCH  11  12
ATOM     12  C   UNL     1       7.214   6.076  18.407  0.00  0.00    +0.000 C 
ATOM     13  C   UNL     1       8.192   5.690  19.518  0.00  0.00    +0.000 C 
ATOM     14  C   UNL     1       7.748   7.325  17.696  0.00  0.00    +0.000 C 
ENDBRANCH  11  12
ENDBRANCH   6  11
ENDBRANCH   4   6
ENDBRANCH   1   4
BRANCH   1  15
ATOM     15  N   UNL     1       3.690   4.190  18.817  0.00  0.00    +0.000 NA
ATOM     16  H   UNL     1       4.472   4.800  18.562  0.00  0.00    +0.000 HD
BRANCH  15  17
ATOM     17  C   UNL     1       2.455   5.037  18.975  0.00  0.00    +0.000 C 
BRANCH  17  18
ATOM     18  C   UNL     1       2.866   6.455  18.554  0.00  0.00    +0.000 C 
ATOM     19  O   UNL     1       3.976   6.947  18.725  0.00  0.00    +0.000 OA
BRANCH  18  20
ATOM     20  O   UNL     1       1.812   7.108  17.982  0.00  0.00    +0.000 OA
ATOM     21  C   UNL     1       1.982   8.523  17.892  0.00  0.00    +0.000 C 
ENDBRANCH  18  20
ENDBRANCH  17  18
BRANCH  17  22
ATOM     22  C   UNL     1       1.918   5.080  20.419  0.00  0.00    +0.000 C 
BRANCH  22  23
ATOM     23  C   UNL     1       1.193   3.782  20.858  0.00  0.00    +0.000 C 
ATOM     24  C   UNL     1       0.594   3.013  19.677  0.00  0.00    +0.000 C 
ATOM     25  C   UNL     1       2.129   2.854  21.639  0.00  0.00    +0.000 C 
ENDBRANCH  22  23
ENDBRANCH  17  22
ENDBRANCH  15  17
ENDBRANCH   1  15
TORSDOF 12
ENDMDL
MODEL 7
REMARK VINA RESULT:      -6.6      1.626      6.182
REMARK  Name = 
REMARK  18 active torsions:
REMARK  status: ('A' for Active; 'I' for Inactive)
REMARK    1  A    between atoms: C_1  and  O_2
REMARK    2  A    between atoms: O_2  and  C_3
REMARK    3  A    between atoms: C_3  and  C_5
REMARK    4  A    between atoms: C_5  and  C_6
REMARK    5  A    between atoms: C_5  and  N_10
REMARK    6  A    between atoms: C_6  and  C_7
REMARK    7  A    between atoms: C_7  and  C_8
REMARK    8  A    between atoms: C_7  and  C_9
REMARK    9  A    between atoms: N_10  and  S_11
REMARK   10  A    between atoms: S_11  and  N_14
REMARK   11  A    between atoms: N_14  and  C_15
REMARK   12  A    between atoms: C_15  and  C_16
REMARK   13  A    between atoms: C_15  and  C_20
REMARK   14  A    between atoms: C_16  and  C_17
REMARK   15  A    between atoms: C_17  and  C_18
REMARK   16  A    between atoms: C_17  and  C_19
REMARK   17  A    between atoms: C_20  and  O_22
REMARK   18  A    between atoms: O_22  and  C_23
REMARK                            x       y       z     vdW  Elec       q    Type
REMARK                         _______ _______ _______ _____ _____    ______ ____
ROOT
ATOM      1  S   UNL     1       4.685   4.493  18.781  0.00  0.00    +0.000 S 
ATOM      2  O   UNL     1       3.732   3.951  17.851  0.00  0.00    +0.000 OA
ATOM      3  O   UNL     1       5.685   3.681  19.425  0.00  0.00    +0.000 OA
ENDROOT
BRANCH   1   4
ATOM      4  N   UNL     1       5.434   5.773  18.034  0.00  0.00    +0.000 NA
ATOM      5  H   UNL     1       4.912   6.098  17.218  0.00  0.00    +0.000 HD
BRANCH   4   6
ATOM      6  C   UNL     1       6.912   5.785  17.842  0.00  0.00    +0.000 C 
BRANCH   6   7
ATOM      7  C   UNL     1       7.408   7.225  17.656  0.00  0.00    +0.000 C 
ATOM      8  O   UNL     1       7.020   7.993  16.783  0.00  0.00    +0.000 OA
BRANCH   7  10
ATOM      9  C   UNL     1       8.731   8.895  18.719  0.00  0.00    +0.000 C 
ATOM     10  O   UNL     1       8.360   7.520  18.589  0.00  0.00    +0.000 OA
ENDBRANCH   7  10
ENDBRANCH   6   7
BRANCH   6  11
ATOM     11  C   UNL     1       7.377   4.875  16.690  0.00  0.00    +0.000 C 
BRANCH  11  12
ATOM     12  C   UNL     1       6.531   4.874  15.398  0.00  0.00    +0.000 C 
ATOM     13  C   UNL     1       7.347   5.151  14.135  0.00  0.00    +0.000 C 
ATOM     14  C   UNL     1       5.839   3.514  15.245  0.00  0.00    +0.000 C 
ENDBRANCH  11  12
ENDBRANCH   6  11
ENDBRANCH   4   6
ENDBRANCH   1   4
BRANCH   1  15
ATOM     15  N   UNL     1       3.832   5.348  19.925  0.00  0.00    +0.000 NA
ATOM     16  H   UNL     1       4.310   6.250  20.009  0.00  0.00    +0.000 HD
BRANCH  15  17
ATOM     17  C   UNL     1       2.373   5.603  19.653  0.00  0.00    +0.000 C 
BRANCH  17  18
ATOM     18  C   UNL     1       2.243   7.122  19.472  0.00  0.00    +0.000 C 
ATOM     19  O   UNL     1       1.791   7.896  20.309  0.00  0.00    +0.000 OA
BRANCH  18  20
ATOM     20  O   UNL     1       2.678   7.495  18.233  0.00  0.00    +0.000 OA
ATOM     21  C   UNL     1       2.224   8.784  17.818  0.00  0.00    +0.000 C 
ENDBRANCH  18  20
ENDBRANCH  17  18
BRANCH  17  22
ATOM     22  C   UNL     1       1.445   5.156  20.799  0.00  0.00    +0.000 C 
BRANCH  22  23
ATOM     23  C   UNL     1       1.105   3.643  20.776  0.00  0.00    +0.000 C 
ATOM     24  C   UNL     1       0.934   3.098  19.355  0.00  0.00    +0.000 C 
ATOM     25  C   UNL     1       2.169   2.818  21.506  0.00  0.00    +0.000 C 
ENDBRANCH  22  23
ENDBRANCH  17  22
ENDBRANCH  15  17
ENDBRANCH   1  15
TORSDOF 12
ENDMDL
MODEL 8
REMARK VINA RESULT:      -6.6      0.767      6.235
REMARK  Name = 
REMARK  18 active torsions:
REMARK  status: ('A' for Active; 'I' for Inactive)
REMARK    1  A    between atoms: C_1  and  O_2
REMARK    2  A    between atoms: O_2  and  C_3
REMARK    3  A    between atoms: C_3  and  C_5
REMARK    4  A    between atoms: C_5  and  C_6
REMARK    5  A    between atoms: C_5  and  N_10
REMARK    6  A    between atoms: C_6  and  C_7
REMARK    7  A    between atoms: C_7  and  C_8
REMARK    8  A    between atoms: C_7  and  C_9
REMARK    9  A    between atoms: N_10  and  S_11
REMARK   10  A    between atoms: S_11  and  N_14
REMARK   11  A    between atoms: N_14  and  C_15
REMARK   12  A    between atoms: C_15  and  C_16
REMARK   13  A    between atoms: C_15  and  C_20
REMARK   14  A    between atoms: C_16  and  C_17
REMARK   15  A    between atoms: C_17  and  C_18
REMARK   16  A    between atoms: C_17  and  C_19
REMARK   17  A    between atoms: C_20  and  O_22
REMARK   18  A    between atoms: O_22  and  C_23
REMARK                            x       y       z     vdW  Elec       q    Type
REMARK                         _______ _______ _______ _____ _____    ______ ____
ROOT
ATOM      1  S   UNL     1       4.830   3.773  18.197  0.00  0.00    +0.000 S 
ATOM      2  O   UNL     1       3.965   2.992  17.356  0.00  0.00    +0.000 OA
ATOM      3  O   UNL     1       5.241   3.335  19.506  0.00  0.00    +0.000 OA
ENDROOT
BRANCH   1   4
ATOM      4  N   UNL     1       6.182   4.146  17.307  0.00  0.00    +0.000 NA
ATOM      5  H   UNL     1       7.038   4.051  17.856  0.00  0.00    +0.000 HD
BRANCH   4   6
ATOM      6  C   UNL     1       6.189   5.319  16.387  0.00  0.00    +0.000 C 
BRANCH   6   7
ATOM      7  C   UNL     1       6.222   4.844  14.929  0.00  0.00    +0.000 C 
ATOM      8  O   UNL     1       5.301   4.270  14.357  0.00  0.00    +0.000 OA
BRANCH   7  10
ATOM      9  C   UNL     1       7.494   5.137  12.938  0.00  0.00    +0.000 C 
ATOM     10  O   UNL     1       7.433   5.131  14.367  0.00  0.00    +0.000 OA
ENDBRANCH   7  10
ENDBRANCH   6   7
BRANCH   6  11
ATOM     11  C   UNL     1       7.328   6.311  16.683  0.00  0.00    +0.000 C 
BRANCH  11  12
ATOM     12  C   UNL     1       7.345   6.979  18.077  0.00  0.00    +0.000 C 
ATOM     13  C   UNL     1       7.992   6.114  19.159  0.00  0.00    +0.000 C 
ATOM     14  C   UNL     1       8.103   8.309  17.994  0.00  0.00    +0.000 C 
ENDBRANCH  11  12
ENDBRANCH   6  11
ENDBRANCH   4   6
ENDBRANCH   1   4
BRANCH   1  15
ATOM     15  N   UNL     1       4.178   5.301  18.294  0.00  0.00    +0.000 NA
ATOM     16  H   UNL     1       4.162   5.656  17.334  0.00  0.00    +0.000 HD
BRANCH  15  17
ATOM     17  C   UNL     1       2.794   5.428  18.875  0.00  0.00    +0.000 C 
BRANCH  17  18
ATOM     18  C   UNL     1       2.555   6.934  19.054  0.00  0.00    +0.000 C 
ATOM     19  O   UNL     1       2.061   7.456  20.048  0.00  0.00    +0.000 OA
BRANCH  18  20
ATOM     20  O   UNL     1       2.946   7.617  17.938  0.00  0.00    +0.000 OA
ATOM     21  C   UNL     1       2.187   8.800  17.682  0.00  0.00    +0.000 C 
ENDBRANCH  18  20
ENDBRANCH  17  18
BRANCH  17  22
ATOM     22  C   UNL     1       2.631   4.731  20.239  0.00  0.00    +0.000 C 
BRANCH  22  23
ATOM     23  C   UNL     1       1.342   3.876  20.356  0.00  0.00    +0.000 C 
ATOM     24  C   UNL     1       0.977   3.177  19.044  0.00  0.00    +0.000 C 
ATOM     25  C   UNL     1       1.464   2.829  21.468  0.00  0.00    +0.000 C 
ENDBRANCH  22  23
ENDBRANCH  17  22
ENDBRANCH  15  17
ENDBRANCH   1  15
TORSDOF 12
ENDMDL
MODEL 9
REMARK VINA RESULT:      -6.5      1.327      2.894
REMARK  Name = 
REMARK  18 active torsions:
REMARK  status: ('A' for Active; 'I' for Inactive)
REMARK    1  A    between atoms: C_1  and  O_2
REMARK    2  A    between atoms: O_2  and  C_3
REMARK    3  A    between atoms: C_3  and  C_5
REMARK    4  A    between atoms: C_5  and  C_6
REMARK    5  A    between atoms: C_5  and  N_10
REMARK    6  A    between atoms: C_6  and  C_7
REMARK    7  A    between atoms: C_7  and  C_8
REMARK    8  A    between atoms: C_7  and  C_9
REMARK    9  A    between atoms: N_10  and  S_11
REMARK   10  A    between atoms: S_11  and  N_14
REMARK   11  A    between atoms: N_14  and  C_15
REMARK   12  A    between atoms: C_15  and  C_16
REMARK   13  A    between atoms: C_15  and  C_20
REMARK   14  A    between atoms: C_16  and  C_17
REMARK   15  A    between atoms: C_17  and  C_18
REMARK   16  A    between atoms: C_17  and  C_19
REMARK   17  A    between atoms: C_20  and  O_22
REMARK   18  A    between atoms: O_22  and  C_23
REMARK                            x       y       z     vdW  Elec       q    Type
REMARK                         _______ _______ _______ _____ _____    ______ ____
ROOT
ATOM      1  S   UNL     1       3.396   3.740  17.535  0.00  0.00    +0.000 S 
ATOM      2  O   UNL     1       4.081   2.572  18.018  0.00  0.00    +0.000 OA
ATOM      3  O   UNL     1       2.036   3.700  17.063  0.00  0.00    +0.000 OA
ENDROOT
BRANCH   1   4
ATOM      4  N   UNL     1       3.523   4.909  18.709  0.00  0.00    +0.000 NA
ATOM      5  H   UNL     1       4.329   4.754  19.317  0.00  0.00    +0.000 HD
BRANCH   4   6
ATOM      6  C   UNL     1       2.314   5.397  19.431  0.00  0.00    +0.000 C 
BRANCH   6   7
ATOM      7  C   UNL     1       2.213   6.923  19.318  0.00  0.00    +0.000 C 
ATOM      8  O   UNL     1       2.035   7.686  20.261  0.00  0.00    +0.000 OA
BRANCH   7  10
ATOM      9  C   UNL     1       2.275   8.712  17.748  0.00  0.00    +0.000 C 
ATOM     10  O   UNL     1       2.326   7.308  18.012  0.00  0.00    +0.000 OA
ENDBRANCH   7  10
ENDBRANCH   6   7
BRANCH   6  11
ATOM     11  C   UNL     1       2.261   4.935  20.899  0.00  0.00    +0.000 C 
BRANCH  11  12
ATOM     12  C   UNL     1       1.603   3.567  21.191  0.00  0.00    +0.000 C 
ATOM     13  C   UNL     1       0.720   3.060  20.050  0.00  0.00    +0.000 C 
ATOM     14  C   UNL     1       2.694   2.526  21.465  0.00  0.00    +0.000 C 
ENDBRANCH  11  12
ENDBRANCH   6  11
ENDBRANCH   4   6
ENDBRANCH   1   4
BRANCH   1  15
ATOM     15  N   UNL     1       4.370   4.447  16.387  0.00  0.00    +0.000 NA
ATOM     16  H   UNL     1       4.034   5.410  16.294  0.00  0.00    +0.000 HD
BRANCH  15  17
ATOM     17  C   UNL     1       5.851   4.482  16.660  0.00  0.00    +0.000 C 
BRANCH  17  18
ATOM     18  C   UNL     1       6.201   5.962  16.869  0.00  0.00    +0.000 C 
ATOM     19  O   UNL     1       5.398   6.888  16.827  0.00  0.00    +0.000 OA
BRANCH  18  20
ATOM     20  O   UNL     1       7.540   6.111  17.085  0.00  0.00    +0.000 OA
ATOM     21  C   UNL     1       7.862   6.940  18.203  0.00  0.00    +0.000 C 
ENDBRANCH  18  20
ENDBRANCH  17  18
BRANCH  17  22
ATOM     22  C   UNL     1       6.704   3.925  15.505  0.00  0.00    +0.000 C 
BRANCH  22  23
ATOM     23  C   UNL     1       6.412   4.586  14.133  0.00  0.00    +0.000 C 
ATOM     24  C   UNL     1       7.655   5.227  13.510  0.00  0.00    +0.000 C 
ATOM     25  C   UNL     1       5.814   3.581  13.143  0.00  0.00    +0.000 C 
ENDBRANCH  22  23
ENDBRANCH  17  22
ENDBRANCH  15  17
ENDBRANCH   1  15
TORSDOF 12
ENDMDL
