MODEL 1
REMARK VINA RESULT:      -9.1      0.000      0.000
REMARK  Name = 
REMARK  7 active torsions:
REMARK  status: ('A' for Active; 'I' for Inactive)
REMARK    1  A    between atoms: C_5  and  O_6
REMARK    2  A    between atoms: N_12  and  C_13
REMARK    3  A    between atoms: C_16  and  O_17
REMARK    4  A    between atoms: O_17  and  C_18
REMARK    5  A    between atoms: C_18  and  C_19
REMARK    6  A    between atoms: C_19  and  N_20
REMARK    7  A    between atoms: C_31  and  O_32
REMARK                            x       y       z     vdW  Elec       q    Type
REMARK                         _______ _______ _______ _____ _____    ______ ____
ROOT
ATOM      1  O   UNL     1      -0.516  11.976  22.572  0.00  0.00    +0.000 OA
ATOM      2  C   UNL     1      -1.522  12.145  21.877  0.00  0.00    +0.000 A 
ATOM      3  C   UNL     1      -2.612  12.909  22.489  0.00  0.00    +0.000 A 
ATOM      4  C   UNL     1      -2.449  13.382  23.806  0.00  0.00    +0.000 A 
ATOM      5  C   UNL     1      -3.451  14.133  24.393  0.00  0.00    +0.000 A 
ATOM      6  C   UNL     1      -4.609  14.413  23.689  0.00  0.00    +0.000 A 
ATOM      7  C   UNL     1      -4.762  13.934  22.381  0.00  0.00    +0.000 A 
ATOM      8  C   UNL     1      -3.759  13.172  21.749  0.00  0.00    +0.000 A 
ATOM      9  C   UNL     1      -3.876  12.636  20.365  0.00  0.00    +0.000 A 
ATOM     10  C   UNL     1      -2.877  11.897  19.810  0.00  0.00    +0.000 A 
ATOM     11  N   UNL     1      -1.681  11.690  20.543  0.00  0.00    +0.000 N 
ATOM     12  C   UNL     1      -3.124  11.302  18.432  0.00  0.00    +0.000 A 
ATOM     13  C   UNL     1      -2.323  10.309  17.830  0.00  0.00    +0.000 A 
ATOM     14  C   UNL     1      -2.488   9.885  16.501  0.00  0.00    +0.000 A 
ATOM     15  C   UNL     1      -3.525  10.397  15.749  0.00  0.00    +0.000 A 
ATOM     16  C   UNL     1      -4.416  11.274  16.332  0.00  0.00    +0.000 A 
ATOM     17  C   UNL     1      -4.235  11.709  17.665  0.00  0.00    +0.000 A 
ATOM     18  C   UNL     1      -5.328  12.566  18.219  0.00  0.00    +0.000 C 
ATOM     19  C   UNL     1      -5.163  12.988  19.664  0.00  0.00    +0.000 C 
ENDROOT
BRANCH  11  20
ATOM     20  C   UNL     1      -0.484  11.092  20.047  0.00  0.00    +0.000 A 
ATOM     21  C   UNL     1       0.301  11.835  19.163  0.00  0.00    +0.000 A 
ATOM     22  C   UNL     1       1.368  11.244  18.503  0.00  0.00    +0.000 A 
ATOM     23  C   UNL     1       1.661   9.889  18.685  0.00  0.00    +0.000 A 
ATOM     24  C   UNL     1       0.919   9.157  19.619  0.00  0.00    +0.000 A 
ATOM     25  C   UNL     1      -0.155   9.754  20.302  0.00  0.00    +0.000 A 
BRANCH  23  26
ATOM     26  O   UNL     1       2.623   9.206  17.965  0.00  0.00    +0.000 OA
BRANCH  26  27
ATOM     27  C   UNL     1       2.297   7.817  17.807  0.00  0.00    +0.000 C 
BRANCH  27  28
ATOM     28  C   UNL     1       3.440   6.855  18.147  0.00  0.00    +0.000 C 
BRANCH  28  29
ATOM     29  N   UNL     1       2.935   5.600  18.761  0.00  0.00    +0.000 NA
ATOM     30  C   UNL     1       2.401   5.868  20.105  0.00  0.00    +0.000 C 
ATOM     31  C   UNL     1       1.942   4.581  20.797  0.00  0.00    +0.000 C 
ATOM     32  C   UNL     1       0.918   3.827  19.957  0.00  0.00    +0.000 C 
ATOM     33  C   UNL     1       1.458   3.602  18.554  0.00  0.00    +0.000 C 
ATOM     34  C   UNL     1       1.932   4.915  17.927  0.00  0.00    +0.000 C 
ENDBRANCH  28  29
ENDBRANCH  27  28
ENDBRANCH  26  27
ENDBRANCH  23  26
ENDBRANCH  11  20
BRANCH   5  35
ATOM     35  O   UNL     1      -3.335  14.618  25.660  0.00  0.00    +0.000 OA
ATOM     36  H   UNL     1      -3.149  13.877  26.263  0.00  0.00    +0.000 HD
ENDBRANCH   5  35
BRANCH  15  37
ATOM     37  O   UNL     1      -3.724  10.039  14.453  0.00  0.00    +0.000 OA
ATOM     38  H   UNL     1      -4.327   9.278  14.430  0.00  0.00    +0.000 HD
ENDBRANCH  15  37
TORSDOF 7
ENDMDL
MODEL 2
REMARK VINA RESULT:      -8.6      0.727      1.037
REMARK  Name = 
REMARK  7 active torsions:
REMARK  status: ('A' for Active; 'I' for Inactive)
REMARK    1  A    between atoms: C_5  and  O_6
REMARK    2  A    between atoms: N_12  and  C_13
REMARK    3  A    between atoms: C_16  and  O_17
REMARK    4  A    between atoms: O_17  and  C_18
REMARK    5  A    between atoms: C_18  and  C_19
REMARK    6  A    between atoms: C_19  and  N_20
REMARK    7  A    between atoms: C_31  and  O_32
REMARK                            x       y       z     vdW  Elec       q    Type
REMARK                         _______ _______ _______ _____ _____    ______ ____
ROOT
ATOM      1  O   UNL     1      -0.528  11.877  22.623  0.00  0.00    +0.000 OA
ATOM      2  C   UNL     1      -1.521  12.067  21.915  0.00  0.00    +0.000 A 
ATOM      3  C   UNL     1      -2.601  12.858  22.510  0.00  0.00    +0.000 A 
ATOM      4  C   UNL     1      -2.444  13.332  23.828  0.00  0.00    +0.000 A 
ATOM      5  C   UNL     1      -3.436  14.107  24.400  0.00  0.00    +0.000 A 
ATOM      6  C   UNL     1      -4.578  14.411  23.680  0.00  0.00    +0.000 A 
ATOM      7  C   UNL     1      -4.725  13.931  22.372  0.00  0.00    +0.000 A 
ATOM      8  C   UNL     1      -3.732  13.144  21.755  0.00  0.00    +0.000 A 
ATOM      9  C   UNL     1      -3.844  12.606  20.371  0.00  0.00    +0.000 A 
ATOM     10  C   UNL     1      -2.855  11.842  19.832  0.00  0.00    +0.000 A 
ATOM     11  N   UNL     1      -1.673  11.611  20.581  0.00  0.00    +0.000 N 
ATOM     12  C   UNL     1      -3.097  11.249  18.452  0.00  0.00    +0.000 A 
ATOM     13  C   UNL     1      -2.312  10.236  17.864  0.00  0.00    +0.000 A 
ATOM     14  C   UNL     1      -2.469   9.811  16.534  0.00  0.00    +0.000 A 
ATOM     15  C   UNL     1      -3.484  10.344  15.767  0.00  0.00    +0.000 A 
ATOM     16  C   UNL     1      -4.362  11.243  16.335  0.00  0.00    +0.000 A 
ATOM     17  C   UNL     1      -4.189  11.678  17.669  0.00  0.00    +0.000 A 
ATOM     18  C   UNL     1      -5.269  12.562  18.206  0.00  0.00    +0.000 C 
ATOM     19  C   UNL     1      -5.113  12.985  19.652  0.00  0.00    +0.000 C 
ENDROOT
BRANCH  11  20
ATOM     20  C   UNL     1      -0.484  10.984  20.102  0.00  0.00    +0.000 A 
ATOM     21  C   UNL     1       0.271  11.660  19.141  0.00  0.00    +0.000 A 
ATOM     22  C   UNL     1       1.326  11.026  18.502  0.00  0.00    +0.000 A 
ATOM     23  C   UNL     1       1.636   9.692  18.784  0.00  0.00    +0.000 A 
ATOM     24  C   UNL     1       0.926   9.032  19.792  0.00  0.00    +0.000 A 
ATOM     25  C   UNL     1      -0.135   9.674  20.454  0.00  0.00    +0.000 A 
BRANCH  23  26
ATOM     26  O   UNL     1       2.586   8.961  18.095  0.00  0.00    +0.000 OA
BRANCH  26  27
ATOM     27  C   UNL     1       2.717   7.626  18.605  0.00  0.00    +0.000 C 
BRANCH  27  28
ATOM     28  C   UNL     1       3.340   6.629  17.621  0.00  0.00    +0.000 C 
BRANCH  28  29
ATOM     29  N   UNL     1       3.128   5.225  18.058  0.00  0.00    +0.000 NA
ATOM     30  C   UNL     1       1.745   4.808  17.786  0.00  0.00    +0.000 C 
ATOM     31  C   UNL     1       1.473   3.389  18.295  0.00  0.00    +0.000 C 
ATOM     32  C   UNL     1       2.457   2.384  17.708  0.00  0.00    +0.000 C 
ATOM     33  C   UNL     1       3.884   2.851  17.947  0.00  0.00    +0.000 C 
ATOM     34  C   UNL     1       4.087   4.284  17.450  0.00  0.00    +0.000 C 
ENDBRANCH  28  29
ENDBRANCH  27  28
ENDBRANCH  26  27
ENDBRANCH  23  26
ENDBRANCH  11  20
BRANCH   5  35
ATOM     35  O   UNL     1      -3.326  14.593  25.666  0.00  0.00    +0.000 OA
ATOM     36  H   UNL     1      -3.714  13.949  26.284  0.00  0.00    +0.000 HD
ENDBRANCH   5  35
BRANCH  15  37
ATOM     37  O   UNL     1      -3.675   9.986  14.469  0.00  0.00    +0.000 OA
ATOM     38  H   UNL     1      -4.628   9.894  14.310  0.00  0.00    +0.000 HD
ENDBRANCH  15  37
TORSDOF 7
ENDMDL
MODEL 3
REMARK VINA RESULT:      -8.5      1.492      2.076
REMARK  Name = 
REMARK  7 active torsions:
REMARK  status: ('A' for Active; 'I' for Inactive)
REMARK    1  A    between atoms: C_5  and  O_6
REMARK    2  A    between atoms: N_12  and  C_13
REMARK    3  A    between atoms: C_16  and  O_17
REMARK    4  A    between atoms: O_17  and  C_18
REMARK    5  A    between atoms: C_18  and  C_19
REMARK    6  A    between atoms: C_19  and  N_20
REMARK    7  A    between atoms: C_31  and  O_32
REMARK                            x       y       z     vdW  Elec       q    Type
REMARK                         _______ _______ _______ _____ _____    ______ ____
ROOT
ATOM      1  O   UNL     1      -0.432  12.021  22.411  0.00  0.00    +0.000 OA
ATOM      2  C   UNL     1      -1.459  12.166  21.744  0.00  0.00    +0.000 A 
ATOM      3  C   UNL     1      -2.555  12.894  22.389  0.00  0.00    +0.000 A 
ATOM      4  C   UNL     1      -2.372  13.362  23.706  0.00  0.00    +0.000 A 
ATOM      5  C   UNL     1      -3.379  14.080  24.324  0.00  0.00    +0.000 A 
ATOM      6  C   UNL     1      -4.563  14.332  23.652  0.00  0.00    +0.000 A 
ATOM      7  C   UNL     1      -4.735  13.857  22.345  0.00  0.00    +0.000 A 
ATOM      8  C   UNL     1      -3.727  13.129  21.681  0.00  0.00    +0.000 A 
ATOM      9  C   UNL     1      -3.866  12.600  20.296  0.00  0.00    +0.000 A 
ATOM     10  C   UNL     1      -2.860  11.894  19.710  0.00  0.00    +0.000 A 
ATOM     11  N   UNL     1      -1.640  11.716  20.411  0.00  0.00    +0.000 N 
ATOM     12  C   UNL     1      -3.125  11.302  18.334  0.00  0.00    +0.000 A 
ATOM     13  C   UNL     1      -2.313  10.337  17.704  0.00  0.00    +0.000 A 
ATOM     14  C   UNL     1      -2.500   9.918  16.376  0.00  0.00    +0.000 A 
ATOM     15  C   UNL     1      -3.570  10.405  15.655  0.00  0.00    +0.000 A 
ATOM     16  C   UNL     1      -4.470  11.252  16.267  0.00  0.00    +0.000 A 
ATOM     17  C   UNL     1      -4.267  11.683  17.599  0.00  0.00    +0.000 A 
ATOM     18  C   UNL     1      -5.370  12.504  18.187  0.00  0.00    +0.000 C 
ATOM     19  C   UNL     1      -5.179  12.920  19.631  0.00  0.00    +0.000 C 
ENDROOT
BRANCH  11  20
ATOM     20  C   UNL     1      -0.440  11.156  19.879  0.00  0.00    +0.000 A 
ATOM     21  C   UNL     1       0.351  11.963  19.058  0.00  0.00    +0.000 A 
ATOM     22  C   UNL     1       1.423  11.422  18.363  0.00  0.00    +0.000 A 
ATOM     23  C   UNL     1       1.714  10.058  18.446  0.00  0.00    +0.000 A 
ATOM     24  C   UNL     1       0.967   9.258  19.318  0.00  0.00    +0.000 A 
ATOM     25  C   UNL     1      -0.112   9.803  20.036  0.00  0.00    +0.000 A 
BRANCH  23  26
ATOM     26  O   UNL     1       2.681   9.430  17.684  0.00  0.00    +0.000 OA
BRANCH  26  27
ATOM     27  C   UNL     1       2.855   8.054  18.053  0.00  0.00    +0.000 C 
BRANCH  27  28
ATOM     28  C   UNL     1       3.696   7.234  17.069  0.00  0.00    +0.000 C 
BRANCH  28  29
ATOM     29  N   UNL     1       4.877   6.624  17.734  0.00  0.00    +0.000 NA
ATOM     30  C   UNL     1       4.787   5.157  17.690  0.00  0.00    +0.000 C 
ATOM     31  C   UNL     1       5.952   4.498  18.436  0.00  0.00    +0.000 C 
ATOM     32  C   UNL     1       7.299   4.966  17.898  0.00  0.00    +0.000 C 
ATOM     33  C   UNL     1       7.361   6.486  17.897  0.00  0.00    +0.000 C 
ATOM     34  C   UNL     1       6.157   7.088  17.169  0.00  0.00    +0.000 C 
ENDBRANCH  28  29
ENDBRANCH  27  28
ENDBRANCH  26  27
ENDBRANCH  23  26
ENDBRANCH  11  20
BRANCH   5  35
ATOM     35  O   UNL     1      -3.245  14.558  25.591  0.00  0.00    +0.000 OA
ATOM     36  H   UNL     1      -3.107  15.521  25.549  0.00  0.00    +0.000 HD
ENDBRANCH   5  35
BRANCH  15  37
ATOM     37  O   UNL     1      -3.792  10.051  14.361  0.00  0.00    +0.000 OA
ATOM     38  H   UNL     1      -3.107  10.459  13.807  0.00  0.00    +0.000 HD
ENDBRANCH  15  37
TORSDOF 7
ENDMDL
MODEL 4
REMARK VINA RESULT:      -8.4      1.280      1.904
REMARK  Name = 
REMARK  7 active torsions:
REMARK  status: ('A' for Active; 'I' for Inactive)
REMARK    1  A    between atoms: C_5  and  O_6
REMARK    2  A    between atoms: N_12  and  C_13
REMARK    3  A    between atoms: C_16  and  O_17
REMARK    4  A    between atoms: O_17  and  C_18
REMARK    5  A    between atoms: C_18  and  C_19
REMARK    6  A    between atoms: C_19  and  N_20
REMARK    7  A    between atoms: C_31  and  O_32
REMARK                            x       y       z     vdW  Elec       q    Type
REMARK                         _______ _______ _______ _____ _____    ______ ____
ROOT
ATOM      1  O   UNL     1      -0.486  11.916  22.521  0.00  0.00    +0.000 OA
ATOM      2  C   UNL     1      -1.488  12.087  21.821  0.00  0.00    +0.000 A 
ATOM      3  C   UNL     1      -2.585  12.843  22.431  0.00  0.00    +0.000 A 
ATOM      4  C   UNL     1      -2.432  13.308  23.753  0.00  0.00    +0.000 A 
ATOM      5  C   UNL     1      -3.439  14.052  24.338  0.00  0.00    +0.000 A 
ATOM      6  C   UNL     1      -4.594  14.333  23.629  0.00  0.00    +0.000 A 
ATOM      7  C   UNL     1      -4.737  13.861  22.317  0.00  0.00    +0.000 A 
ATOM      8  C   UNL     1      -3.727  13.107  21.686  0.00  0.00    +0.000 A 
ATOM      9  C   UNL     1      -3.835  12.580  20.298  0.00  0.00    +0.000 A 
ATOM     10  C   UNL     1      -2.829  11.848  19.745  0.00  0.00    +0.000 A 
ATOM     11  N   UNL     1      -1.637  11.641  20.484  0.00  0.00    +0.000 N 
ATOM     12  C   UNL     1      -3.065  11.262  18.361  0.00  0.00    +0.000 A 
ATOM     13  C   UNL     1      -2.258  10.276  17.757  0.00  0.00    +0.000 A 
ATOM     14  C   UNL     1      -2.413   9.860  16.424  0.00  0.00    +0.000 A 
ATOM     15  C   UNL     1      -3.446  10.373  15.669  0.00  0.00    +0.000 A 
ATOM     16  C   UNL     1      -4.344  11.243  16.252  0.00  0.00    +0.000 A 
ATOM     17  C   UNL     1      -4.173  11.670  17.589  0.00  0.00    +0.000 A 
ATOM     18  C   UNL     1      -5.273  12.520  18.142  0.00  0.00    +0.000 C 
ATOM     19  C   UNL     1      -5.118  12.932  19.591  0.00  0.00    +0.000 C 
ENDROOT
BRANCH  11  20
ATOM     20  C   UNL     1      -0.435  11.049  19.991  0.00  0.00    +0.000 A 
ATOM     21  C   UNL     1       0.353  11.802  19.117  0.00  0.00    +0.000 A 
ATOM     22  C   UNL     1       1.427  11.219  18.461  0.00  0.00    +0.000 A 
ATOM     23  C   UNL     1       1.722   9.864  18.635  0.00  0.00    +0.000 A 
ATOM     24  C   UNL     1       0.977   9.122  19.558  0.00  0.00    +0.000 A 
ATOM     25  C   UNL     1      -0.103   9.711  20.239  0.00  0.00    +0.000 A 
BRANCH  23  26
ATOM     26  O   UNL     1       2.692   9.188  17.916  0.00  0.00    +0.000 OA
BRANCH  26  27
ATOM     27  C   UNL     1       2.387   7.793  17.772  0.00  0.00    +0.000 C 
BRANCH  27  28
ATOM     28  C   UNL     1       3.430   6.850  18.381  0.00  0.00    +0.000 C 
BRANCH  28  29
ATOM     29  N   UNL     1       4.264   6.207  17.333  0.00  0.00    +0.000 NA
ATOM     30  C   UNL     1       5.686   6.509  17.554  0.00  0.00    +0.000 C 
ATOM     31  C   UNL     1       6.567   5.923  16.446  0.00  0.00    +0.000 C 
ATOM     32  C   UNL     1       6.358   4.421  16.299  0.00  0.00    +0.000 C 
ATOM     33  C   UNL     1       4.879   4.115  16.124  0.00  0.00    +0.000 C 
ATOM     34  C   UNL     1       4.047   4.752  17.239  0.00  0.00    +0.000 C 
ENDBRANCH  28  29
ENDBRANCH  27  28
ENDBRANCH  26  27
ENDBRANCH  23  26
ENDBRANCH  11  20
BRANCH   5  35
ATOM     35  O   UNL     1      -3.334  14.528  25.609  0.00  0.00    +0.000 OA
ATOM     36  H   UNL     1      -2.392  14.661  25.816  0.00  0.00    +0.000 HD
ENDBRANCH   5  35
BRANCH  15  37
ATOM     37  O   UNL     1      -3.636  10.024  14.369  0.00  0.00    +0.000 OA
ATOM     38  H   UNL     1      -4.014  10.783  13.896  0.00  0.00    +0.000 HD
ENDBRANCH  15  37
TORSDOF 7
ENDMDL
MODEL 5
REMARK VINA RESULT:      -8.3      1.009      1.345
REMARK  Name = 
REMARK  7 active torsions:
REMARK  status: ('A' for Active; 'I' for Inactive)
REMARK    1  A    between atoms: C_5  and  O_6
REMARK    2  A    between atoms: N_12  and  C_13
REMARK    3  A    between atoms: C_16  and  O_17
REMARK    4  A    between atoms: O_17  and  C_18
REMARK    5  A    between atoms: C_18  and  C_19
REMARK    6  A    between atoms: C_19  and  N_20
REMARK    7  A    between atoms: C_31  and  O_32
REMARK                            x       y       z     vdW  Elec       q    Type
REMARK                         _______ _______ _______ _____ _____    ______ ____
ROOT
ATOM      1  O   UNL     1      -1.247  12.411  22.318  0.00  0.00    +0.000 OA
ATOM      2  C   UNL     1      -2.178  12.463  21.510  0.00  0.00    +0.000 A 
ATOM      3  C   UNL     1      -3.382  13.173  21.951  0.00  0.00    +0.000 A 
ATOM      4  C   UNL     1      -3.402  13.728  23.247  0.00  0.00    +0.000 A 
ATOM      5  C   UNL     1      -4.514  14.430  23.673  0.00  0.00    +0.000 A 
ATOM      6  C   UNL     1      -5.603  14.581  22.832  0.00  0.00    +0.000 A 
ATOM      7  C   UNL     1      -5.574  14.020  21.549  0.00  0.00    +0.000 A 
ATOM      8  C   UNL     1      -4.454  13.304  21.077  0.00  0.00    +0.000 A 
ATOM      9  C   UNL     1      -4.378  12.686  19.725  0.00  0.00    +0.000 A 
ATOM     10  C   UNL     1      -3.273  11.998  19.329  0.00  0.00    +0.000 A 
ATOM     11  N   UNL     1      -2.155  11.925  20.198  0.00  0.00    +0.000 N 
ATOM     12  C   UNL     1      -3.320  11.311  17.972  0.00  0.00    +0.000 A 
ATOM     13  C   UNL     1      -2.388  10.352  17.524  0.00  0.00    +0.000 A 
ATOM     14  C   UNL     1      -2.373   9.844  16.214  0.00  0.00    +0.000 A 
ATOM     15  C   UNL     1      -3.352  10.232  15.324  0.00  0.00    +0.000 A 
ATOM     16  C   UNL     1      -4.363  11.068  15.751  0.00  0.00    +0.000 A 
ATOM     17  C   UNL     1      -4.364  11.588  17.066  0.00  0.00    +0.000 A 
ATOM     18  C   UNL     1      -5.571  12.386  17.444  0.00  0.00    +0.000 C 
ATOM     19  C   UNL     1      -5.600  12.898  18.869  0.00  0.00    +0.000 C 
ENDROOT
BRANCH  11  20
ATOM     20  C   UNL     1      -0.870  11.395  19.872  0.00  0.00    +0.000 A 
ATOM     21  C   UNL     1       0.019  12.217  19.175  0.00  0.00    +0.000 A 
ATOM     22  C   UNL     1       1.202  11.701  18.667  0.00  0.00    +0.000 A 
ATOM     23  C   UNL     1       1.514  10.346  18.816  0.00  0.00    +0.000 A 
ATOM     24  C   UNL     1       0.660   9.535  19.571  0.00  0.00    +0.000 A 
ATOM     25  C   UNL     1      -0.534  10.055  20.100  0.00  0.00    +0.000 A 
BRANCH  23  26
ATOM     26  O   UNL     1       2.607   9.739  18.226  0.00  0.00    +0.000 OA
BRANCH  26  27
ATOM     27  C   UNL     1       2.340   8.377  17.862  0.00  0.00    +0.000 C 
BRANCH  27  28
ATOM     28  C   UNL     1       3.582   7.481  17.803  0.00  0.00    +0.000 C 
BRANCH  28  29
ATOM     29  N   UNL     1       3.237   6.093  17.400  0.00  0.00    +0.000 NA
ATOM     30  C   UNL     1       4.441   5.249  17.394  0.00  0.00    +0.000 C 
ATOM     31  C   UNL     1       4.132   3.829  16.907  0.00  0.00    +0.000 C 
ATOM     32  C   UNL     1       3.030   3.180  17.735  0.00  0.00    +0.000 C 
ATOM     33  C   UNL     1       1.809   4.085  17.780  0.00  0.00    +0.000 C 
ATOM     34  C   UNL     1       2.183   5.496  18.239  0.00  0.00    +0.000 C 
ENDBRANCH  28  29
ENDBRANCH  27  28
ENDBRANCH  26  27
ENDBRANCH  23  26
ENDBRANCH  11  20
BRANCH   5  35
ATOM     35  O   UNL     1      -4.576  14.991  24.912  0.00  0.00    +0.000 OA
ATOM     36  H   UNL     1      -3.681  15.007  25.294  0.00  0.00    +0.000 HD
ENDBRANCH   5  35
BRANCH  15  37
ATOM     37  O   UNL     1      -3.379   9.790  14.039  0.00  0.00    +0.000 OA
ATOM     38  H   UNL     1      -2.577  10.101  13.588  0.00  0.00    +0.000 HD
ENDBRANCH  15  37
TORSDOF 7
ENDMDL
MODEL 6
REMARK VINA RESULT:      -8.1      1.310      1.942
REMARK  Name = 
REMARK  7 active torsions:
REMARK  status: ('A' for Active; 'I' for Inactive)
REMARK    1  A    between atoms: C_5  and  O_6
REMARK    2  A    between atoms: N_12  and  C_13
REMARK    3  A    between atoms: C_16  and  O_17
REMARK    4  A    between atoms: O_17  and  C_18
REMARK    5  A    between atoms: C_18  and  C_19
REMARK    6  A    between atoms: C_19  and  N_20
REMARK    7  A    between atoms: C_31  and  O_32
REMARK                            x       y       z     vdW  Elec       q    Type
REMARK                         _______ _______ _______ _____ _____    ______ ____
ROOT
ATOM      1  O   UNL     1      -1.525  12.370  22.222  0.00  0.00    +0.000 OA
ATOM      2  C   UNL     1      -2.410  12.407  21.363  0.00  0.00    +0.000 A 
ATOM      3  C   UNL     1      -3.653  13.086  21.741  0.00  0.00    +0.000 A 
ATOM      4  C   UNL     1      -3.758  13.632  23.036  0.00  0.00    +0.000 A 
ATOM      5  C   UNL     1      -4.908  14.305  23.404  0.00  0.00    +0.000 A 
ATOM      6  C   UNL     1      -5.951  14.437  22.504  0.00  0.00    +0.000 A 
ATOM      7  C   UNL     1      -5.837  13.887  21.221  0.00  0.00    +0.000 A 
ATOM      8  C   UNL     1      -4.677  13.200  20.809  0.00  0.00    +0.000 A 
ATOM      9  C   UNL     1      -4.511  12.594  19.459  0.00  0.00    +0.000 A 
ATOM     10  C   UNL     1      -3.370  11.933  19.121  0.00  0.00    +0.000 A 
ATOM     11  N   UNL     1      -2.301  11.880  20.051  0.00  0.00    +0.000 N 
ATOM     12  C   UNL     1      -3.325  11.256  17.760  0.00  0.00    +0.000 A 
ATOM     13  C   UNL     1      -2.349  10.322  17.358  0.00  0.00    +0.000 A 
ATOM     14  C   UNL     1      -2.248   9.824  16.048  0.00  0.00    +0.000 A 
ATOM     15  C   UNL     1      -3.185  10.196  15.108  0.00  0.00    +0.000 A 
ATOM     16  C   UNL     1      -4.237  11.006  15.482  0.00  0.00    +0.000 A 
ATOM     17  C   UNL     1      -4.323  11.516  16.798  0.00  0.00    +0.000 A 
ATOM     18  C   UNL     1      -5.567  12.285  17.112  0.00  0.00    +0.000 C 
ATOM     19  C   UNL     1      -5.687  12.785  18.537  0.00  0.00    +0.000 C 
ENDROOT
BRANCH  11  20
ATOM     20  C   UNL     1      -0.988  11.381  19.795  0.00  0.00    +0.000 A 
ATOM     21  C   UNL     1      -0.129  12.167  19.023  0.00  0.00    +0.000 A 
ATOM     22  C   UNL     1       1.084  11.658  18.583  0.00  0.00    +0.000 A 
ATOM     23  C   UNL     1       1.457  10.343  18.877  0.00  0.00    +0.000 A 
ATOM     24  C   UNL     1       0.632   9.575  19.704  0.00  0.00    +0.000 A 
ATOM     25  C   UNL     1      -0.593  10.089  20.166  0.00  0.00    +0.000 A 
BRANCH  23  26
ATOM     26  O   UNL     1       2.586   9.731  18.364  0.00  0.00    +0.000 OA
BRANCH  26  27
ATOM     27  C   UNL     1       2.286   8.472  17.744  0.00  0.00    +0.000 C 
BRANCH  27  28
ATOM     28  C   UNL     1       2.589   7.248  18.616  0.00  0.00    +0.000 C 
BRANCH  28  29
ATOM     29  N   UNL     1       3.714   6.449  18.064  0.00  0.00    +0.000 NA
ATOM     30  C   UNL     1       3.267   5.082  17.758  0.00  0.00    +0.000 C 
ATOM     31  C   UNL     1       4.423   4.208  17.260  0.00  0.00    +0.000 C 
ATOM     32  C   UNL     1       5.112   4.827  16.050  0.00  0.00    +0.000 C 
ATOM     33  C   UNL     1       5.522   6.258  16.359  0.00  0.00    +0.000 C 
ATOM     34  C   UNL     1       4.337   7.072  16.883  0.00  0.00    +0.000 C 
ENDBRANCH  28  29
ENDBRANCH  27  28
ENDBRANCH  26  27
ENDBRANCH  23  26
ENDBRANCH  11  20
BRANCH   5  35
ATOM     35  O   UNL     1      -5.052  14.855  24.641  0.00  0.00    +0.000 OA
ATOM     36  H   UNL     1      -5.571  14.247  25.195  0.00  0.00    +0.000 HD
ENDBRANCH   5  35
BRANCH  15  37
ATOM     37  O   UNL     1      -3.129   9.763  13.820  0.00  0.00    +0.000 OA
ATOM     38  H   UNL     1      -2.222   9.879  13.493  0.00  0.00    +0.000 HD
ENDBRANCH  15  37
TORSDOF 7
ENDMDL
MODEL 7
REMARK VINA RESULT:      -7.6      3.315      5.212
REMARK  Name = 
REMARK  7 active torsions:
REMARK  status: ('A' for Active; 'I' for Inactive)
REMARK    1  A    between atoms: C_5  and  O_6
REMARK    2  A    between atoms: N_12  and  C_13
REMARK    3  A    between atoms: C_16  and  O_17
REMARK    4  A    between atoms: O_17  and  C_18
REMARK    5  A    between atoms: C_18  and  C_19
REMARK    6  A    between atoms: C_19  and  N_20
REMARK    7  A    between atoms: C_31  and  O_32
REMARK                            x       y       z     vdW  Elec       q    Type
REMARK                         _______ _______ _______ _____ _____    ______ ____
ROOT
ATOM      1  O   UNL     1       1.459  14.002  18.682  0.00  0.00    +0.000 OA
ATOM      2  C   UNL     1       0.520  14.509  19.303  0.00  0.00    +0.000 A 
ATOM      3  C   UNL     1       0.257  15.926  19.038  0.00  0.00    +0.000 A 
ATOM      4  C   UNL     1       1.081  16.606  18.119  0.00  0.00    +0.000 A 
ATOM      5  C   UNL     1       0.832  17.935  17.828  0.00  0.00    +0.000 A 
ATOM      6  C   UNL     1      -0.220  18.592  18.441  0.00  0.00    +0.000 A 
ATOM      7  C   UNL     1      -1.030  17.907  19.357  0.00  0.00    +0.000 A 
ATOM      8  C   UNL     1      -0.810  16.551  19.672  0.00  0.00    +0.000 A 
ATOM      9  C   UNL     1      -1.640  15.782  20.640  0.00  0.00    +0.000 A 
ATOM     10  C   UNL     1      -1.372  14.476  20.912  0.00  0.00    +0.000 A 
ATOM     11  N   UNL     1      -0.326  13.824  20.211  0.00  0.00    +0.000 N 
ATOM     12  C   UNL     1      -2.204  13.797  21.989  0.00  0.00    +0.000 A 
ATOM     13  C   UNL     1      -1.895  12.553  22.578  0.00  0.00    +0.000 A 
ATOM     14  C   UNL     1      -2.756  11.882  23.463  0.00  0.00    +0.000 A 
ATOM     15  C   UNL     1      -3.935  12.485  23.850  0.00  0.00    +0.000 A 
ATOM     16  C   UNL     1      -4.223  13.758  23.405  0.00  0.00    +0.000 A 
ATOM     17  C   UNL     1      -3.360  14.421  22.502  0.00  0.00    +0.000 A 
ATOM     18  C   UNL     1      -3.720  15.837  22.185  0.00  0.00    +0.000 C 
ATOM     19  C   UNL     1      -2.767  16.566  21.261  0.00  0.00    +0.000 C 
ENDROOT
BRANCH  11  20
ATOM     20  C   UNL     1      -0.030  12.427  20.251  0.00  0.00    +0.000 A 
ATOM     21  C   UNL     1      -0.825  11.568  19.489  0.00  0.00    +0.000 A 
ATOM     22  C   UNL     1      -0.710  10.194  19.631  0.00  0.00    +0.000 A 
ATOM     23  C   UNL     1       0.179   9.642  20.558  0.00  0.00    +0.000 A 
ATOM     24  C   UNL     1       1.024  10.495  21.276  0.00  0.00    +0.000 A 
ATOM     25  C   UNL     1       0.922  11.890  21.125  0.00  0.00    +0.000 A 
BRANCH  23  26
ATOM     26  O   UNL     1       0.252   8.291  20.845  0.00  0.00    +0.000 OA
BRANCH  26  27
ATOM     27  C   UNL     1       1.605   7.846  21.020  0.00  0.00    +0.000 C 
BRANCH  27  28
ATOM     28  C   UNL     1       2.197   7.121  19.806  0.00  0.00    +0.000 C 
BRANCH  28  29
ATOM     29  N   UNL     1       1.625   5.758  19.651  0.00  0.00    +0.000 NA
ATOM     30  C   UNL     1       2.150   5.120  18.434  0.00  0.00    +0.000 C 
ATOM     31  C   UNL     1       1.520   3.742  18.204  0.00  0.00    +0.000 C 
ATOM     32  C   UNL     1       1.711   2.830  19.409  0.00  0.00    +0.000 C 
ATOM     33  C   UNL     1       1.214   3.520  20.670  0.00  0.00    +0.000 C 
ATOM     34  C   UNL     1       1.850   4.903  20.830  0.00  0.00    +0.000 C 
ENDBRANCH  28  29
ENDBRANCH  27  28
ENDBRANCH  26  27
ENDBRANCH  23  26
ENDBRANCH  11  20
BRANCH   5  35
ATOM     35  O   UNL     1       1.596  18.631  16.942  0.00  0.00    +0.000 OA
ATOM     36  H   UNL     1       1.201  18.550  16.057  0.00  0.00    +0.000 HD
ENDBRANCH   5  35
BRANCH  15  37
ATOM     37  O   UNL     1      -4.817  11.878  24.688  0.00  0.00    +0.000 OA
ATOM     38  H   UNL     1      -4.650  10.922  24.674  0.00  0.00    +0.000 HD
ENDBRANCH  15  37
TORSDOF 7
ENDMDL
MODEL 8
REMARK VINA RESULT:      -7.6      2.339      4.748
REMARK  Name = 
REMARK  7 active torsions:
REMARK  status: ('A' for Active; 'I' for Inactive)
REMARK    1  A    between atoms: C_5  and  O_6
REMARK    2  A    between atoms: N_12  and  C_13
REMARK    3  A    between atoms: C_16  and  O_17
REMARK    4  A    between atoms: O_17  and  C_18
REMARK    5  A    between atoms: C_18  and  C_19
REMARK    6  A    between atoms: C_19  and  N_20
REMARK    7  A    between atoms: C_31  and  O_32
REMARK                            x       y       z     vdW  Elec       q    Type
REMARK                         _______ _______ _______ _____ _____    ______ ____
ROOT
ATOM      1  O   UNL     1      -2.350   9.700  18.094  0.00  0.00    +0.000 OA
ATOM      2  C   UNL     1      -2.322  10.758  18.728  0.00  0.00    +0.000 A 
ATOM      3  C   UNL     1      -3.600  11.459  18.878  0.00  0.00    +0.000 A 
ATOM      4  C   UNL     1      -4.752  10.897  18.290  0.00  0.00    +0.000 A 
ATOM      5  C   UNL     1      -5.975  11.524  18.446  0.00  0.00    +0.000 A 
ATOM      6  C   UNL     1      -6.064  12.699  19.171  0.00  0.00    +0.000 A 
ATOM      7  C   UNL     1      -4.911  13.251  19.746  0.00  0.00    +0.000 A 
ATOM      8  C   UNL     1      -3.649  12.636  19.615  0.00  0.00    +0.000 A 
ATOM      9  C   UNL     1      -2.397  13.185  20.203  0.00  0.00    +0.000 A 
ATOM     10  C   UNL     1      -1.205  12.551  20.033  0.00  0.00    +0.000 A 
ATOM     11  N   UNL     1      -1.171  11.315  19.340  0.00  0.00    +0.000 N 
ATOM     12  C   UNL     1       0.040  13.236  20.579  0.00  0.00    +0.000 A 
ATOM     13  C   UNL     1       1.364  12.863  20.267  0.00  0.00    +0.000 A 
ATOM     14  C   UNL     1       2.491  13.417  20.897  0.00  0.00    +0.000 A 
ATOM     15  C   UNL     1       2.324  14.430  21.818  0.00  0.00    +0.000 A 
ATOM     16  C   UNL     1       1.059  14.921  22.063  0.00  0.00    +0.000 A 
ATOM     17  C   UNL     1      -0.073  14.349  21.437  0.00  0.00    +0.000 A 
ATOM     18  C   UNL     1      -1.373  15.042  21.693  0.00  0.00    +0.000 C 
ATOM     19  C   UNL     1      -2.577  14.464  20.980  0.00  0.00    +0.000 C 
ENDROOT
BRANCH  11  20
ATOM     20  C   UNL     1      -0.044  10.446  19.225  0.00  0.00    +0.000 A 
ATOM     21  C   UNL     1       0.594  10.364  17.985  0.00  0.00    +0.000 A 
ATOM     22  C   UNL     1       1.570   9.404  17.760  0.00  0.00    +0.000 A 
ATOM     23  C   UNL     1       1.910   8.482  18.754  0.00  0.00    +0.000 A 
ATOM     24  C   UNL     1       1.322   8.602  20.018  0.00  0.00    +0.000 A 
ATOM     25  C   UNL     1       0.343   9.583  20.258  0.00  0.00    +0.000 A 
BRANCH  23  26
ATOM     26  O   UNL     1       2.775   7.422  18.557  0.00  0.00    +0.000 OA
BRANCH  26  27
ATOM     27  C   UNL     1       2.877   6.582  19.716  0.00  0.00    +0.000 C 
BRANCH  27  28
ATOM     28  C   UNL     1       3.843   5.402  19.562  0.00  0.00    +0.000 C 
BRANCH  28  29
ATOM     29  N   UNL     1       3.116   4.109  19.468  0.00  0.00    +0.000 NA
ATOM     30  C   UNL     1       1.812   4.205  20.141  0.00  0.00    +0.000 C 
ATOM     31  C   UNL     1       1.071   2.865  20.129  0.00  0.00    +0.000 C 
ATOM     32  C   UNL     1       0.901   2.330  18.713  0.00  0.00    +0.000 C 
ATOM     33  C   UNL     1       2.248   2.285  18.008  0.00  0.00    +0.000 C 
ATOM     34  C   UNL     1       2.956   3.639  18.080  0.00  0.00    +0.000 C 
ENDBRANCH  28  29
ENDBRANCH  27  28
ENDBRANCH  26  27
ENDBRANCH  23  26
ENDBRANCH  11  20
BRANCH   5  35
ATOM     35  O   UNL     1      -7.115  11.015  17.903  0.00  0.00    +0.000 OA
ATOM     36  H   UNL     1      -6.905  10.169  17.470  0.00  0.00    +0.000 HD
ENDBRANCH   5  35
BRANCH  15  37
ATOM     37  O   UNL     1       3.374  14.992  22.474  0.00  0.00    +0.000 OA
ATOM     38  H   UNL     1       4.140  15.007  21.877  0.00  0.00    +0.000 HD
ENDBRANCH  15  37
TORSDOF 7
ENDMDL
MODEL 9
REMARK VINA RESULT:      -7.5      1.098      1.663
REMARK  Name = 
REMARK  7 active torsions:
REMARK  status: ('A' for Active; 'I' for Inactive)
REMARK    1  A    between atoms: C_5  and  O_6
REMARK    2  A    between atoms: N_12  and  C_13
REMARK    3  A    between atoms: C_16  and  O_17
REMARK    4  A    between atoms: O_17  and  C_18
REMARK    5  A    between atoms: C_18  and  C_19
REMARK    6  A    between atoms: C_19  and  N_20
REMARK    7  A    between atoms: C_31  and  O_32
REMARK                            x       y       z     vdW  Elec       q    Type
REMARK                         _______ _______ _______ _____ _____    ______ ____
ROOT
ATOM      1  O   UNL     1       0.611  11.583  21.715  0.00  0.00    +0.000 OA
ATOM      2  C   UNL     1      -0.479  11.875  21.217  0.00  0.00    +0.000 A 
ATOM      3  C   UNL     1      -1.302  12.828  21.967  0.00  0.00    +0.000 A 
ATOM      4  C   UNL     1      -0.809  13.331  23.188  0.00  0.00    +0.000 A 
ATOM      5  C   UNL     1      -1.553  14.257  23.897  0.00  0.00    +0.000 A 
ATOM      6  C   UNL     1      -2.776  14.681  23.409  0.00  0.00    +0.000 A 
ATOM      7  C   UNL     1      -3.258  14.171  22.197  0.00  0.00    +0.000 A 
ATOM      8  C   UNL     1      -2.524  13.232  21.444  0.00  0.00    +0.000 A 
ATOM      9  C   UNL     1      -2.995  12.657  20.154  0.00  0.00    +0.000 A 
ATOM     10  C   UNL     1      -2.246  11.745  19.476  0.00  0.00    +0.000 A 
ATOM     11  N   UNL     1      -0.969  11.389  19.978  0.00  0.00    +0.000 N 
ATOM     12  C   UNL     1      -2.850  11.133  18.221  0.00  0.00    +0.000 A 
ATOM     13  C   UNL     1      -2.339  10.000  17.554  0.00  0.00    +0.000 A 
ATOM     14  C   UNL     1      -2.829   9.544  16.318  0.00  0.00    +0.000 A 
ATOM     15  C   UNL     1      -3.911  10.176  15.744  0.00  0.00    +0.000 A 
ATOM     16  C   UNL     1      -4.530  11.209  16.417  0.00  0.00    +0.000 A 
ATOM     17  C   UNL     1      -4.023  11.672  17.653  0.00  0.00    +0.000 A 
ATOM     18  C   UNL     1      -4.846  12.715  18.339  0.00  0.00    +0.000 C 
ATOM     19  C   UNL     1      -4.333  13.173  19.689  0.00  0.00    +0.000 C 
ENDROOT
BRANCH  11  20
ATOM     20  C   UNL     1       0.004  10.587  19.308  0.00  0.00    +0.000 A 
ATOM     21  C   UNL     1       0.126   9.250  19.692  0.00  0.00    +0.000 A 
ATOM     22  C   UNL     1       1.173   8.475  19.215  0.00  0.00    +0.000 A 
ATOM     23  C   UNL     1       2.141   9.023  18.368  0.00  0.00    +0.000 A 
ATOM     24  C   UNL     1       1.986  10.341  17.928  0.00  0.00    +0.000 A 
ATOM     25  C   UNL     1       0.919  11.128  18.396  0.00  0.00    +0.000 A 
BRANCH  23  26
ATOM     26  O   UNL     1       3.278   8.349  17.962  0.00  0.00    +0.000 OA
BRANCH  26  27
ATOM     27  C   UNL     1       3.402   7.065  18.592  0.00  0.00    +0.000 C 
BRANCH  27  28
ATOM     28  C   UNL     1       3.654   5.905  17.623  0.00  0.00    +0.000 C 
BRANCH  28  29
ATOM     29  N   UNL     1       2.709   4.782  17.857  0.00  0.00    +0.000 NA
ATOM     30  C   UNL     1       3.370   3.495  17.595  0.00  0.00    +0.000 C 
ATOM     31  C   UNL     1       2.399   2.320  17.752  0.00  0.00    +0.000 C 
ATOM     32  C   UNL     1       1.746   2.313  19.129  0.00  0.00    +0.000 C 
ATOM     33  C   UNL     1       1.111   3.666  19.411  0.00  0.00    +0.000 C 
ATOM     34  C   UNL     1       2.116   4.801  19.206  0.00  0.00    +0.000 C 
ENDBRANCH  28  29
ENDBRANCH  27  28
ENDBRANCH  26  27
ENDBRANCH  23  26
ENDBRANCH  11  20
BRANCH   5  35
ATOM     35  O   UNL     1      -1.115  14.776  25.076  0.00  0.00    +0.000 OA
ATOM     36  H   UNL     1      -0.900  15.716  24.944  0.00  0.00    +0.000 HD
ENDBRANCH   5  35
BRANCH  15  37
ATOM     37  O   UNL     1      -4.418   9.794  14.541  0.00  0.00    +0.000 OA
ATOM     38  H   UNL     1      -5.284   9.380  14.688  0.00  0.00    +0.000 HD
ENDBRANCH  15  37
TORSDOF 7
ENDMDL
