MODEL 1
REMARK VINA RESULT:      -8.1      0.000      0.000
REMARK  Name = 
REMARK  4 active torsions:
REMARK  status: ('A' for Active; 'I' for Inactive)
REMARK    1  A    between atoms: C_1  and  C_2
REMARK    2  A    between atoms: C_7  and  C_9
REMARK    3  A    between atoms: C_11  and  N_12
REMARK    4  A    between atoms: C_16  and  N_17
REMARK                            x       y       z     vdW  Elec       q    Type
REMARK                         _______ _______ _______ _____ _____    ______ ____
ROOT
ATOM      1  C   UNL     1       3.679   6.250  17.851  0.00  0.00    +0.000 A 
ATOM      2  C   UNL     1       3.007   5.017  17.923  0.00  0.00    +0.000 A 
ATOM      3  C   UNL     1       3.657   3.834  17.550  0.00  0.00    +0.000 A 
ATOM      4  C   UNL     1       4.970   3.865  17.067  0.00  0.00    +0.000 A 
ATOM      5  C   UNL     1       5.624   5.101  16.971  0.00  0.00    +0.000 A 
ATOM      6  C   UNL     1       4.987   6.295  17.352  0.00  0.00    +0.000 A 
ENDROOT
BRANCH   1  13
ATOM      7  C   UNL     1      -0.040   9.535  23.137  0.00  0.00    +0.000 C 
ATOM      8  C   UNL     1       0.391   9.346  21.730  0.00  0.00    +0.000 A 
ATOM      9  C   UNL     1       0.089  10.173  20.666  0.00  0.00    +0.000 A 
ATOM     10  S   UNL     1       0.852   9.600  19.249  0.00  0.00    +0.000 S 
ATOM     11  C   UNL     1       1.529   8.313  20.139  0.00  0.00    +0.000 A 
ATOM     12  N   UNL     1       2.335   7.357  19.566  0.00  0.00    +0.000 N 
ATOM     13  C   UNL     1       2.943   7.455  18.337  0.00  0.00    +0.000 C 
ATOM     14  O   UNL     1       2.936   8.428  17.590  0.00  0.00    +0.000 OA
ATOM     15  N   UNL     1       1.180   8.249  21.405  0.00  0.00    +0.000 NA
ATOM     16  H   UNL     1       2.480   6.569  20.179  0.00  0.00    +0.000 HD
ENDBRANCH   1  13
BRANCH   3  17
ATOM     17  N   UNL     1       2.969   2.545  17.717  0.00  0.00    +0.000 N 
ATOM     18  O   UNL     1       3.667   1.543  17.921  0.00  0.00    +0.000 OA
ATOM     19  O   UNL     1       1.736   2.543  17.625  0.00  0.00    +0.000 OA
ENDBRANCH   3  17
BRANCH   5  20
ATOM     20  N   UNL     1       7.017   5.144  16.498  0.00  0.00    +0.000 N 
ATOM     21  O   UNL     1       7.832   4.388  17.043  0.00  0.00    +0.000 OA
ATOM     22  O   UNL     1       7.287   5.947  15.595  0.00  0.00    +0.000 OA
ENDBRANCH   5  20
TORSDOF 3
ENDMDL
MODEL 2
REMARK VINA RESULT:      -7.9      0.456      3.263
REMARK  Name = 
REMARK  4 active torsions:
REMARK  status: ('A' for Active; 'I' for Inactive)
REMARK    1  A    between atoms: C_1  and  C_2
REMARK    2  A    between atoms: C_7  and  C_9
REMARK    3  A    between atoms: C_11  and  N_12
REMARK    4  A    between atoms: C_16  and  N_17
REMARK                            x       y       z     vdW  Elec       q    Type
REMARK                         _______ _______ _______ _____ _____    ______ ____
ROOT
ATOM      1  C   UNL     1       3.467   6.061  17.942  0.00  0.00    +0.000 A 
ATOM      2  C   UNL     1       4.665   6.182  17.216  0.00  0.00    +0.000 A 
ATOM      3  C   UNL     1       5.281   5.046  16.674  0.00  0.00    +0.000 A 
ATOM      4  C   UNL     1       4.734   3.775  16.876  0.00  0.00    +0.000 A 
ATOM      5  C   UNL     1       3.556   3.659  17.625  0.00  0.00    +0.000 A 
ATOM      6  C   UNL     1       2.920   4.791  18.166  0.00  0.00    +0.000 A 
ENDROOT
BRANCH   1  13
ATOM      7  C   UNL     1      -0.048   9.641  23.175  0.00  0.00    +0.000 C 
ATOM      8  C   UNL     1       0.393   9.421  21.776  0.00  0.00    +0.000 A 
ATOM      9  C   UNL     1       0.189  10.278  20.712  0.00  0.00    +0.000 A 
ATOM     10  S   UNL     1       0.926   9.646  19.307  0.00  0.00    +0.000 S 
ATOM     11  C   UNL     1       1.465   8.298  20.201  0.00  0.00    +0.000 A 
ATOM     12  N   UNL     1       2.193   7.275  19.638  0.00  0.00    +0.000 N 
ATOM     13  C   UNL     1       2.833   7.325  18.422  0.00  0.00    +0.000 C 
ATOM     14  O   UNL     1       2.930   8.299  17.682  0.00  0.00    +0.000 OA
ATOM     15  N   UNL     1       1.086   8.259  21.459  0.00  0.00    +0.000 NA
ATOM     16  H   UNL     1       2.253   6.475  20.248  0.00  0.00    +0.000 HD
ENDBRANCH   1  13
BRANCH   3  17
ATOM     17  N   UNL     1       6.484   5.202  15.842  0.00  0.00    +0.000 N 
ATOM     18  O   UNL     1       7.566   4.838  16.322  0.00  0.00    +0.000 OA
ATOM     19  O   UNL     1       6.339   5.704  14.721  0.00  0.00    +0.000 OA
ENDBRANCH   3  17
BRANCH   5  20
ATOM     20  N   UNL     1       2.951   2.331  17.816  0.00  0.00    +0.000 N 
ATOM     21  O   UNL     1       1.743   2.210  17.571  0.00  0.00    +0.000 OA
ATOM     22  O   UNL     1       3.686   1.423  18.225  0.00  0.00    +0.000 OA
ENDBRANCH   5  20
TORSDOF 3
ENDMDL
MODEL 3
REMARK VINA RESULT:      -7.8      0.264      3.273
REMARK  Name = 
REMARK  4 active torsions:
REMARK  status: ('A' for Active; 'I' for Inactive)
REMARK    1  A    between atoms: C_1  and  C_2
REMARK    2  A    between atoms: C_7  and  C_9
REMARK    3  A    between atoms: C_11  and  N_12
REMARK    4  A    between atoms: C_16  and  N_17
REMARK                            x       y       z     vdW  Elec       q    Type
REMARK                         _______ _______ _______ _____ _____    ______ ____
ROOT
ATOM      1  C   UNL     1       3.574   6.126  18.152  0.00  0.00    +0.000 A 
ATOM      2  C   UNL     1       4.908   6.237  17.726  0.00  0.00    +0.000 A 
ATOM      3  C   UNL     1       5.608   5.106  17.288  0.00  0.00    +0.000 A 
ATOM      4  C   UNL     1       5.002   3.845  17.301  0.00  0.00    +0.000 A 
ATOM      5  C   UNL     1       3.681   3.736  17.754  0.00  0.00    +0.000 A 
ATOM      6  C   UNL     1       2.963   4.866  18.187  0.00  0.00    +0.000 A 
ENDROOT
BRANCH   1  13
ATOM      7  C   UNL     1      -0.260   9.869  23.036  0.00  0.00    +0.000 C 
ATOM      8  C   UNL     1       0.238   9.582  21.668  0.00  0.00    +0.000 A 
ATOM      9  C   UNL     1       0.037  10.363  20.547  0.00  0.00    +0.000 A 
ATOM     10  S   UNL     1       0.846   9.678  19.208  0.00  0.00    +0.000 S 
ATOM     11  C   UNL     1       1.408   8.411  20.202  0.00  0.00    +0.000 A 
ATOM     12  N   UNL     1       2.194   7.387  19.727  0.00  0.00    +0.000 N 
ATOM     13  C   UNL     1       2.874   7.389  18.532  0.00  0.00    +0.000 C 
ATOM     14  O   UNL     1       2.957   8.319  17.735  0.00  0.00    +0.000 OA
ATOM     15  N   UNL     1       0.987   8.434  21.447  0.00  0.00    +0.000 NA
ATOM     16  H   UNL     1       2.265   6.629  20.388  0.00  0.00    +0.000 HD
ENDBRANCH   1  13
BRANCH   3  17
ATOM     17  N   UNL     1       6.974   5.256  16.762  0.00  0.00    +0.000 N 
ATOM     18  O   UNL     1       7.175   6.151  15.931  0.00  0.00    +0.000 OA
ATOM     19  O   UNL     1       7.831   4.464  17.172  0.00  0.00    +0.000 OA
ENDBRANCH   3  17
BRANCH   5  20
ATOM     20  N   UNL     1       3.020   2.422  17.741  0.00  0.00    +0.000 N 
ATOM     21  O   UNL     1       3.722   1.424  17.948  0.00  0.00    +0.000 OA
ATOM     22  O   UNL     1       1.804   2.399  17.506  0.00  0.00    +0.000 OA
ENDBRANCH   5  20
TORSDOF 3
ENDMDL
MODEL 4
REMARK VINA RESULT:      -7.6      1.162      3.462
REMARK  Name = 
REMARK  4 active torsions:
REMARK  status: ('A' for Active; 'I' for Inactive)
REMARK    1  A    between atoms: C_1  and  C_2
REMARK    2  A    between atoms: C_7  and  C_9
REMARK    3  A    between atoms: C_11  and  N_12
REMARK    4  A    between atoms: C_16  and  N_17
REMARK                            x       y       z     vdW  Elec       q    Type
REMARK                         _______ _______ _______ _____ _____    ______ ____
ROOT
ATOM      1  C   UNL     1       2.953   6.989  17.935  0.00  0.00    +0.000 A 
ATOM      2  C   UNL     1       4.230   7.135  17.366  0.00  0.00    +0.000 A 
ATOM      3  C   UNL     1       4.936   6.013  16.915  0.00  0.00    +0.000 A 
ATOM      4  C   UNL     1       4.397   4.729  17.054  0.00  0.00    +0.000 A 
ATOM      5  C   UNL     1       3.135   4.588  17.647  0.00  0.00    +0.000 A 
ATOM      6  C   UNL     1       2.411   5.708  18.096  0.00  0.00    +0.000 A 
ENDROOT
BRANCH   1  13
ATOM      7  C   UNL     1      -0.716  10.742  22.937  0.00  0.00    +0.000 C 
ATOM      8  C   UNL     1      -0.289  10.433  21.550  0.00  0.00    +0.000 A 
ATOM      9  C   UNL     1      -0.579  11.177  20.423  0.00  0.00    +0.000 A 
ATOM     10  S   UNL     1       0.174  10.481  19.057  0.00  0.00    +0.000 S 
ATOM     11  C   UNL     1       0.834   9.260  20.048  0.00  0.00    +0.000 A 
ATOM     12  N   UNL     1       1.625   8.249  19.555  0.00  0.00    +0.000 N 
ATOM     13  C   UNL     1       2.234   8.239  18.322  0.00  0.00    +0.000 C 
ATOM     14  O   UNL     1       2.241   9.150  17.499  0.00  0.00    +0.000 OA
ATOM     15  N   UNL     1       0.484   9.303  21.315  0.00  0.00    +0.000 NA
ATOM     16  H   UNL     1       1.759   7.511  20.229  0.00  0.00    +0.000 HD
ENDBRANCH   1  13
BRANCH   3  17
ATOM     17  N   UNL     1       6.232   6.193  16.242  0.00  0.00    +0.000 N 
ATOM     18  O   UNL     1       7.070   6.917  16.794  0.00  0.00    +0.000 OA
ATOM     19  O   UNL     1       6.393   5.622  15.157  0.00  0.00    +0.000 OA
ENDBRANCH   3  17
BRANCH   5  20
ATOM     20  N   UNL     1       2.541   3.248  17.768  0.00  0.00    +0.000 N 
ATOM     21  O   UNL     1       1.308   3.171  17.842  0.00  0.00    +0.000 OA
ATOM     22  O   UNL     1       3.316   2.283  17.804  0.00  0.00    +0.000 OA
ENDBRANCH   5  20
TORSDOF 3
ENDMDL
MODEL 5
REMARK VINA RESULT:      -7.5      0.935      1.120
REMARK  Name = 
REMARK  4 active torsions:
REMARK  status: ('A' for Active; 'I' for Inactive)
REMARK    1  A    between atoms: C_1  and  C_2
REMARK    2  A    between atoms: C_7  and  C_9
REMARK    3  A    between atoms: C_11  and  N_12
REMARK    4  A    between atoms: C_16  and  N_17
REMARK                            x       y       z     vdW  Elec       q    Type
REMARK                         _______ _______ _______ _____ _____    ______ ____
ROOT
ATOM      1  C   UNL     1       3.104   6.916  17.857  0.00  0.00    +0.000 A 
ATOM      2  C   UNL     1       2.434   5.688  17.999  0.00  0.00    +0.000 A 
ATOM      3  C   UNL     1       3.088   4.487  17.699  0.00  0.00    +0.000 A 
ATOM      4  C   UNL     1       4.403   4.492  17.222  0.00  0.00    +0.000 A 
ATOM      5  C   UNL     1       5.055   5.721  17.055  0.00  0.00    +0.000 A 
ATOM      6  C   UNL     1       4.413   6.935  17.362  0.00  0.00    +0.000 A 
ENDROOT
BRANCH   1  13
ATOM      7  C   UNL     1      -0.620  10.512  22.933  0.00  0.00    +0.000 C 
ATOM      8  C   UNL     1      -0.191  10.236  21.540  0.00  0.00    +0.000 A 
ATOM      9  C   UNL     1      -0.499  10.993  20.427  0.00  0.00    +0.000 A 
ATOM     10  S   UNL     1       0.264  10.336  19.047  0.00  0.00    +0.000 S 
ATOM     11  C   UNL     1       0.948   9.110  20.015  0.00  0.00    +0.000 A 
ATOM     12  N   UNL     1       1.757   8.123  19.502  0.00  0.00    +0.000 N 
ATOM     13  C   UNL     1       2.363   8.146  18.268  0.00  0.00    +0.000 C 
ATOM     14  O   UNL     1       2.351   9.070  17.461  0.00  0.00    +0.000 OA
ATOM     15  N   UNL     1       0.602   9.125  21.283  0.00  0.00    +0.000 NA
ATOM     16  H   UNL     1       1.907   7.376  20.163  0.00  0.00    +0.000 HD
ENDBRANCH   1  13
BRANCH   3  17
ATOM     17  N   UNL     1       2.401   3.208  17.939  0.00  0.00    +0.000 N 
ATOM     18  O   UNL     1       3.091   2.243  18.293  0.00  0.00    +0.000 OA
ATOM     19  O   UNL     1       1.178   3.176  17.755  0.00  0.00    +0.000 OA
ENDBRANCH   3  17
BRANCH   5  20
ATOM     20  N   UNL     1       6.449   5.739  16.587  0.00  0.00    +0.000 N 
ATOM     21  O   UNL     1       6.983   6.843  16.416  0.00  0.00    +0.000 OA
ATOM     22  O   UNL     1       6.995   4.647  16.378  0.00  0.00    +0.000 OA
ENDBRANCH   5  20
TORSDOF 3
ENDMDL
MODEL 6
REMARK VINA RESULT:      -7.5      1.119      3.232
REMARK  Name = 
REMARK  4 active torsions:
REMARK  status: ('A' for Active; 'I' for Inactive)
REMARK    1  A    between atoms: C_1  and  C_2
REMARK    2  A    between atoms: C_7  and  C_9
REMARK    3  A    between atoms: C_11  and  N_12
REMARK    4  A    between atoms: C_16  and  N_17
REMARK                            x       y       z     vdW  Elec       q    Type
REMARK                         _______ _______ _______ _____ _____    ______ ____
ROOT
ATOM      1  C   UNL     1       3.521   6.292  18.557  0.00  0.00    +0.000 A 
ATOM      2  C   UNL     1       4.521   6.403  17.575  0.00  0.00    +0.000 A 
ATOM      3  C   UNL     1       5.286   5.285  17.217  0.00  0.00    +0.000 A 
ATOM      4  C   UNL     1       5.090   4.055  17.852  0.00  0.00    +0.000 A 
ATOM      5  C   UNL     1       4.111   3.959  18.849  0.00  0.00    +0.000 A 
ATOM      6  C   UNL     1       3.328   5.070  19.213  0.00  0.00    +0.000 A 
ENDROOT
BRANCH   1  13
ATOM      7  C   UNL     1      -0.569  10.115  23.164  0.00  0.00    +0.000 C 
ATOM      8  C   UNL     1      -0.078   9.737  21.816  0.00  0.00    +0.000 A 
ATOM      9  C   UNL     1      -0.390  10.370  20.628  0.00  0.00    +0.000 A 
ATOM     10  S   UNL     1       0.455   9.633  19.339  0.00  0.00    +0.000 S 
ATOM     11  C   UNL     1       1.174   8.545  20.437  0.00  0.00    +0.000 A 
ATOM     12  N   UNL     1       2.054   7.564  20.042  0.00  0.00    +0.000 N 
ATOM     13  C   UNL     1       2.699   7.509  18.829  0.00  0.00    +0.000 C 
ATOM     14  O   UNL     1       2.662   8.353  17.939  0.00  0.00    +0.000 OA
ATOM     15  N   UNL     1       0.785   8.656  21.688  0.00  0.00    +0.000 NA
ATOM     16  H   UNL     1       2.223   6.891  20.775  0.00  0.00    +0.000 HD
ENDBRANCH   1  13
BRANCH   3  17
ATOM     17  N   UNL     1       6.267   5.398  16.126  0.00  0.00    +0.000 N 
ATOM     18  O   UNL     1       5.875   5.860  15.046  0.00  0.00    +0.000 OA
ATOM     19  O   UNL     1       7.418   5.006  16.354  0.00  0.00    +0.000 OA
ENDBRANCH   3  17
BRANCH   5  20
ATOM     20  N   UNL     1       3.871   2.662  19.501  0.00  0.00    +0.000 N 
ATOM     21  O   UNL     1       4.772   2.202  20.215  0.00  0.00    +0.000 OA
ATOM     22  O   UNL     1       2.786   2.106  19.281  0.00  0.00    +0.000 OA
ENDBRANCH   5  20
TORSDOF 3
ENDMDL
MODEL 7
REMARK VINA RESULT:      -7.4      1.178      1.499
REMARK  Name = 
REMARK  4 active torsions:
REMARK  status: ('A' for Active; 'I' for Inactive)
REMARK    1  A    between atoms: C_1  and  C_2
REMARK    2  A    between atoms: C_7  and  C_9
REMARK    3  A    between atoms: C_11  and  N_12
REMARK    4  A    between atoms: C_16  and  N_17
REMARK                            x       y       z     vdW  Elec       q    Type
REMARK                         _______ _______ _______ _____ _____    ______ ____
ROOT
ATOM      1  C   UNL     1       3.461   6.336  18.221  0.00  0.00    +0.000 A 
ATOM      2  C   UNL     1       3.263   5.186  19.004  0.00  0.00    +0.000 A 
ATOM      3  C   UNL     1       3.976   4.012  18.729  0.00  0.00    +0.000 A 
ATOM      4  C   UNL     1       4.868   3.956  17.652  0.00  0.00    +0.000 A 
ATOM      5  C   UNL     1       5.040   5.098  16.859  0.00  0.00    +0.000 A 
ATOM      6  C   UNL     1       4.338   6.287  17.130  0.00  0.00    +0.000 A 
ENDROOT
BRANCH   1  13
ATOM      7  C   UNL     1      -0.389   9.906  23.220  0.00  0.00    +0.000 C 
ATOM      8  C   UNL     1       0.082   9.643  21.838  0.00  0.00    +0.000 A 
ATOM      9  C   UNL     1      -0.182  10.417  20.726  0.00  0.00    +0.000 A 
ATOM     10  S   UNL     1       0.618   9.769  19.363  0.00  0.00    +0.000 S 
ATOM     11  C   UNL     1       1.259   8.525  20.337  0.00  0.00    +0.000 A 
ATOM     12  N   UNL     1       2.075   7.536  19.837  0.00  0.00    +0.000 N 
ATOM     13  C   UNL     1       2.720   7.568  18.624  0.00  0.00    +0.000 C 
ATOM     14  O   UNL     1       2.743   8.503  17.828  0.00  0.00    +0.000 OA
ATOM     15  N   UNL     1       0.872   8.527  21.593  0.00  0.00    +0.000 NA
ATOM     16  H   UNL     1       2.195   6.779  20.493  0.00  0.00    +0.000 HD
ENDBRANCH   1  13
BRANCH   3  17
ATOM     17  N   UNL     1       3.822   2.846  19.613  0.00  0.00    +0.000 N 
ATOM     18  O   UNL     1       2.674   2.447  19.843  0.00  0.00    +0.000 OA
ATOM     19  O   UNL     1       4.854   2.350  20.083  0.00  0.00    +0.000 OA
ENDBRANCH   3  17
BRANCH   5  20
ATOM     20  N   UNL     1       6.000   5.064  15.745  0.00  0.00    +0.000 N 
ATOM     21  O   UNL     1       5.963   5.992  14.926  0.00  0.00    +0.000 OA
ATOM     22  O   UNL     1       6.775   4.100  15.691  0.00  0.00    +0.000 OA
ENDBRANCH   5  20
TORSDOF 3
ENDMDL
MODEL 8
REMARK VINA RESULT:      -7.4      2.080      2.292
REMARK  Name = 
REMARK  4 active torsions:
REMARK  status: ('A' for Active; 'I' for Inactive)
REMARK    1  A    between atoms: C_1  and  C_2
REMARK    2  A    between atoms: C_7  and  C_9
REMARK    3  A    between atoms: C_11  and  N_12
REMARK    4  A    between atoms: C_16  and  N_17
REMARK                            x       y       z     vdW  Elec       q    Type
REMARK                         _______ _______ _______ _____ _____    ______ ____
ROOT
ATOM      1  C   UNL     1       2.819   6.257  19.374  0.00  0.00    +0.000 A 
ATOM      2  C   UNL     1       2.203   5.251  20.138  0.00  0.00    +0.000 A 
ATOM      3  C   UNL     1       2.771   3.972  20.212  0.00  0.00    +0.000 A 
ATOM      4  C   UNL     1       3.937   3.669  19.501  0.00  0.00    +0.000 A 
ATOM      5  C   UNL     1       4.529   4.669  18.718  0.00  0.00    +0.000 A 
ATOM      6  C   UNL     1       3.976   5.960  18.643  0.00  0.00    +0.000 A 
ENDROOT
BRANCH   1  13
ATOM      7  C   UNL     1      -1.035  11.230  22.978  0.00  0.00    +0.000 C 
ATOM      8  C   UNL     1      -0.471  10.611  21.753  0.00  0.00    +0.000 A 
ATOM      9  C   UNL     1      -0.537  11.129  20.474  0.00  0.00    +0.000 A 
ATOM     10  S   UNL     1       0.305  10.112  19.391  0.00  0.00    +0.000 S 
ATOM     11  C   UNL     1       0.702   9.072  20.683  0.00  0.00    +0.000 A 
ATOM     12  N   UNL     1       1.438   7.922  20.512  0.00  0.00    +0.000 N 
ATOM     13  C   UNL     1       2.193   7.613  19.406  0.00  0.00    +0.000 C 
ATOM     14  O   UNL     1       2.400   8.332  18.433  0.00  0.00    +0.000 OA
ATOM     15  N   UNL     1       0.202   9.400  21.853  0.00  0.00    +0.000 NA
ATOM     16  H   UNL     1       1.407   7.330  21.328  0.00  0.00    +0.000 HD
ENDBRANCH   1  13
BRANCH   3  17
ATOM     17  N   UNL     1       2.163   2.958  21.087  0.00  0.00    +0.000 N 
ATOM     18  O   UNL     1       2.836   2.540  22.037  0.00  0.00    +0.000 OA
ATOM     19  O   UNL     1       1.021   2.576  20.805  0.00  0.00    +0.000 OA
ENDBRANCH   3  17
BRANCH   5  20
ATOM     20  N   UNL     1       5.775   4.374  17.993  0.00  0.00    +0.000 N 
ATOM     21  O   UNL     1       5.693   4.146  16.779  0.00  0.00    +0.000 OA
ATOM     22  O   UNL     1       6.825   4.357  18.649  0.00  0.00    +0.000 OA
ENDBRANCH   5  20
TORSDOF 3
ENDMDL
MODEL 9
REMARK VINA RESULT:      -7.4      0.977      1.345
REMARK  Name = 
REMARK  4 active torsions:
REMARK  status: ('A' for Active; 'I' for Inactive)
REMARK    1  A    between atoms: C_1  and  C_2
REMARK    2  A    between atoms: C_7  and  C_9
REMARK    3  A    between atoms: C_11  and  N_12
REMARK    4  A    between atoms: C_16  and  N_17
REMARK                            x       y       z     vdW  Elec       q    Type
REMARK                         _______ _______ _______ _____ _____    ______ ____
ROOT
ATOM      1  C   UNL     1       3.264   6.419  18.071  0.00  0.00    +0.000 A 
ATOM      2  C   UNL     1       2.434   5.287  17.990  0.00  0.00    +0.000 A 
ATOM      3  C   UNL     1       2.992   4.009  17.859  0.00  0.00    +0.000 A 
ATOM      4  C   UNL     1       4.379   3.843  17.772  0.00  0.00    +0.000 A 
ATOM      5  C   UNL     1       5.198   4.978  17.824  0.00  0.00    +0.000 A 
ATOM      6  C   UNL     1       4.652   6.267  17.966  0.00  0.00    +0.000 A 
ENDROOT
BRANCH   1  13
ATOM      7  C   UNL     1      -0.439  10.862  22.443  0.00  0.00    +0.000 C 
ATOM      8  C   UNL     1       0.039  10.386  21.122  0.00  0.00    +0.000 A 
ATOM      9  C   UNL     1      -0.155  11.017  19.909  0.00  0.00    +0.000 A 
ATOM     10  S   UNL     1       0.627  10.142  18.666  0.00  0.00    +0.000 S 
ATOM     11  C   UNL     1       1.169   9.005  19.815  0.00  0.00    +0.000 A 
ATOM     12  N   UNL     1       1.928   7.909  19.475  0.00  0.00    +0.000 N 
ATOM     13  C   UNL     1       2.596   7.737  18.285  0.00  0.00    +0.000 C 
ATOM     14  O   UNL     1       2.693   8.552  17.372  0.00  0.00    +0.000 OA
ATOM     15  N   UNL     1       0.760   9.201  21.049  0.00  0.00    +0.000 NA
ATOM     16  H   UNL     1       1.988   7.242  20.229  0.00  0.00    +0.000 HD
ENDBRANCH   1  13
BRANCH   3  17
ATOM     17  N   UNL     1       2.113   2.830  17.865  0.00  0.00    +0.000 N 
ATOM     18  O   UNL     1       0.917   3.005  18.133  0.00  0.00    +0.000 OA
ATOM     19  O   UNL     1       2.631   1.734  17.619  0.00  0.00    +0.000 OA
ENDBRANCH   3  17
BRANCH   5  20
ATOM     20  N   UNL     1       6.659   4.815  17.769  0.00  0.00    +0.000 N 
ATOM     21  O   UNL     1       7.161   4.495  16.684  0.00  0.00    +0.000 OA
ATOM     22  O   UNL     1       7.292   4.994  18.818  0.00  0.00    +0.000 OA
ENDBRANCH   5  20
TORSDOF 3
ENDMDL
