MODEL 1
REMARK VINA RESULT:      -7.9      0.000      0.000
REMARK  Name = 
REMARK  7 active torsions:
REMARK  status: ('A' for Active; 'I' for Inactive)
REMARK    1  A    between atoms: C_1  and  N_2
REMARK    2  A    between atoms: C_4  and  C_5
REMARK    3  A    between atoms: C_7  and  S_8
REMARK    4  A    between atoms: S_8  and  C_9
REMARK    5  A    between atoms: C_14  and  O_15
REMARK    6  A    between atoms: O_15  and  C_16
REMARK    7  A    between atoms: C_20  and  C_21
REMARK                            x       y       z     vdW  Elec       q    Type
REMARK                         _______ _______ _______ _____ _____    ______ ____
ROOT
ATOM      1  C   UNL     1      -0.452  12.499  19.494  0.00  0.00    +0.000 A 
ATOM      2  C   UNL     1      -0.172  13.850  19.206  0.00  0.00    +0.000 A 
ATOM      3  C   UNL     1       1.026  14.435  19.619  0.00  0.00    +0.000 A 
ATOM      4  C   UNL     1       1.942  13.713  20.376  0.00  0.00    +0.000 A 
ATOM      5  C   UNL     1       1.659  12.387  20.700  0.00  0.00    +0.000 A 
ATOM      6  C   UNL     1       0.511  11.744  20.198  0.00  0.00    +0.000 A 
ENDROOT
BRANCH   1  10
ATOM      7  C   UNL     1      -2.968  10.964  15.613  0.00  0.00    +0.000 C 
ATOM      8  N   UNL     1      -2.992  11.306  17.022  0.00  0.00    +0.000 N 
ATOM      9  C   UNL     1      -1.796  11.559  17.708  0.00  0.00    +0.000 A 
ATOM     10  C   UNL     1      -1.761  12.007  18.987  0.00  0.00    +0.000 A 
ATOM     11  C   UNL     1      -3.021  12.234  19.647  0.00  0.00    +0.000 A 
ATOM     12  C   UNL     1      -3.369  12.766  20.908  0.00  0.00    +0.000 A 
ATOM     13  C   UNL     1      -4.751  12.813  20.955  0.00  0.00    +0.000 A 
ATOM     14  N   UNL     1      -5.243  12.314  19.772  0.00  0.00    +0.000 N 
ATOM     15  C   UNL     1      -4.191  11.975  18.964  0.00  0.00    +0.000 A 
ATOM     16  C   UNL     1      -4.260  11.479  17.612  0.00  0.00    +0.000 A 
ATOM     17  O   UNL     1      -5.328  11.270  17.034  0.00  0.00    +0.000 OA
ATOM     18  H   UNL     1      -6.219  12.237  19.508  0.00  0.00    +0.000 HD
ENDBRANCH   1  10
BRANCH   3  19
ATOM     19  S   UNL     1       1.427  16.084  19.103  0.00  0.00    +0.000 S 
ATOM     20  C   UNL     1      -0.102  16.688  18.445  0.00  0.00    +0.000 C 
ATOM     21  O   UNL     1       1.741  16.843  20.299  0.00  0.00    +0.000 OA
ATOM     22  O   UNL     1       2.383  15.981  18.017  0.00  0.00    +0.000 OA
ENDBRANCH   3  19
BRANCH   6  23
ATOM     23  O   UNL     1       0.303  10.388  20.399  0.00  0.00    +0.000 OA
BRANCH  23  24
ATOM     24  C   UNL     1       1.051   9.480  19.665  0.00  0.00    +0.000 A 
ATOM     25  C   UNL     1       1.444   9.870  18.383  0.00  0.00    +0.000 A 
ATOM     26  C   UNL     1       2.193   9.000  17.581  0.00  0.00    +0.000 A 
ATOM     27  C   UNL     1       2.549   7.735  18.054  0.00  0.00    +0.000 A 
ATOM     28  C   UNL     1       2.180   7.334  19.345  0.00  0.00    +0.000 A 
ATOM     29  C   UNL     1       1.453   8.229  20.155  0.00  0.00    +0.000 A 
BRANCH  28  30
ATOM     30  C   UNL     1       2.531   5.961  19.867  0.00  0.00    +0.000 C 
ATOM     31  F   UNL     1       2.038   5.706  21.110  0.00  0.00    +0.000 F 
ATOM     32  F   UNL     1       2.062   4.960  19.070  0.00  0.00    +0.000 F 
ATOM     33  F   UNL     1       3.878   5.772  19.955  0.00  0.00    +0.000 F 
ENDBRANCH  28  30
ENDBRANCH  23  24
ENDBRANCH   6  23
TORSDOF 5
ENDMDL
MODEL 2
REMARK VINA RESULT:      -7.8      0.628      1.054
REMARK  Name = 
REMARK  7 active torsions:
REMARK  status: ('A' for Active; 'I' for Inactive)
REMARK    1  A    between atoms: C_1  and  N_2
REMARK    2  A    between atoms: C_4  and  C_5
REMARK    3  A    between atoms: C_7  and  S_8
REMARK    4  A    between atoms: S_8  and  C_9
REMARK    5  A    between atoms: C_14  and  O_15
REMARK    6  A    between atoms: O_15  and  C_16
REMARK    7  A    between atoms: C_20  and  C_21
REMARK                            x       y       z     vdW  Elec       q    Type
REMARK                         _______ _______ _______ _____ _____    ______ ____
ROOT
ATOM      1  C   UNL     1      -0.409  12.490  19.494  0.00  0.00    +0.000 A 
ATOM      2  C   UNL     1      -0.110  13.836  19.200  0.00  0.00    +0.000 A 
ATOM      3  C   UNL     1       1.099  14.403  19.608  0.00  0.00    +0.000 A 
ATOM      4  C   UNL     1       2.006  13.670  20.363  0.00  0.00    +0.000 A 
ATOM      5  C   UNL     1       1.704  12.350  20.693  0.00  0.00    +0.000 A 
ATOM      6  C   UNL     1       0.544  11.723  20.197  0.00  0.00    +0.000 A 
ENDROOT
BRANCH   1  10
ATOM      7  C   UNL     1      -2.964  10.987  15.625  0.00  0.00    +0.000 C 
ATOM      8  N   UNL     1      -2.977  11.332  17.034  0.00  0.00    +0.000 N 
ATOM      9  C   UNL     1      -1.774  11.568  17.715  0.00  0.00    +0.000 A 
ATOM     10  C   UNL     1      -1.728  12.017  18.993  0.00  0.00    +0.000 A 
ATOM     11  C   UNL     1      -2.982  12.263  19.658  0.00  0.00    +0.000 A 
ATOM     12  C   UNL     1      -3.316  12.800  20.919  0.00  0.00    +0.000 A 
ATOM     13  C   UNL     1      -4.698  12.868  20.972  0.00  0.00    +0.000 A 
ATOM     14  N   UNL     1      -5.202  12.375  19.792  0.00  0.00    +0.000 N 
ATOM     15  C   UNL     1      -4.158  12.019  18.980  0.00  0.00    +0.000 A 
ATOM     16  C   UNL     1      -4.240  11.524  17.628  0.00  0.00    +0.000 A 
ATOM     17  O   UNL     1      -5.313  11.329  17.055  0.00  0.00    +0.000 OA
ATOM     18  H   UNL     1      -6.180  12.312  19.532  0.00  0.00    +0.000 HD
ENDBRANCH   1  10
BRANCH   3  19
ATOM     19  S   UNL     1       1.523  16.044  19.085  0.00  0.00    +0.000 S 
ATOM     20  C   UNL     1       2.867  15.780  17.961  0.00  0.00    +0.000 C 
ATOM     21  O   UNL     1       0.395  16.560  18.333  0.00  0.00    +0.000 OA
ATOM     22  O   UNL     1       2.031  16.754  20.244  0.00  0.00    +0.000 OA
ENDBRANCH   3  19
BRANCH   6  23
ATOM     23  O   UNL     1       0.316  10.371  20.403  0.00  0.00    +0.000 OA
BRANCH  23  24
ATOM     24  C   UNL     1       1.058   9.449  19.680  0.00  0.00    +0.000 A 
ATOM     25  C   UNL     1       1.465   9.826  18.399  0.00  0.00    +0.000 A 
ATOM     26  C   UNL     1       2.208   8.943  17.607  0.00  0.00    +0.000 A 
ATOM     27  C   UNL     1       2.544   7.675  18.088  0.00  0.00    +0.000 A 
ATOM     28  C   UNL     1       2.159   7.286  19.379  0.00  0.00    +0.000 A 
ATOM     29  C   UNL     1       1.438   8.195  20.179  0.00  0.00    +0.000 A 
BRANCH  28  30
ATOM     30  C   UNL     1       2.487   5.911  19.910  0.00  0.00    +0.000 C 
ATOM     31  F   UNL     1       3.823   5.673  20.027  0.00  0.00    +0.000 F 
ATOM     32  F   UNL     1       1.961   5.686  21.147  0.00  0.00    +0.000 F 
ATOM     33  F   UNL     1       2.002   4.920  19.109  0.00  0.00    +0.000 F 
ENDBRANCH  28  30
ENDBRANCH  23  24
ENDBRANCH   6  23
TORSDOF 5
ENDMDL
MODEL 3
REMARK VINA RESULT:      -7.8      5.781      9.821
REMARK  Name = 
REMARK  7 active torsions:
REMARK  status: ('A' for Active; 'I' for Inactive)
REMARK    1  A    between atoms: C_1  and  N_2
REMARK    2  A    between atoms: C_4  and  C_5
REMARK    3  A    between atoms: C_7  and  S_8
REMARK    4  A    between atoms: S_8  and  C_9
REMARK    5  A    between atoms: C_14  and  O_15
REMARK    6  A    between atoms: O_15  and  C_16
REMARK    7  A    between atoms: C_20  and  C_21
REMARK                            x       y       z     vdW  Elec       q    Type
REMARK                         _______ _______ _______ _____ _____    ______ ____
ROOT
ATOM      1  C   UNL     1       3.665   5.860  18.244  0.00  0.00    +0.000 A 
ATOM      2  C   UNL     1       3.630   4.660  18.984  0.00  0.00    +0.000 A 
ATOM      3  C   UNL     1       2.718   4.492  20.027  0.00  0.00    +0.000 A 
ATOM      4  C   UNL     1       1.866   5.526  20.397  0.00  0.00    +0.000 A 
ATOM      5  C   UNL     1       1.919   6.731  19.698  0.00  0.00    +0.000 A 
ATOM      6  C   UNL     1       2.750   6.883  18.571  0.00  0.00    +0.000 A 
ENDROOT
BRANCH   1  10
ATOM      7  C   UNL     1       5.432   3.645  14.280  0.00  0.00    +0.000 C 
ATOM      8  N   UNL     1       5.566   4.734  15.227  0.00  0.00    +0.000 N 
ATOM      9  C   UNL     1       4.557   4.981  16.168  0.00  0.00    +0.000 A 
ATOM     10  C   UNL     1       4.681   5.898  17.158  0.00  0.00    +0.000 A 
ATOM     11  C   UNL     1       5.917   6.634  17.232  0.00  0.00    +0.000 A 
ATOM     12  C   UNL     1       6.426   7.577  18.150  0.00  0.00    +0.000 A 
ATOM     13  C   UNL     1       7.713   7.880  17.742  0.00  0.00    +0.000 A 
ATOM     14  N   UNL     1       7.987   7.162  16.602  0.00  0.00    +0.000 N 
ATOM     15  C   UNL     1       6.899   6.388  16.296  0.00  0.00    +0.000 A 
ATOM     16  C   UNL     1       6.789   5.434  15.220  0.00  0.00    +0.000 A 
ATOM     17  O   UNL     1       7.696   5.237  14.410  0.00  0.00    +0.000 OA
ATOM     18  H   UNL     1       8.856   7.163  16.081  0.00  0.00    +0.000 HD
ENDBRANCH   1  10
BRANCH   3  19
ATOM     19  S   UNL     1       2.580   2.917  20.832  0.00  0.00    +0.000 S 
ATOM     20  C   UNL     1       4.168   2.180  20.560  0.00  0.00    +0.000 C 
ATOM     21  O   UNL     1       2.433   3.173  22.252  0.00  0.00    +0.000 OA
ATOM     22  O   UNL     1       1.588   2.143  20.110  0.00  0.00    +0.000 OA
ENDBRANCH   3  19
BRANCH   6  23
ATOM     23  O   UNL     1       2.696   8.027  17.790  0.00  0.00    +0.000 OA
BRANCH  23  24
ATOM     24  C   UNL     1       1.741   8.990  18.079  0.00  0.00    +0.000 A 
ATOM     25  C   UNL     1       2.095   9.981  18.997  0.00  0.00    +0.000 A 
ATOM     26  C   UNL     1       1.178  10.980  19.344  0.00  0.00    +0.000 A 
ATOM     27  C   UNL     1      -0.100  10.992  18.781  0.00  0.00    +0.000 A 
ATOM     28  C   UNL     1      -0.467  10.016  17.844  0.00  0.00    +0.000 A 
ATOM     29  C   UNL     1       0.475   9.034  17.478  0.00  0.00    +0.000 A 
BRANCH  28  30
ATOM     30  C   UNL     1      -1.851   9.993  17.242  0.00  0.00    +0.000 C 
ATOM     31  F   UNL     1      -1.940   9.254  16.101  0.00  0.00    +0.000 F 
ATOM     32  F   UNL     1      -2.786   9.479  18.090  0.00  0.00    +0.000 F 
ATOM     33  F   UNL     1      -2.290  11.241  16.911  0.00  0.00    +0.000 F 
ENDBRANCH  28  30
ENDBRANCH  23  24
ENDBRANCH   6  23
TORSDOF 5
ENDMDL
MODEL 4
REMARK VINA RESULT:      -7.8      2.680      5.421
REMARK  Name = 
REMARK  7 active torsions:
REMARK  status: ('A' for Active; 'I' for Inactive)
REMARK    1  A    between atoms: C_1  and  N_2
REMARK    2  A    between atoms: C_4  and  C_5
REMARK    3  A    between atoms: C_7  and  S_8
REMARK    4  A    between atoms: S_8  and  C_9
REMARK    5  A    between atoms: C_14  and  O_15
REMARK    6  A    between atoms: O_15  and  C_16
REMARK    7  A    between atoms: C_20  and  C_21
REMARK                            x       y       z     vdW  Elec       q    Type
REMARK                         _______ _______ _______ _____ _____    ______ ____
ROOT
ATOM      1  C   UNL     1      -0.897  11.814  19.222  0.00  0.00    +0.000 A 
ATOM      2  C   UNL     1      -2.284  12.013  19.072  0.00  0.00    +0.000 A 
ATOM      3  C   UNL     1      -3.027  11.224  18.193  0.00  0.00    +0.000 A 
ATOM      4  C   UNL     1      -2.404  10.265  17.402  0.00  0.00    +0.000 A 
ATOM      5  C   UNL     1      -1.027  10.086  17.513  0.00  0.00    +0.000 A 
ATOM      6  C   UNL     1      -0.276  10.791  18.475  0.00  0.00    +0.000 A 
ENDROOT
BRANCH   1  10
ATOM      7  C   UNL     1      -1.150  13.905  23.617  0.00  0.00    +0.000 C 
ATOM      8  N   UNL     1      -0.428  13.786  22.365  0.00  0.00    +0.000 N 
ATOM      9  C   UNL     1      -0.784  12.800  21.435  0.00  0.00    +0.000 A 
ATOM     10  C   UNL     1      -0.235  12.721  20.198  0.00  0.00    +0.000 A 
ATOM     11  C   UNL     1       0.751  13.709  19.844  0.00  0.00    +0.000 A 
ATOM     12  C   UNL     1       1.454  13.989  18.652  0.00  0.00    +0.000 A 
ATOM     13  C   UNL     1       2.214  15.120  18.891  0.00  0.00    +0.000 A 
ATOM     14  N   UNL     1       2.004  15.518  20.190  0.00  0.00    +0.000 N 
ATOM     15  C   UNL     1       1.099  14.670  20.770  0.00  0.00    +0.000 A 
ATOM     16  C   UNL     1       0.547  14.768  22.099  0.00  0.00    +0.000 A 
ATOM     17  O   UNL     1       0.878  15.650  22.894  0.00  0.00    +0.000 OA
ATOM     18  H   UNL     1       2.412  16.325  20.648  0.00  0.00    +0.000 HD
ENDBRANCH   1  10
BRANCH   3  19
ATOM     19  S   UNL     1      -4.794  11.382  18.144  0.00  0.00    +0.000 S 
ATOM     20  C   UNL     1      -5.140  12.504  19.471  0.00  0.00    +0.000 C 
ATOM     21  O   UNL     1      -5.131  12.035  16.894  0.00  0.00    +0.000 OA
ATOM     22  O   UNL     1      -5.357  10.088  18.482  0.00  0.00    +0.000 OA
ENDBRANCH   3  19
BRANCH   6  23
ATOM     23  O   UNL     1       1.065  10.508  18.685  0.00  0.00    +0.000 OA
BRANCH  23  24
ATOM     24  C   UNL     1       1.422   9.241  19.121  0.00  0.00    +0.000 A 
ATOM     25  C   UNL     1       1.010   8.871  20.403  0.00  0.00    +0.000 A 
ATOM     26  C   UNL     1       1.343   7.611  20.913  0.00  0.00    +0.000 A 
ATOM     27  C   UNL     1       2.093   6.715  20.149  0.00  0.00    +0.000 A 
ATOM     28  C   UNL     1       2.499   7.061  18.853  0.00  0.00    +0.000 A 
ATOM     29  C   UNL     1       2.132   8.320  18.337  0.00  0.00    +0.000 A 
BRANCH  28  30
ATOM     30  C   UNL     1       3.334   6.120  18.018  0.00  0.00    +0.000 C 
ATOM     31  F   UNL     1       2.625   5.087  17.484  0.00  0.00    +0.000 F 
ATOM     32  F   UNL     1       3.933   6.742  16.964  0.00  0.00    +0.000 F 
ATOM     33  F   UNL     1       4.339   5.547  18.738  0.00  0.00    +0.000 F 
ENDBRANCH  28  30
ENDBRANCH  23  24
ENDBRANCH   6  23
TORSDOF 5
ENDMDL
MODEL 5
REMARK VINA RESULT:      -7.8      5.781      9.777
REMARK  Name = 
REMARK  7 active torsions:
REMARK  status: ('A' for Active; 'I' for Inactive)
REMARK    1  A    between atoms: C_1  and  N_2
REMARK    2  A    between atoms: C_4  and  C_5
REMARK    3  A    between atoms: C_7  and  S_8
REMARK    4  A    between atoms: S_8  and  C_9
REMARK    5  A    between atoms: C_14  and  O_15
REMARK    6  A    between atoms: O_15  and  C_16
REMARK    7  A    between atoms: C_20  and  C_21
REMARK                            x       y       z     vdW  Elec       q    Type
REMARK                         _______ _______ _______ _____ _____    ______ ____
ROOT
ATOM      1  C   UNL     1       3.700   5.944  18.241  0.00  0.00    +0.000 A 
ATOM      2  C   UNL     1       3.671   4.762  19.009  0.00  0.00    +0.000 A 
ATOM      3  C   UNL     1       2.756   4.612  20.052  0.00  0.00    +0.000 A 
ATOM      4  C   UNL     1       1.896   5.648  20.395  0.00  0.00    +0.000 A 
ATOM      5  C   UNL     1       1.943   6.836  19.668  0.00  0.00    +0.000 A 
ATOM      6  C   UNL     1       2.776   6.967  18.540  0.00  0.00    +0.000 A 
ENDROOT
BRANCH   1  10
ATOM      7  C   UNL     1       5.476   3.663  14.317  0.00  0.00    +0.000 C 
ATOM      8  N   UNL     1       5.609   4.767  15.248  0.00  0.00    +0.000 N 
ATOM      9  C   UNL     1       4.597   5.030  16.182  0.00  0.00    +0.000 A 
ATOM     10  C   UNL     1       4.720   5.963  17.157  0.00  0.00    +0.000 A 
ATOM     11  C   UNL     1       5.956   6.698  17.224  0.00  0.00    +0.000 A 
ATOM     12  C   UNL     1       6.464   7.655  18.129  0.00  0.00    +0.000 A 
ATOM     13  C   UNL     1       7.753   7.949  17.720  0.00  0.00    +0.000 A 
ATOM     14  N   UNL     1       8.029   7.213  16.592  0.00  0.00    +0.000 N 
ATOM     15  C   UNL     1       6.941   6.436  16.295  0.00  0.00    +0.000 A 
ATOM     16  C   UNL     1       6.833   5.465  15.234  0.00  0.00    +0.000 A 
ATOM     17  O   UNL     1       7.742   5.254  14.430  0.00  0.00    +0.000 OA
ATOM     18  H   UNL     1       8.900   7.204  16.074  0.00  0.00    +0.000 HD
ENDBRANCH   1  10
BRANCH   3  19
ATOM     19  S   UNL     1       2.626   3.055  20.895  0.00  0.00    +0.000 S 
ATOM     20  C   UNL     1       1.328   2.225  20.020  0.00  0.00    +0.000 C 
ATOM     21  O   UNL     1       3.865   2.338  20.662  0.00  0.00    +0.000 OA
ATOM     22  O   UNL     1       2.167   3.327  22.244  0.00  0.00    +0.000 OA
ENDBRANCH   3  19
BRANCH   6  23
ATOM     23  O   UNL     1       2.717   8.092  17.732  0.00  0.00    +0.000 OA
BRANCH  23  24
ATOM     24  C   UNL     1       1.776   9.071  18.015  0.00  0.00    +0.000 A 
ATOM     25  C   UNL     1       2.176  10.113  18.853  0.00  0.00    +0.000 A 
ATOM     26  C   UNL     1       1.276  11.131  19.190  0.00  0.00    +0.000 A 
ATOM     27  C   UNL     1      -0.030  11.111  18.696  0.00  0.00    +0.000 A 
ATOM     28  C   UNL     1      -0.444  10.082  17.838  0.00  0.00    +0.000 A 
ATOM     29  C   UNL     1       0.480   9.080  17.481  0.00  0.00    +0.000 A 
BRANCH  28  30
ATOM     30  C   UNL     1      -1.859  10.024  17.314  0.00  0.00    +0.000 C 
ATOM     31  F   UNL     1      -2.733   9.416  18.163  0.00  0.00    +0.000 F 
ATOM     32  F   UNL     1      -2.380  11.260  17.068  0.00  0.00    +0.000 F 
ATOM     33  F   UNL     1      -1.945   9.339  16.139  0.00  0.00    +0.000 F 
ENDBRANCH  28  30
ENDBRANCH  23  24
ENDBRANCH   6  23
TORSDOF 5
ENDMDL
MODEL 6
REMARK VINA RESULT:      -7.6      2.741      5.481
REMARK  Name = 
REMARK  7 active torsions:
REMARK  status: ('A' for Active; 'I' for Inactive)
REMARK    1  A    between atoms: C_1  and  N_2
REMARK    2  A    between atoms: C_4  and  C_5
REMARK    3  A    between atoms: C_7  and  S_8
REMARK    4  A    between atoms: S_8  and  C_9
REMARK    5  A    between atoms: C_14  and  O_15
REMARK    6  A    between atoms: O_15  and  C_16
REMARK    7  A    between atoms: C_20  and  C_21
REMARK                            x       y       z     vdW  Elec       q    Type
REMARK                         _______ _______ _______ _____ _____    ______ ____
ROOT
ATOM      1  C   UNL     1      -1.263  12.083  19.407  0.00  0.00    +0.000 A 
ATOM      2  C   UNL     1      -2.662  12.253  19.367  0.00  0.00    +0.000 A 
ATOM      3  C   UNL     1      -3.451  11.478  18.515  0.00  0.00    +0.000 A 
ATOM      4  C   UNL     1      -2.867  10.565  17.645  0.00  0.00    +0.000 A 
ATOM      5  C   UNL     1      -1.481  10.416  17.647  0.00  0.00    +0.000 A 
ATOM      6  C   UNL     1      -0.677  11.103  18.578  0.00  0.00    +0.000 A 
ENDROOT
BRANCH   1  10
ATOM      7  C   UNL     1      -1.319  14.134  23.827  0.00  0.00    +0.000 C 
ATOM      8  N   UNL     1      -0.646  14.016  22.548  0.00  0.00    +0.000 N 
ATOM      9  C   UNL     1      -1.052  13.045  21.623  0.00  0.00    +0.000 A 
ATOM     10  C   UNL     1      -0.550  12.970  20.366  0.00  0.00    +0.000 A 
ATOM     11  C   UNL     1       0.437  13.946  19.984  0.00  0.00    +0.000 A 
ATOM     12  C   UNL     1       1.099  14.226  18.769  0.00  0.00    +0.000 A 
ATOM     13  C   UNL     1       1.886  15.342  18.990  0.00  0.00    +0.000 A 
ATOM     14  N   UNL     1       1.731  15.731  20.300  0.00  0.00    +0.000 N 
ATOM     15  C   UNL     1       0.834  14.891  20.906  0.00  0.00    +0.000 A 
ATOM     16  C   UNL     1       0.334  14.985  22.255  0.00  0.00    +0.000 A 
ATOM     17  O   UNL     1       0.709  15.854  23.045  0.00  0.00    +0.000 OA
ATOM     18  H   UNL     1       2.168  16.527  20.750  0.00  0.00    +0.000 HD
ENDBRANCH   1  10
BRANCH   3  19
ATOM     19  S   UNL     1      -5.219  11.594  18.602  0.00  0.00    +0.000 S 
ATOM     20  C   UNL     1      -5.655  12.344  17.057  0.00  0.00    +0.000 C 
ATOM     21  O   UNL     1      -5.737  10.239  18.614  0.00  0.00    +0.000 OA
ATOM     22  O   UNL     1      -5.543  12.522  19.668  0.00  0.00    +0.000 OA
ENDBRANCH   3  19
BRANCH   6  23
ATOM     23  O   UNL     1       0.682  10.847  18.678  0.00  0.00    +0.000 OA
BRANCH  23  24
ATOM     24  C   UNL     1       1.097   9.620  19.174  0.00  0.00    +0.000 A 
ATOM     25  C   UNL     1       0.695   9.290  20.469  0.00  0.00    +0.000 A 
ATOM     26  C   UNL     1       1.085   8.072  21.039  0.00  0.00    +0.000 A 
ATOM     27  C   UNL     1       1.883   7.180  20.320  0.00  0.00    +0.000 A 
ATOM     28  C   UNL     1       2.279   7.485  19.011  0.00  0.00    +0.000 A 
ATOM     29  C   UNL     1       1.856   8.700  18.436  0.00  0.00    +0.000 A 
BRANCH  28  30
ATOM     30  C   UNL     1       3.164   6.548  18.224  0.00  0.00    +0.000 C 
ATOM     31  F   UNL     1       3.842   7.156  17.211  0.00  0.00    +0.000 F 
ATOM     32  F   UNL     1       4.113   5.947  18.997  0.00  0.00    +0.000 F 
ATOM     33  F   UNL     1       2.457   5.537  17.644  0.00  0.00    +0.000 F 
ENDBRANCH  28  30
ENDBRANCH  23  24
ENDBRANCH   6  23
TORSDOF 5
ENDMDL
MODEL 7
REMARK VINA RESULT:      -7.5      4.221      6.652
REMARK  Name = 
REMARK  7 active torsions:
REMARK  status: ('A' for Active; 'I' for Inactive)
REMARK    1  A    between atoms: C_1  and  N_2
REMARK    2  A    between atoms: C_4  and  C_5
REMARK    3  A    between atoms: C_7  and  S_8
REMARK    4  A    between atoms: S_8  and  C_9
REMARK    5  A    between atoms: C_14  and  O_15
REMARK    6  A    between atoms: O_15  and  C_16
REMARK    7  A    between atoms: C_20  and  C_21
REMARK                            x       y       z     vdW  Elec       q    Type
REMARK                         _______ _______ _______ _____ _____    ______ ____
ROOT
ATOM      1  C   UNL     1      -1.773  12.602  22.469  0.00  0.00    +0.000 A 
ATOM      2  C   UNL     1      -3.148  12.409  22.714  0.00  0.00    +0.000 A 
ATOM      3  C   UNL     1      -3.856  13.288  23.536  0.00  0.00    +0.000 A 
ATOM      4  C   UNL     1      -3.207  14.336  24.177  0.00  0.00    +0.000 A 
ATOM      5  C   UNL     1      -1.840  14.514  23.973  0.00  0.00    +0.000 A 
ATOM      6  C   UNL     1      -1.130  13.710  23.060  0.00  0.00    +0.000 A 
ENDROOT
BRANCH   1  10
ATOM      7  C   UNL     1       1.383   8.907  22.107  0.00  0.00    +0.000 C 
ATOM      8  N   UNL     1       0.472   9.801  21.420  0.00  0.00    +0.000 N 
ATOM      9  C   UNL     1      -0.371  10.649  22.151  0.00  0.00    +0.000 A 
ATOM     10  C   UNL     1      -1.149  11.594  21.569  0.00  0.00    +0.000 A 
ATOM     11  C   UNL     1      -1.084  11.720  20.136  0.00  0.00    +0.000 A 
ATOM     12  C   UNL     1      -1.665  12.622  19.218  0.00  0.00    +0.000 A 
ATOM     13  C   UNL     1      -1.169  12.295  17.968  0.00  0.00    +0.000 A 
ATOM     14  N   UNL     1      -0.324  11.219  18.103  0.00  0.00    +0.000 N 
ATOM     15  C   UNL     1      -0.256  10.875  19.427  0.00  0.00    +0.000 A 
ATOM     16  C   UNL     1       0.568   9.848  20.015  0.00  0.00    +0.000 A 
ATOM     17  O   UNL     1       1.302   9.120  19.346  0.00  0.00    +0.000 OA
ATOM     18  H   UNL     1       0.200  10.765  17.364  0.00  0.00    +0.000 HD
ENDBRANCH   1  10
BRANCH   3  19
ATOM     19  S   UNL     1      -5.615  13.121  23.696  0.00  0.00    +0.000 S 
ATOM     20  C   UNL     1      -6.140  12.739  22.047  0.00  0.00    +0.000 C 
ATOM     21  O   UNL     1      -5.862  11.962  24.533  0.00  0.00    +0.000 OA
ATOM     22  O   UNL     1      -6.146  14.423  24.054  0.00  0.00    +0.000 OA
ENDBRANCH   3  19
BRANCH   6  23
ATOM     23  O   UNL     1       0.194  13.978  22.749  0.00  0.00    +0.000 OA
BRANCH  23  24
ATOM     24  C   UNL     1       0.492  14.534  21.514  0.00  0.00    +0.000 A 
ATOM     25  C   UNL     1      -0.290  15.613  21.098  0.00  0.00    +0.000 A 
ATOM     26  C   UNL     1      -0.053  16.218  19.858  0.00  0.00    +0.000 A 
ATOM     27  C   UNL     1       0.962  15.745  19.024  0.00  0.00    +0.000 A 
ATOM     28  C   UNL     1       1.769  14.674  19.433  0.00  0.00    +0.000 A 
ATOM     29  C   UNL     1       1.542  14.093  20.696  0.00  0.00    +0.000 A 
BRANCH  28  30
ATOM     30  C   UNL     1       2.855  14.128  18.537  0.00  0.00    +0.000 C 
ATOM     31  F   UNL     1       2.617  12.860  18.099  0.00  0.00    +0.000 F 
ATOM     32  F   UNL     1       3.038  14.879  17.414  0.00  0.00    +0.000 F 
ATOM     33  F   UNL     1       4.065  14.084  19.162  0.00  0.00    +0.000 F 
ENDBRANCH  28  30
ENDBRANCH  23  24
ENDBRANCH   6  23
TORSDOF 5
ENDMDL
MODEL 8
REMARK VINA RESULT:      -7.5      5.820      9.832
REMARK  Name = 
REMARK  7 active torsions:
REMARK  status: ('A' for Active; 'I' for Inactive)
REMARK    1  A    between atoms: C_1  and  N_2
REMARK    2  A    between atoms: C_4  and  C_5
REMARK    3  A    between atoms: C_7  and  S_8
REMARK    4  A    between atoms: S_8  and  C_9
REMARK    5  A    between atoms: C_14  and  O_15
REMARK    6  A    between atoms: O_15  and  C_16
REMARK    7  A    between atoms: C_20  and  C_21
REMARK                            x       y       z     vdW  Elec       q    Type
REMARK                         _______ _______ _______ _____ _____    ______ ____
ROOT
ATOM      1  C   UNL     1       3.814   5.527  18.346  0.00  0.00    +0.000 A 
ATOM      2  C   UNL     1       3.835   4.260  18.964  0.00  0.00    +0.000 A 
ATOM      3  C   UNL     1       2.982   3.973  20.031  0.00  0.00    +0.000 A 
ATOM      4  C   UNL     1       2.139   4.950  20.546  0.00  0.00    +0.000 A 
ATOM      5  C   UNL     1       2.138   6.219  19.969  0.00  0.00    +0.000 A 
ATOM      6  C   UNL     1       2.905   6.496  18.820  0.00  0.00    +0.000 A 
ENDROOT
BRANCH   1  10
ATOM      7  C   UNL     1       5.417   3.724  14.111  0.00  0.00    +0.000 C 
ATOM      8  N   UNL     1       5.577   4.728  15.145  0.00  0.00    +0.000 N 
ATOM      9  C   UNL     1       4.614   4.861  16.155  0.00  0.00    +0.000 A 
ATOM     10  C   UNL     1       4.770   5.689  17.217  0.00  0.00    +0.000 A 
ATOM     11  C   UNL     1       5.991   6.450  17.294  0.00  0.00    +0.000 A 
ATOM     12  C   UNL     1       6.526   7.321  18.267  0.00  0.00    +0.000 A 
ATOM     13  C   UNL     1       7.783   7.694  17.822  0.00  0.00    +0.000 A 
ATOM     14  N   UNL     1       8.011   7.089  16.609  0.00  0.00    +0.000 N 
ATOM     15  C   UNL     1       6.927   6.316  16.290  0.00  0.00    +0.000 A 
ATOM     16  C   UNL     1       6.781   5.459  15.139  0.00  0.00    +0.000 A 
ATOM     17  O   UNL     1       7.648   5.360  14.269  0.00  0.00    +0.000 OA
ATOM     18  H   UNL     1       8.852   7.161  16.046  0.00  0.00    +0.000 HD
ENDBRANCH   1  10
BRANCH   3  19
ATOM     19  S   UNL     1       2.909   2.324  20.683  0.00  0.00    +0.000 S 
ATOM     20  C   UNL     1       4.558   1.721  20.453  0.00  0.00    +0.000 C 
ATOM     21  O   UNL     1       2.658   2.437  22.107  0.00  0.00    +0.000 OA
ATOM     22  O   UNL     1       2.020   1.558  19.830  0.00  0.00    +0.000 OA
ENDBRANCH   3  19
BRANCH   6  23
ATOM     23  O   UNL     1       2.794   7.710  18.160  0.00  0.00    +0.000 OA
BRANCH  23  24
ATOM     24  C   UNL     1       2.013   8.708  18.722  0.00  0.00    +0.000 A 
ATOM     25  C   UNL     1       1.805   9.858  17.958  0.00  0.00    +0.000 A 
ATOM     26  C   UNL     1       1.035  10.911  18.465  0.00  0.00    +0.000 A 
ATOM     27  C   UNL     1       0.472  10.824  19.740  0.00  0.00    +0.000 A 
ATOM     28  C   UNL     1       0.654   9.670  20.514  0.00  0.00    +0.000 A 
ATOM     29  C   UNL     1       1.405   8.604  19.981  0.00  0.00    +0.000 A 
BRANCH  28  30
ATOM     30  C   UNL     1       0.077   9.564  21.905  0.00  0.00    +0.000 C 
ATOM     31  F   UNL     1      -0.646  10.655  22.283  0.00  0.00    +0.000 F 
ATOM     32  F   UNL     1      -0.759   8.498  22.049  0.00  0.00    +0.000 F 
ATOM     33  F   UNL     1       1.045   9.414  22.854  0.00  0.00    +0.000 F 
ENDBRANCH  28  30
ENDBRANCH  23  24
ENDBRANCH   6  23
TORSDOF 5
ENDMDL
MODEL 9
REMARK VINA RESULT:      -7.4      2.643      5.198
REMARK  Name = 
REMARK  7 active torsions:
REMARK  status: ('A' for Active; 'I' for Inactive)
REMARK    1  A    between atoms: C_1  and  N_2
REMARK    2  A    between atoms: C_4  and  C_5
REMARK    3  A    between atoms: C_7  and  S_8
REMARK    4  A    between atoms: S_8  and  C_9
REMARK    5  A    between atoms: C_14  and  O_15
REMARK    6  A    between atoms: O_15  and  C_16
REMARK    7  A    between atoms: C_20  and  C_21
REMARK                            x       y       z     vdW  Elec       q    Type
REMARK                         _______ _______ _______ _____ _____    ______ ____
ROOT
ATOM      1  C   UNL     1      -1.682  12.138  18.894  0.00  0.00    +0.000 A 
ATOM      2  C   UNL     1      -3.090  12.187  18.857  0.00  0.00    +0.000 A 
ATOM      3  C   UNL     1      -3.824  11.171  18.242  0.00  0.00    +0.000 A 
ATOM      4  C   UNL     1      -3.179  10.120  17.601  0.00  0.00    +0.000 A 
ATOM      5  C   UNL     1      -1.785  10.081  17.597  0.00  0.00    +0.000 A 
ATOM      6  C   UNL     1      -1.028  11.033  18.309  0.00  0.00    +0.000 A 
ENDROOT
BRANCH   1  10
ATOM      7  C   UNL     1       1.720  15.617  18.641  0.00  0.00    +0.000 C 
ATOM      8  N   UNL     1       0.709  14.960  19.446  0.00  0.00    +0.000 N 
ATOM      9  C   UNL     1      -0.156  14.022  18.865  0.00  0.00    +0.000 A 
ATOM     10  C   UNL     1      -1.032  13.282  19.588  0.00  0.00    +0.000 A 
ATOM     11  C   UNL     1      -1.052  13.480  21.015  0.00  0.00    +0.000 A 
ATOM     12  C   UNL     1      -1.747  12.848  22.068  0.00  0.00    +0.000 A 
ATOM     13  C   UNL     1      -1.295  13.418  23.245  0.00  0.00    +0.000 A 
ATOM     14  N   UNL     1      -0.365  14.381  22.932  0.00  0.00    +0.000 N 
ATOM     15  C   UNL     1      -0.202  14.411  21.573  0.00  0.00    +0.000 A 
ATOM     16  C   UNL     1       0.727  15.227  20.829  0.00  0.00    +0.000 A 
ATOM     17  O   UNL     1       1.478  16.041  21.369  0.00  0.00    +0.000 OA
ATOM     18  H   UNL     1       0.152  14.957  23.586  0.00  0.00    +0.000 HD
ENDBRANCH   1  10
BRANCH   3  19
ATOM     19  S   UNL     1      -5.595  11.171  18.353  0.00  0.00    +0.000 S 
ATOM     20  C   UNL     1      -5.914  12.167  19.783  0.00  0.00    +0.000 C 
ATOM     21  O   UNL     1      -6.097  11.872  17.187  0.00  0.00    +0.000 OA
ATOM     22  O   UNL     1      -6.014   9.812  18.641  0.00  0.00    +0.000 OA
ENDBRANCH   3  19
BRANCH   6  23
ATOM     23  O   UNL     1       0.347  10.911  18.426  0.00  0.00    +0.000 OA
BRANCH  23  24
ATOM     24  C   UNL     1       0.871   9.772  19.019  0.00  0.00    +0.000 A 
ATOM     25  C   UNL     1       0.584   9.571  20.370  0.00  0.00    +0.000 A 
ATOM     26  C   UNL     1       1.088   8.448  21.038  0.00  0.00    +0.000 A 
ATOM     27  C   UNL     1       1.884   7.523  20.361  0.00  0.00    +0.000 A 
ATOM     28  C   UNL     1       2.167   7.698  18.999  0.00  0.00    +0.000 A 
ATOM     29  C   UNL     1       1.629   8.815  18.330  0.00  0.00    +0.000 A 
BRANCH  28  30
ATOM     30  C   UNL     1       3.048   6.725  18.253  0.00  0.00    +0.000 C 
ATOM     31  F   UNL     1       3.739   7.290  17.225  0.00  0.00    +0.000 F 
ATOM     32  F   UNL     1       3.985   6.142  19.053  0.00  0.00    +0.000 F 
ATOM     33  F   UNL     1       2.335   5.702  17.702  0.00  0.00    +0.000 F 
ENDBRANCH  28  30
ENDBRANCH  23  24
ENDBRANCH   6  23
TORSDOF 5
ENDMDL
