MODEL 1
REMARK VINA RESULT:      -6.4      0.000      0.000
REMARK  Name = 
REMARK  5 active torsions:
REMARK  status: ('A' for Active; 'I' for Inactive)
REMARK    1  A    between atoms: C_1  and  N_2
REMARK    2  A    between atoms: C_10  and  C_12
REMARK    3  A    between atoms: C_18  and  C_19
REMARK    4  A    between atoms: C_19  and  C_20
REMARK    5  A    between atoms: C_20  and  O_22
REMARK                            x       y       z     vdW  Elec       q    Type
REMARK                         _______ _______ _______ _____ _____    ______ ____
ROOT
ATOM      1  C   UNL     1      -2.512  13.582  22.335  0.00  0.00    +0.000 C 
ATOM      2  N   UNL     1      -1.081  13.306  22.436  0.00  0.00    +0.000 N 
ATOM      3  C   UNL     1      -0.666  12.009  22.093  0.00  0.00    +0.000 A 
ATOM      4  C   UNL     1      -0.993  10.944  22.945  0.00  0.00    +0.000 A 
ATOM      5  C   UNL     1      -0.632   9.635  22.623  0.00  0.00    +0.000 A 
ATOM      6  C   UNL     1       0.069   9.372  21.449  0.00  0.00    +0.000 A 
ATOM      7  C   UNL     1       0.387  10.415  20.574  0.00  0.00    +0.000 A 
ATOM      8  C   UNL     1       0.001  11.723  20.882  0.00  0.00    +0.000 A 
ATOM      9  N   UNL     1       0.149  12.768  19.921  0.00  0.00    +0.000 N 
ATOM     10  C   UNL     1      -0.614  12.833  18.735  0.00  0.00    +0.000 C 
ATOM     11  O   UNL     1      -0.499  13.748  17.915  0.00  0.00    +0.000 OA
ATOM     12  C   UNL     1       1.191  13.767  20.292  0.00  0.00    +0.000 C 
ATOM     13  C   UNL     1       0.755  14.678  21.430  0.00  0.00    +0.000 A 
ATOM     14  C   UNL     1       1.385  15.841  21.873  0.00  0.00    +0.000 A 
ATOM     15  C   UNL     1       0.710  16.320  23.010  0.00  0.00    +0.000 A 
ATOM     16  C   UNL     1      -0.298  15.429  23.266  0.00  0.00    +0.000 A 
ATOM     17  N   UNL     1      -0.269  14.422  22.327  0.00  0.00    +0.000 N 
ENDROOT
BRANCH  10  18
ATOM     18  C   UNL     1      -1.576  11.734  18.360  0.00  0.00    +0.000 A 
ATOM     19  C   UNL     1      -1.216  10.600  17.619  0.00  0.00    +0.000 A 
ATOM     20  C   UNL     1      -2.176   9.675  17.203  0.00  0.00    +0.000 A 
ATOM     21  C   UNL     1      -3.499   9.820  17.600  0.00  0.00    +0.000 A 
ATOM     22  C   UNL     1      -3.861  10.887  18.420  0.00  0.00    +0.000 A 
ATOM     23  C   UNL     1      -2.904  11.845  18.791  0.00  0.00    +0.000 A 
ENDBRANCH  10  18
BRANCH  12  24
ATOM     24  C   UNL     1       1.784  14.598  19.140  0.00  0.00    +0.000 C 
BRANCH  24  25
ATOM     25  C   UNL     1       2.913  13.888  18.440  0.00  0.00    +0.000 C 
ATOM     26  O   UNL     1       4.090  14.157  18.616  0.00  0.00    +0.000 OA
BRANCH  25  27
ATOM     27  O   UNL     1       2.507  12.951  17.557  0.00  0.00    +0.000 OA
ATOM     28  H   UNL     1       3.056  12.133  17.625  0.00  0.00    +0.000 HD
ENDBRANCH  25  27
ENDBRANCH  24  25
ENDBRANCH  12  24
TORSDOF 4
ENDMDL
MODEL 2
REMARK VINA RESULT:      -6.1      0.461      1.027
REMARK  Name = 
REMARK  5 active torsions:
REMARK  status: ('A' for Active; 'I' for Inactive)
REMARK    1  A    between atoms: C_1  and  N_2
REMARK    2  A    between atoms: C_10  and  C_12
REMARK    3  A    between atoms: C_18  and  C_19
REMARK    4  A    between atoms: C_19  and  C_20
REMARK    5  A    between atoms: C_20  and  O_22
REMARK                            x       y       z     vdW  Elec       q    Type
REMARK                         _______ _______ _______ _____ _____    ______ ____
ROOT
ATOM      1  C   UNL     1      -2.725  13.515  22.501  0.00  0.00    +0.000 C 
ATOM      2  N   UNL     1      -1.290  13.302  22.672  0.00  0.00    +0.000 N 
ATOM      3  C   UNL     1      -0.792  12.045  22.289  0.00  0.00    +0.000 A 
ATOM      4  C   UNL     1      -1.113  10.922  23.065  0.00  0.00    +0.000 A 
ATOM      5  C   UNL     1      -0.670   9.651  22.699  0.00  0.00    +0.000 A 
ATOM      6  C   UNL     1       0.109   9.484  21.556  0.00  0.00    +0.000 A 
ATOM      7  C   UNL     1       0.424  10.586  20.757  0.00  0.00    +0.000 A 
ATOM      8  C   UNL     1      -0.044  11.857  21.108  0.00  0.00    +0.000 A 
ATOM      9  N   UNL     1       0.107  12.957  20.211  0.00  0.00    +0.000 N 
ATOM     10  C   UNL     1      -0.589  13.050  18.987  0.00  0.00    +0.000 C 
ATOM     11  O   UNL     1      -0.474  14.012  18.223  0.00  0.00    +0.000 OA
ATOM     12  C   UNL     1       1.074  13.983  20.694  0.00  0.00    +0.000 C 
ATOM     13  C   UNL     1       0.529  14.810  21.849  0.00  0.00    +0.000 A 
ATOM     14  C   UNL     1       1.075  15.976  22.388  0.00  0.00    +0.000 A 
ATOM     15  C   UNL     1       0.313  16.361  23.506  0.00  0.00    +0.000 A 
ATOM     16  C   UNL     1      -0.663  15.411  23.655  0.00  0.00    +0.000 A 
ATOM     17  N   UNL     1      -0.530  14.458  22.669  0.00  0.00    +0.000 N 
ENDROOT
BRANCH  10  18
ATOM     18  C   UNL     1      -1.473  11.929  18.500  0.00  0.00    +0.000 A 
ATOM     19  C   UNL     1      -2.848  11.852  18.755  0.00  0.00    +0.000 A 
ATOM     20  C   UNL     1      -3.590  10.730  18.379  0.00  0.00    +0.000 A 
ATOM     21  C   UNL     1      -2.987   9.708  17.657  0.00  0.00    +0.000 A 
ATOM     22  C   UNL     1      -1.643   9.810  17.307  0.00  0.00    +0.000 A 
ATOM     23  C   UNL     1      -0.886  10.913  17.734  0.00  0.00    +0.000 A 
ENDBRANCH  10  18
BRANCH  12  24
ATOM     24  C   UNL     1       1.690  14.901  19.623  0.00  0.00    +0.000 C 
BRANCH  24  25
ATOM     25  C   UNL     1       2.916  14.301  18.986  0.00  0.00    +0.000 C 
ATOM     26  O   UNL     1       4.037  14.403  19.455  0.00  0.00    +0.000 OA
BRANCH  25  27
ATOM     27  O   UNL     1       2.674  13.677  17.814  0.00  0.00    +0.000 OA
ATOM     28  H   UNL     1       1.853  14.024  17.387  0.00  0.00    +0.000 HD
ENDBRANCH  25  27
ENDBRANCH  24  25
ENDBRANCH  12  24
TORSDOF 4
ENDMDL
MODEL 3
REMARK VINA RESULT:      -5.8      3.100      6.665
REMARK  Name = 
REMARK  5 active torsions:
REMARK  status: ('A' for Active; 'I' for Inactive)
REMARK    1  A    between atoms: C_1  and  N_2
REMARK    2  A    between atoms: C_10  and  C_12
REMARK    3  A    between atoms: C_18  and  C_19
REMARK    4  A    between atoms: C_19  and  C_20
REMARK    5  A    between atoms: C_20  and  O_22
REMARK                            x       y       z     vdW  Elec       q    Type
REMARK                         _______ _______ _______ _____ _____    ______ ____
ROOT
ATOM      1  C   UNL     1      -0.748  12.976  18.404  0.00  0.00    +0.000 C 
ATOM      2  N   UNL     1      -1.645  11.965  18.958  0.00  0.00    +0.000 N 
ATOM      3  C   UNL     1      -1.522  11.701  20.332  0.00  0.00    +0.000 A 
ATOM      4  C   UNL     1      -0.382  11.030  20.796  0.00  0.00    +0.000 A 
ATOM      5  C   UNL     1      -0.203  10.781  22.157  0.00  0.00    +0.000 A 
ATOM      6  C   UNL     1      -1.167  11.192  23.075  0.00  0.00    +0.000 A 
ATOM      7  C   UNL     1      -2.301  11.881  22.638  0.00  0.00    +0.000 A 
ATOM      8  C   UNL     1      -2.467  12.156  21.277  0.00  0.00    +0.000 A 
ATOM      9  N   UNL     1      -3.517  13.015  20.834  0.00  0.00    +0.000 N 
ATOM     10  C   UNL     1      -3.541  14.400  21.106  0.00  0.00    +0.000 C 
ATOM     11  O   UNL     1      -4.438  15.146  20.705  0.00  0.00    +0.000 OA
ATOM     12  C   UNL     1      -4.581  12.303  20.071  0.00  0.00    +0.000 C 
ATOM     13  C   UNL     1      -4.131  11.893  18.676  0.00  0.00    +0.000 A 
ATOM     14  C   UNL     1      -4.927  11.411  17.637  0.00  0.00    +0.000 A 
ATOM     15  C   UNL     1      -4.100  11.058  16.555  0.00  0.00    +0.000 A 
ATOM     16  C   UNL     1      -2.812  11.295  16.959  0.00  0.00    +0.000 A 
ATOM     17  N   UNL     1      -2.819  11.783  18.247  0.00  0.00    +0.000 N 
ENDROOT
BRANCH  10  18
ATOM     18  C   UNL     1      -2.493  15.046  21.977  0.00  0.00    +0.000 A 
ATOM     19  C   UNL     1      -1.215  15.402  21.527  0.00  0.00    +0.000 A 
ATOM     20  C   UNL     1      -0.247  15.889  22.410  0.00  0.00    +0.000 A 
ATOM     21  C   UNL     1      -0.573  16.116  23.741  0.00  0.00    +0.000 A 
ATOM     22  C   UNL     1      -1.868  15.862  24.188  0.00  0.00    +0.000 A 
ATOM     23  C   UNL     1      -2.822  15.321  23.312  0.00  0.00    +0.000 A 
ENDBRANCH  10  18
BRANCH  12  24
ATOM     24  C   UNL     1      -5.956  12.991  20.008  0.00  0.00    +0.000 C 
BRANCH  24  25
ATOM     25  C   UNL     1      -6.908  12.471  21.054  0.00  0.00    +0.000 C 
ATOM     26  O   UNL     1      -7.611  13.192  21.742  0.00  0.00    +0.000 OA
BRANCH  25  27
ATOM     27  O   UNL     1      -6.880  11.130  21.200  0.00  0.00    +0.000 OA
ATOM     28  H   UNL     1      -6.994  10.672  20.332  0.00  0.00    +0.000 HD
ENDBRANCH  25  27
ENDBRANCH  24  25
ENDBRANCH  12  24
TORSDOF 4
ENDMDL
MODEL 4
REMARK VINA RESULT:      -5.8      7.723     10.351
REMARK  Name = 
REMARK  5 active torsions:
REMARK  status: ('A' for Active; 'I' for Inactive)
REMARK    1  A    between atoms: C_1  and  N_2
REMARK    2  A    between atoms: C_10  and  C_12
REMARK    3  A    between atoms: C_18  and  C_19
REMARK    4  A    between atoms: C_19  and  C_20
REMARK    5  A    between atoms: C_20  and  O_22
REMARK                            x       y       z     vdW  Elec       q    Type
REMARK                         _______ _______ _______ _____ _____    ______ ____
ROOT
ATOM      1  C   UNL     1       7.453  16.050  22.674  0.00  0.00    +0.000 C 
ATOM      2  N   UNL     1       7.078  14.811  21.996  0.00  0.00    +0.000 N 
ATOM      3  C   UNL     1       6.814  14.903  20.620  0.00  0.00    +0.000 A 
ATOM      4  C   UNL     1       5.651  15.559  20.193  0.00  0.00    +0.000 A 
ATOM      5  C   UNL     1       5.370  15.705  18.835  0.00  0.00    +0.000 A 
ATOM      6  C   UNL     1       6.244  15.189  17.881  0.00  0.00    +0.000 A 
ATOM      7  C   UNL     1       7.420  14.549  18.282  0.00  0.00    +0.000 A 
ATOM      8  C   UNL     1       7.717  14.428  19.644  0.00  0.00    +0.000 A 
ATOM      9  N   UNL     1       8.992  13.949  20.068  0.00  0.00    +0.000 N 
ATOM     10  C   UNL     1      10.186  14.681  19.883  0.00  0.00    +0.000 C 
ATOM     11  O   UNL     1      11.285  14.275  20.270  0.00  0.00    +0.000 OA
ATOM     12  C   UNL     1       8.935  12.605  20.710  0.00  0.00    +0.000 C 
ATOM     13  C   UNL     1       8.324  12.643  22.102  0.00  0.00    +0.000 A 
ATOM     14  C   UNL     1       8.316  11.621  23.052  0.00  0.00    +0.000 A 
ATOM     15  C   UNL     1       7.560  12.037  24.163  0.00  0.00    +0.000 A 
ATOM     16  C   UNL     1       7.089  13.288  23.864  0.00  0.00    +0.000 A 
ATOM     17  N   UNL     1       7.530  13.657  22.612  0.00  0.00    +0.000 N 
ENDROOT
BRANCH  10  18
ATOM     18  C   UNL     1      10.197  15.987  19.129  0.00  0.00    +0.000 A 
ATOM     19  C   UNL     1       9.691  17.188  19.641  0.00  0.00    +0.000 A 
ATOM     20  C   UNL     1       9.622  18.338  18.852  0.00  0.00    +0.000 A 
ATOM     21  C   UNL     1      10.145  18.329  17.565  0.00  0.00    +0.000 A 
ATOM     22  C   UNL     1      10.742  17.172  17.070  0.00  0.00    +0.000 A 
ATOM     23  C   UNL     1      10.761  16.002  17.846  0.00  0.00    +0.000 A 
ENDBRANCH  10  18
BRANCH  12  24
ATOM     24  C   UNL     1      10.244  11.796  20.722  0.00  0.00    +0.000 C 
BRANCH  24  25
ATOM     25  C   UNL     1      10.518  11.123  19.402  0.00  0.00    +0.000 C 
ATOM     26  O   UNL     1       9.773  10.298  18.900  0.00  0.00    +0.000 OA
BRANCH  25  27
ATOM     27  O   UNL     1      11.693  11.478  18.841  0.00  0.00    +0.000 OA
ATOM     28  H   UNL     1      12.093  12.252  19.306  0.00  0.00    +0.000 HD
ENDBRANCH  25  27
ENDBRANCH  24  25
ENDBRANCH  12  24
TORSDOF 4
ENDMDL
MODEL 5
REMARK VINA RESULT:      -5.7      2.882      4.597
REMARK  Name = 
REMARK  5 active torsions:
REMARK  status: ('A' for Active; 'I' for Inactive)
REMARK    1  A    between atoms: C_1  and  N_2
REMARK    2  A    between atoms: C_10  and  C_12
REMARK    3  A    between atoms: C_18  and  C_19
REMARK    4  A    between atoms: C_19  and  C_20
REMARK    5  A    between atoms: C_20  and  O_22
REMARK                            x       y       z     vdW  Elec       q    Type
REMARK                         _______ _______ _______ _____ _____    ______ ____
ROOT
ATOM      1  C   UNL     1      -2.759  16.399  20.530  0.00  0.00    +0.000 C 
ATOM      2  N   UNL     1      -1.893  15.320  20.997  0.00  0.00    +0.000 N 
ATOM      3  C   UNL     1      -2.400  14.508  22.025  0.00  0.00    +0.000 A 
ATOM      4  C   UNL     1      -2.529  15.045  23.314  0.00  0.00    +0.000 A 
ATOM      5  C   UNL     1      -3.063  14.285  24.355  0.00  0.00    +0.000 A 
ATOM      6  C   UNL     1      -3.468  12.972  24.125  0.00  0.00    +0.000 A 
ATOM      7  C   UNL     1      -3.368  12.422  22.844  0.00  0.00    +0.000 A 
ATOM      8  C   UNL     1      -2.860  13.194  21.793  0.00  0.00    +0.000 A 
ATOM      9  N   UNL     1      -2.924  12.719  20.449  0.00  0.00    +0.000 N 
ATOM     10  C   UNL     1      -4.138  12.576  19.743  0.00  0.00    +0.000 C 
ATOM     11  O   UNL     1      -4.190  12.186  18.574  0.00  0.00    +0.000 OA
ATOM     12  C   UNL     1      -1.589  12.383  19.878  0.00  0.00    +0.000 C 
ATOM     13  C   UNL     1      -0.758  13.617  19.557  0.00  0.00    +0.000 A 
ATOM     14  C   UNL     1       0.429  13.672  18.825  0.00  0.00    +0.000 A 
ATOM     15  C   UNL     1       0.919  14.990  18.851  0.00  0.00    +0.000 A 
ATOM     16  C   UNL     1       0.049  15.712  19.625  0.00  0.00    +0.000 A 
ATOM     17  N   UNL     1      -0.959  14.887  20.072  0.00  0.00    +0.000 N 
ENDROOT
BRANCH  10  18
ATOM     18  C   UNL     1      -5.467  12.828  20.410  0.00  0.00    +0.000 A 
ATOM     19  C   UNL     1      -5.922  14.097  20.790  0.00  0.00    +0.000 A 
ATOM     20  C   UNL     1      -7.109  14.253  21.509  0.00  0.00    +0.000 A 
ATOM     21  C   UNL     1      -7.908  13.150  21.779  0.00  0.00    +0.000 A 
ATOM     22  C   UNL     1      -7.524  11.890  21.324  0.00  0.00    +0.000 A 
ATOM     23  C   UNL     1      -6.303  11.728  20.649  0.00  0.00    +0.000 A 
ENDBRANCH  10  18
BRANCH  12  24
ATOM     24  C   UNL     1      -1.579  11.408  18.687  0.00  0.00    +0.000 C 
BRANCH  24  25
ATOM     25  C   UNL     1      -0.571  10.302  18.857  0.00  0.00    +0.000 C 
ATOM     26  O   UNL     1      -0.325   9.773  19.928  0.00  0.00    +0.000 OA
BRANCH  25  27
ATOM     27  O   UNL     1       0.081   9.976  17.720  0.00  0.00    +0.000 OA
ATOM     28  H   UNL     1       0.649  10.721  17.408  0.00  0.00    +0.000 HD
ENDBRANCH  25  27
ENDBRANCH  24  25
ENDBRANCH  12  24
TORSDOF 4
ENDMDL
MODEL 6
REMARK VINA RESULT:      -5.6      3.772      6.797
REMARK  Name = 
REMARK  5 active torsions:
REMARK  status: ('A' for Active; 'I' for Inactive)
REMARK    1  A    between atoms: C_1  and  N_2
REMARK    2  A    between atoms: C_10  and  C_12
REMARK    3  A    between atoms: C_18  and  C_19
REMARK    4  A    between atoms: C_19  and  C_20
REMARK    5  A    between atoms: C_20  and  O_22
REMARK                            x       y       z     vdW  Elec       q    Type
REMARK                         _______ _______ _______ _____ _____    ______ ____
ROOT
ATOM      1  C   UNL     1      -6.409  10.757  19.105  0.00  0.00    +0.000 C 
ATOM      2  N   UNL     1      -5.445  11.743  18.624  0.00  0.00    +0.000 N 
ATOM      3  C   UNL     1      -5.716  13.088  18.928  0.00  0.00    +0.000 A 
ATOM      4  C   UNL     1      -6.784  13.728  18.283  0.00  0.00    +0.000 A 
ATOM      5  C   UNL     1      -7.111  15.051  18.583  0.00  0.00    +0.000 A 
ATOM      6  C   UNL     1      -6.369  15.757  19.527  0.00  0.00    +0.000 A 
ATOM      7  C   UNL     1      -5.313  15.133  20.198  0.00  0.00    +0.000 A 
ATOM      8  C   UNL     1      -5.003  13.798  19.918  0.00  0.00    +0.000 A 
ATOM      9  N   UNL     1      -4.059  13.090  20.719  0.00  0.00    +0.000 N 
ATOM     10  C   UNL     1      -4.304  12.741  22.065  0.00  0.00    +0.000 C 
ATOM     11  O   UNL     1      -3.494  12.110  22.750  0.00  0.00    +0.000 OA
ATOM     12  C   UNL     1      -2.794  12.771  19.998  0.00  0.00    +0.000 C 
ATOM     13  C   UNL     1      -2.967  11.665  18.967  0.00  0.00    +0.000 A 
ATOM     14  C   UNL     1      -1.963  10.982  18.280  0.00  0.00    +0.000 A 
ATOM     15  C   UNL     1      -2.557  10.112  17.350  0.00  0.00    +0.000 A 
ATOM     16  C   UNL     1      -3.911  10.299  17.455  0.00  0.00    +0.000 A 
ATOM     17  N   UNL     1      -4.169  11.250  18.417  0.00  0.00    +0.000 N 
ENDROOT
BRANCH  10  18
ATOM     18  C   UNL     1      -5.557  13.186  22.775  0.00  0.00    +0.000 A 
ATOM     19  C   UNL     1      -6.756  12.462  22.772  0.00  0.00    +0.000 A 
ATOM     20  C   UNL     1      -7.916  12.982  23.348  0.00  0.00    +0.000 A 
ATOM     21  C   UNL     1      -7.873  14.197  24.021  0.00  0.00    +0.000 A 
ATOM     22  C   UNL     1      -6.668  14.888  24.122  0.00  0.00    +0.000 A 
ATOM     23  C   UNL     1      -5.515  14.389  23.494  0.00  0.00    +0.000 A 
ENDBRANCH  10  18
BRANCH  12  24
ATOM     24  C   UNL     1      -1.557  12.498  20.872  0.00  0.00    +0.000 C 
BRANCH  24  25
ATOM     25  C   UNL     1      -0.848  13.764  21.276  0.00  0.00    +0.000 C 
ATOM     26  O   UNL     1      -0.119  14.395  20.530  0.00  0.00    +0.000 OA
BRANCH  25  27
ATOM     27  O   UNL     1      -1.050  14.117  22.564  0.00  0.00    +0.000 OA
ATOM     28  H   UNL     1      -0.920  13.348  23.170  0.00  0.00    +0.000 HD
ENDBRANCH  25  27
ENDBRANCH  24  25
ENDBRANCH  12  24
TORSDOF 4
ENDMDL
MODEL 7
REMARK VINA RESULT:      -5.6      3.566      6.882
REMARK  Name = 
REMARK  5 active torsions:
REMARK  status: ('A' for Active; 'I' for Inactive)
REMARK    1  A    between atoms: C_1  and  N_2
REMARK    2  A    between atoms: C_10  and  C_12
REMARK    3  A    between atoms: C_18  and  C_19
REMARK    4  A    between atoms: C_19  and  C_20
REMARK    5  A    between atoms: C_20  and  O_22
REMARK                            x       y       z     vdW  Elec       q    Type
REMARK                         _______ _______ _______ _____ _____    ______ ____
ROOT
ATOM      1  C   UNL     1      -1.033  13.537  18.925  0.00  0.00    +0.000 C 
ATOM      2  N   UNL     1      -1.762  12.354  19.377  0.00  0.00    +0.000 N 
ATOM      3  C   UNL     1      -2.005  12.256  20.757  0.00  0.00    +0.000 A 
ATOM      4  C   UNL     1      -0.931  11.998  21.619  0.00  0.00    +0.000 A 
ATOM      5  C   UNL     1      -1.123  11.930  23.000  0.00  0.00    +0.000 A 
ATOM      6  C   UNL     1      -2.396  12.109  23.537  0.00  0.00    +0.000 A 
ATOM      7  C   UNL     1      -3.478  12.387  22.699  0.00  0.00    +0.000 A 
ATOM      8  C   UNL     1      -3.281  12.484  21.317  0.00  0.00    +0.000 A 
ATOM      9  N   UNL     1      -4.328  12.950  20.467  0.00  0.00    +0.000 N 
ATOM     10  C   UNL     1      -4.794  14.282  20.483  0.00  0.00    +0.000 C 
ATOM     11  O   UNL     1      -5.685  14.688  19.732  0.00  0.00    +0.000 OA
ATOM     12  C   UNL     1      -4.878  11.890  19.575  0.00  0.00    +0.000 C 
ATOM     13  C   UNL     1      -3.929  11.517  18.446  0.00  0.00    +0.000 A 
ATOM     14  C   UNL     1      -4.210  10.734  17.326  0.00  0.00    +0.000 A 
ATOM     15  C   UNL     1      -3.028  10.555  16.587  0.00  0.00    +0.000 A 
ATOM     16  C   UNL     1      -2.036  11.200  17.279  0.00  0.00    +0.000 A 
ATOM     17  N   UNL     1      -2.568  11.770  18.415  0.00  0.00    +0.000 N 
ENDROOT
BRANCH  10  18
ATOM     18  C   UNL     1      -4.274  15.283  21.484  0.00  0.00    +0.000 A 
ATOM     19  C   UNL     1      -3.042  15.939  21.363  0.00  0.00    +0.000 A 
ATOM     20  C   UNL     1      -2.561  16.766  22.380  0.00  0.00    +0.000 A 
ATOM     21  C   UNL     1      -3.348  17.025  23.495  0.00  0.00    +0.000 A 
ATOM     22  C   UNL     1      -4.619  16.461  23.590  0.00  0.00    +0.000 A 
ATOM     23  C   UNL     1      -5.077  15.587  22.592  0.00  0.00    +0.000 A 
ENDBRANCH  10  18
BRANCH  12  24
ATOM     24  C   UNL     1      -6.296  12.127  19.025  0.00  0.00    +0.000 C 
BRANCH  24  25
ATOM     25  C   UNL     1      -7.342  11.342  19.772  0.00  0.00    +0.000 C 
ATOM     26  O   UNL     1      -7.916  11.758  20.764  0.00  0.00    +0.000 OA
BRANCH  25  27
ATOM     27  O   UNL     1      -7.557  10.106  19.274  0.00  0.00    +0.000 OA
ATOM     28  H   UNL     1      -7.439   9.414  19.969  0.00  0.00    +0.000 HD
ENDBRANCH  25  27
ENDBRANCH  24  25
ENDBRANCH  12  24
TORSDOF 4
ENDMDL
MODEL 8
REMARK VINA RESULT:      -5.6      2.934      6.580
REMARK  Name = 
REMARK  5 active torsions:
REMARK  status: ('A' for Active; 'I' for Inactive)
REMARK    1  A    between atoms: C_1  and  N_2
REMARK    2  A    between atoms: C_10  and  C_12
REMARK    3  A    between atoms: C_18  and  C_19
REMARK    4  A    between atoms: C_19  and  C_20
REMARK    5  A    between atoms: C_20  and  O_22
REMARK                            x       y       z     vdW  Elec       q    Type
REMARK                         _______ _______ _______ _____ _____    ______ ____
ROOT
ATOM      1  C   UNL     1      -6.571  12.835  21.927  0.00  0.00    +0.000 C 
ATOM      2  N   UNL     1      -5.923  13.326  20.713  0.00  0.00    +0.000 N 
ATOM      3  C   UNL     1      -5.200  14.525  20.829  0.00  0.00    +0.000 A 
ATOM      4  C   UNL     1      -5.900  15.725  21.013  0.00  0.00    +0.000 A 
ATOM      5  C   UNL     1      -5.220  16.933  21.169  0.00  0.00    +0.000 A 
ATOM      6  C   UNL     1      -3.827  16.960  21.135  0.00  0.00    +0.000 A 
ATOM      7  C   UNL     1      -3.107  15.773  20.973  0.00  0.00    +0.000 A 
ATOM      8  C   UNL     1      -3.789  14.558  20.845  0.00  0.00    +0.000 A 
ATOM      9  N   UNL     1      -3.076  13.322  20.867  0.00  0.00    +0.000 N 
ATOM     10  C   UNL     1      -2.433  12.828  22.023  0.00  0.00    +0.000 C 
ATOM     11  O   UNL     1      -1.836  11.749  22.047  0.00  0.00    +0.000 OA
ATOM     12  C   UNL     1      -3.073  12.619  19.553  0.00  0.00    +0.000 C 
ATOM     13  C   UNL     1      -4.421  12.003  19.210  0.00  0.00    +0.000 A 
ATOM     14  C   UNL     1      -4.706  11.107  18.180  0.00  0.00    +0.000 A 
ATOM     15  C   UNL     1      -6.091  10.867  18.154  0.00  0.00    +0.000 A 
ATOM     16  C   UNL     1      -6.637  11.644  19.142  0.00  0.00    +0.000 A 
ATOM     17  N   UNL     1      -5.637  12.349  19.775  0.00  0.00    +0.000 N 
ENDROOT
BRANCH  10  18
ATOM     18  C   UNL     1      -2.378  13.635  23.295  0.00  0.00    +0.000 A 
ATOM     19  C   UNL     1      -3.438  13.732  24.205  0.00  0.00    +0.000 A 
ATOM     20  C   UNL     1      -3.370  14.590  25.306  0.00  0.00    +0.000 A 
ATOM     21  C   UNL     1      -2.201  15.294  25.566  0.00  0.00    +0.000 A 
ATOM     22  C   UNL     1      -1.099  15.137  24.729  0.00  0.00    +0.000 A 
ATOM     23  C   UNL     1      -1.190  14.317  23.592  0.00  0.00    +0.000 A 
ENDBRANCH  10  18
BRANCH  12  24
ATOM     24  C   UNL     1      -1.945  11.596  19.327  0.00  0.00    +0.000 C 
BRANCH  24  25
ATOM     25  C   UNL     1      -0.805  12.165  18.522  0.00  0.00    +0.000 C 
ATOM     26  O   UNL     1       0.357  12.141  18.890  0.00  0.00    +0.000 OA
BRANCH  25  27
ATOM     27  O   UNL     1      -1.190  12.753  17.369  0.00  0.00    +0.000 OA
ATOM     28  H   UNL     1      -0.705  13.600  17.220  0.00  0.00    +0.000 HD
ENDBRANCH  25  27
ENDBRANCH  24  25
ENDBRANCH  12  24
TORSDOF 4
ENDMDL
MODEL 9
REMARK VINA RESULT:      -5.5      2.645      5.019
REMARK  Name = 
REMARK  5 active torsions:
REMARK  status: ('A' for Active; 'I' for Inactive)
REMARK    1  A    between atoms: C_1  and  N_2
REMARK    2  A    between atoms: C_10  and  C_12
REMARK    3  A    between atoms: C_18  and  C_19
REMARK    4  A    between atoms: C_19  and  C_20
REMARK    5  A    between atoms: C_20  and  O_22
REMARK                            x       y       z     vdW  Elec       q    Type
REMARK                         _______ _______ _______ _____ _____    ______ ____
ROOT
ATOM      1  C   UNL     1       1.631  13.937  18.779  0.00  0.00    +0.000 C 
ATOM      2  N   UNL     1       0.243  14.392  18.761  0.00  0.00    +0.000 N 
ATOM      3  C   UNL     1      -0.745  13.394  18.739  0.00  0.00    +0.000 A 
ATOM      4  C   UNL     1      -0.916  12.633  17.574  0.00  0.00    +0.000 A 
ATOM      5  C   UNL     1      -1.860  11.607  17.523  0.00  0.00    +0.000 A 
ATOM      6  C   UNL     1      -2.655  11.333  18.634  0.00  0.00    +0.000 A 
ATOM      7  C   UNL     1      -2.488  12.065  19.812  0.00  0.00    +0.000 A 
ATOM      8  C   UNL     1      -1.521  13.074  19.873  0.00  0.00    +0.000 A 
ATOM      9  N   UNL     1      -1.207  13.702  21.116  0.00  0.00    +0.000 N 
ATOM     10  C   UNL     1      -0.557  13.029  22.173  0.00  0.00    +0.000 C 
ATOM     11  O   UNL     1      -0.267  13.580  23.238  0.00  0.00    +0.000 OA
ATOM     12  C   UNL     1      -1.643  15.126  21.184  0.00  0.00    +0.000 C 
ATOM     13  C   UNL     1      -0.782  16.047  20.333  0.00  0.00    +0.000 A 
ATOM     14  C   UNL     1      -0.775  17.442  20.336  0.00  0.00    +0.000 A 
ATOM     15  C   UNL     1       0.096  17.896  19.329  0.00  0.00    +0.000 A 
ATOM     16  C   UNL     1       0.581  16.777  18.704  0.00  0.00    +0.000 A 
ATOM     17  N   UNL     1       0.042  15.654  19.292  0.00  0.00    +0.000 N 
ENDROOT
BRANCH  10  18
ATOM     18  C   UNL     1      -0.238  11.558  22.087  0.00  0.00    +0.000 A 
ATOM     19  C   UNL     1       0.675  11.009  21.178  0.00  0.00    +0.000 A 
ATOM     20  C   UNL     1       0.842   9.627  21.067  0.00  0.00    +0.000 A 
ATOM     21  C   UNL     1       0.164   8.774  21.929  0.00  0.00    +0.000 A 
ATOM     22  C   UNL     1      -0.675   9.304  22.907  0.00  0.00    +0.000 A 
ATOM     23  C   UNL     1      -0.882  10.691  22.980  0.00  0.00    +0.000 A 
ENDBRANCH  10  18
BRANCH  12  24
ATOM     24  C   UNL     1      -1.830  15.718  22.592  0.00  0.00    +0.000 C 
BRANCH  24  25
ATOM     25  C   UNL     1      -3.179  15.392  23.179  0.00  0.00    +0.000 C 
ATOM     26  O   UNL     1      -4.212  15.945  22.842  0.00  0.00    +0.000 OA
BRANCH  25  27
ATOM     27  O   UNL     1      -3.139  14.461  24.156  0.00  0.00    +0.000 OA
ATOM     28  H   UNL     1      -3.654  14.750  24.948  0.00  0.00    +0.000 HD
ENDBRANCH  25  27
ENDBRANCH  24  25
ENDBRANCH  12  24
TORSDOF 4
ENDMDL
