MODEL 1
REMARK VINA RESULT:      -6.0      0.000      0.000
REMARK  Name = 
REMARK  3 active torsions:
REMARK  status: ('A' for Active; 'I' for Inactive)
REMARK    1  A    between atoms: C_1  and  C_2
REMARK    2  A    between atoms: C_7  and  C_8
REMARK    3  A    between atoms: C_16  and  N_17
REMARK                            x       y       z     vdW  Elec       q    Type
REMARK                         _______ _______ _______ _____ _____    ______ ____
ROOT
ATOM      1  C   UNL     1       5.412   5.501  16.711  0.00  0.00    +0.000 C 
ATOM      2  O   UNL     1       5.022   6.563  16.239  0.00  0.00    +0.000 OA
ATOM      3  N   UNL     1       4.584   4.667  17.470  0.00  0.00    +0.000 N 
ATOM      4  C   UNL     1       3.175   5.031  17.567  0.00  0.00    +0.000 C 
ATOM      5  C   UNL     1       3.113   5.800  18.869  0.00  0.00    +0.000 C 
ATOM      6  C   UNL     1       4.476   5.508  19.480  0.00  0.00    +0.000 C 
ATOM      7  C   UNL     1       5.068   4.195  18.771  0.00  0.00    +0.000 C 
ATOM      8  C   UNL     1       4.450   2.732  18.591  0.00  0.00    +0.000 C 
ATOM      9  C   UNL     1       2.913   2.665  18.513  0.00  0.00    +0.000 C 
ATOM     10  C   UNL     1       2.358   3.735  17.555  0.00  0.00    +0.000 C 
ENDROOT
BRANCH   1  17
ATOM     11  C   UNL     1       6.209   2.462  11.781  0.00  0.00    +0.000 C 
ATOM     12  C   UNL     1       6.696   3.832  12.171  0.00  0.00    +0.000 C 
ATOM     13  O   UNL     1       7.124   4.600  11.322  0.00  0.00    +0.000 OA
ATOM     14  N   UNL     1       6.631   4.168  13.531  0.00  0.00    +0.000 N 
ATOM     15  C   UNL     1       6.892   5.564  13.883  0.00  0.00    +0.000 C 
ATOM     16  C   UNL     1       7.519   5.698  15.268  0.00  0.00    +0.000 C 
ATOM     17  C   UNL     1       6.788   4.912  16.359  0.00  0.00    +0.000 C 
ATOM     18  C   UNL     1       6.586   3.460  15.899  0.00  0.00    +0.000 C 
ATOM     19  C   UNL     1       5.905   3.390  14.529  0.00  0.00    +0.000 C 
ENDBRANCH   1  17
BRANCH   9  20
ATOM     20  N   UNL     1       2.215   2.642  19.799  0.00  0.00    +0.000 N 
ATOM     21  N   UNL     1       2.924   2.502  20.944  0.00  0.00    +0.000 NA
ATOM     22  C   UNL     1       2.013   2.797  21.873  0.00  0.00    +0.000 A 
ATOM     23  C   UNL     1       0.798   3.115  21.256  0.00  0.00    +0.000 A 
ATOM     24  N   UNL     1       0.921   3.017  19.928  0.00  0.00    +0.000 NA
ENDBRANCH   9  20
TORSDOF 2
ENDMDL
MODEL 2
REMARK VINA RESULT:      -6.0      2.333      7.073
REMARK  Name = 
REMARK  3 active torsions:
REMARK  status: ('A' for Active; 'I' for Inactive)
REMARK    1  A    between atoms: C_1  and  C_2
REMARK    2  A    between atoms: C_7  and  C_8
REMARK    3  A    between atoms: C_16  and  N_17
REMARK                            x       y       z     vdW  Elec       q    Type
REMARK                         _______ _______ _______ _____ _____    ______ ____
ROOT
ATOM      1  C   UNL     1       4.928   5.700  18.650  0.00  0.00    +0.000 C 
ATOM      2  O   UNL     1       5.615   5.494  19.645  0.00  0.00    +0.000 OA
ATOM      3  N   UNL     1       5.339   5.332  17.364  0.00  0.00    +0.000 N 
ATOM      4  C   UNL     1       6.566   4.552  17.251  0.00  0.00    +0.000 C 
ATOM      5  C   UNL     1       7.614   5.607  16.974  0.00  0.00    +0.000 C 
ATOM      6  C   UNL     1       6.765   6.835  16.679  0.00  0.00    +0.000 C 
ATOM      7  C   UNL     1       5.287   6.337  16.298  0.00  0.00    +0.000 C 
ATOM      8  C   UNL     1       4.784   5.296  15.194  0.00  0.00    +0.000 C 
ATOM      9  C   UNL     1       5.773   4.167  14.845  0.00  0.00    +0.000 C 
ATOM     10  C   UNL     1       6.369   3.539  16.118  0.00  0.00    +0.000 C 
ENDROOT
BRANCH   1  17
ATOM     11  C   UNL     1       0.428   1.992  19.053  0.00  0.00    +0.000 C 
ATOM     12  C   UNL     1       1.023   2.917  20.080  0.00  0.00    +0.000 C 
ATOM     13  O   UNL     1       0.756   2.779  21.264  0.00  0.00    +0.000 OA
ATOM     14  N   UNL     1       1.880   3.923  19.611  0.00  0.00    +0.000 N 
ATOM     15  C   UNL     1       2.629   4.679  20.614  0.00  0.00    +0.000 C 
ATOM     16  C   UNL     1       2.905   6.111  20.166  0.00  0.00    +0.000 C 
ATOM     17  C   UNL     1       3.485   6.218  18.753  0.00  0.00    +0.000 C 
ATOM     18  C   UNL     1       2.614   5.410  17.778  0.00  0.00    +0.000 C 
ATOM     19  C   UNL     1       2.417   3.968  18.255  0.00  0.00    +0.000 C 
ENDBRANCH   1  17
BRANCH   9  20
ATOM     20  N   UNL     1       6.792   4.505  13.851  0.00  0.00    +0.000 N 
ATOM     21  N   UNL     1       6.690   4.015  12.593  0.00  0.00    +0.000 NA
ATOM     22  C   UNL     1       7.602   4.735  11.939  0.00  0.00    +0.000 A 
ATOM     23  C   UNL     1       8.209   5.637  12.821  0.00  0.00    +0.000 A 
ATOM     24  N   UNL     1       7.695   5.494  14.046  0.00  0.00    +0.000 NA
ENDBRANCH   9  20
TORSDOF 2
ENDMDL
MODEL 3
REMARK VINA RESULT:      -5.8      8.136     10.649
REMARK  Name = 
REMARK  3 active torsions:
REMARK  status: ('A' for Active; 'I' for Inactive)
REMARK    1  A    between atoms: C_1  and  C_2
REMARK    2  A    between atoms: C_7  and  C_8
REMARK    3  A    between atoms: C_16  and  N_17
REMARK                            x       y       z     vdW  Elec       q    Type
REMARK                         _______ _______ _______ _____ _____    ______ ____
ROOT
ATOM      1  C   UNL     1       0.711  11.044  20.940  0.00  0.00    +0.000 C 
ATOM      2  O   UNL     1       1.384  10.821  21.940  0.00  0.00    +0.000 OA
ATOM      3  N   UNL     1       0.755  12.268  20.263  0.00  0.00    +0.000 N 
ATOM      4  C   UNL     1       1.749  13.241  20.701  0.00  0.00    +0.000 C 
ATOM      5  C   UNL     1       0.967  14.120  21.651  0.00  0.00    +0.000 C 
ATOM      6  C   UNL     1      -0.466  13.682  21.389  0.00  0.00    +0.000 C 
ATOM      7  C   UNL     1      -0.509  12.948  19.962  0.00  0.00    +0.000 C 
ATOM      8  C   UNL     1      -0.027  13.434  18.518  0.00  0.00    +0.000 C 
ATOM      9  C   UNL     1       1.152  14.426  18.510  0.00  0.00    +0.000 C 
ATOM     10  C   UNL     1       2.275  13.960  19.455  0.00  0.00    +0.000 C 
ENDROOT
BRANCH   1  17
ATOM     11  C   UNL     1       3.368   6.814  17.904  0.00  0.00    +0.000 C 
ATOM     12  C   UNL     1       2.649   6.761  19.225  0.00  0.00    +0.000 C 
ATOM     13  O   UNL     1       2.787   5.798  19.965  0.00  0.00    +0.000 OA
ATOM     14  N   UNL     1       1.830   7.852  19.549  0.00  0.00    +0.000 N 
ATOM     15  C   UNL     1       1.309   7.909  20.915  0.00  0.00    +0.000 C 
ATOM     16  C   UNL     1      -0.051   8.599  20.982  0.00  0.00    +0.000 C 
ATOM     17  C   UNL     1      -0.102   9.940  20.245  0.00  0.00    +0.000 C 
ATOM     18  C   UNL     1       0.445   9.766  18.821  0.00  0.00    +0.000 C 
ATOM     19  C   UNL     1       1.832   9.117  18.821  0.00  0.00    +0.000 C 
ENDBRANCH   1  17
BRANCH   9  20
ATOM     20  N   UNL     1       0.797  15.832  18.704  0.00  0.00    +0.000 N 
ATOM     21  N   UNL     1       1.775  16.752  18.885  0.00  0.00    +0.000 NA
ATOM     22  C   UNL     1       1.107  17.898  18.751  0.00  0.00    +0.000 A 
ATOM     23  C   UNL     1      -0.240  17.629  18.483  0.00  0.00    +0.000 A 
ATOM     24  N   UNL     1      -0.445  16.308  18.452  0.00  0.00    +0.000 NA
ENDBRANCH   9  20
TORSDOF 2
ENDMDL
MODEL 4
REMARK VINA RESULT:      -5.7     10.282     11.540
REMARK  Name = 
REMARK  3 active torsions:
REMARK  status: ('A' for Active; 'I' for Inactive)
REMARK    1  A    between atoms: C_1  and  C_2
REMARK    2  A    between atoms: C_7  and  C_8
REMARK    3  A    between atoms: C_16  and  N_17
REMARK                            x       y       z     vdW  Elec       q    Type
REMARK                         _______ _______ _______ _____ _____    ______ ____
ROOT
ATOM      1  C   UNL     1       8.204  14.745  22.344  0.00  0.00    +0.000 C 
ATOM      2  O   UNL     1       7.461  15.464  21.685  0.00  0.00    +0.000 OA
ATOM      3  N   UNL     1       7.720  13.767  23.220  0.00  0.00    +0.000 N 
ATOM      4  C   UNL     1       6.282  13.522  23.221  0.00  0.00    +0.000 C 
ATOM      5  C   UNL     1       5.793  14.383  24.366  0.00  0.00    +0.000 C 
ATOM      6  C   UNL     1       7.093  14.780  25.048  0.00  0.00    +0.000 C 
ATOM      7  C   UNL     1       8.231  13.742  24.594  0.00  0.00    +0.000 C 
ATOM      8  C   UNL     1       8.281  12.146  24.660  0.00  0.00    +0.000 C 
ATOM      9  C   UNL     1       6.918  11.434  24.562  0.00  0.00    +0.000 C 
ATOM     10  C   UNL     1       6.067  12.018  23.419  0.00  0.00    +0.000 C 
ENDROOT
BRANCH   1  17
ATOM     11  C   UNL     1      10.516  13.065  17.245  0.00  0.00    +0.000 C 
ATOM     12  C   UNL     1      10.432  14.430  17.874  0.00  0.00    +0.000 C 
ATOM     13  O   UNL     1      10.630  15.433  17.204  0.00  0.00    +0.000 OA
ATOM     14  N   UNL     1      10.121  14.484  19.240  0.00  0.00    +0.000 N 
ATOM     15  C   UNL     1       9.821  15.801  19.802  0.00  0.00    +0.000 C 
ATOM     16  C   UNL     1      10.222  15.902  21.271  0.00  0.00    +0.000 C 
ATOM     17  C   UNL     1       9.726  14.736  22.131  0.00  0.00    +0.000 C 
ATOM     18  C   UNL     1      10.111  13.407  21.465  0.00  0.00    +0.000 C 
ATOM     19  C   UNL     1       9.636  13.343  20.011  0.00  0.00    +0.000 C 
ENDBRANCH   1  17
BRANCH   9  20
ATOM     20  N   UNL     1       6.173  11.318  25.817  0.00  0.00    +0.000 N 
ATOM     21  N   UNL     1       4.921  10.801  25.808  0.00  0.00    +0.000 NA
ATOM     22  C   UNL     1       4.692  10.606  27.107  0.00  0.00    +0.000 A 
ATOM     23  C   UNL     1       5.814  10.998  27.847  0.00  0.00    +0.000 A 
ATOM     24  N   UNL     1       6.765  11.455  27.026  0.00  0.00    +0.000 NA
ENDBRANCH   9  20
TORSDOF 2
ENDMDL
MODEL 5
REMARK VINA RESULT:      -5.4      9.457     12.759
REMARK  Name = 
REMARK  3 active torsions:
REMARK  status: ('A' for Active; 'I' for Inactive)
REMARK    1  A    between atoms: C_1  and  C_2
REMARK    2  A    between atoms: C_7  and  C_8
REMARK    3  A    between atoms: C_16  and  N_17
REMARK                            x       y       z     vdW  Elec       q    Type
REMARK                         _______ _______ _______ _____ _____    ______ ____
ROOT
ATOM      1  C   UNL     1      -1.675  13.545  21.172  0.00  0.00    +0.000 C 
ATOM      2  O   UNL     1      -1.237  14.133  22.155  0.00  0.00    +0.000 OA
ATOM      3  N   UNL     1      -1.095  12.372  20.679  0.00  0.00    +0.000 N 
ATOM      4  C   UNL     1      -0.021  11.773  21.464  0.00  0.00    +0.000 C 
ATOM      5  C   UNL     1       1.226  12.326  20.808  0.00  0.00    +0.000 C 
ATOM      6  C   UNL     1       0.672  12.947  19.535  0.00  0.00    +0.000 C 
ATOM      7  C   UNL     1      -0.769  12.298  19.251  0.00  0.00    +0.000 C 
ATOM      8  C   UNL     1      -1.223  10.772  19.116  0.00  0.00    +0.000 C 
ATOM      9  C   UNL     1      -0.394   9.757  19.927  0.00  0.00    +0.000 C 
ATOM     10  C   UNL     1      -0.168  10.251  21.368  0.00  0.00    +0.000 C 
ENDROOT
BRANCH   1  17
ATOM     11  C   UNL     1      -6.750  13.005  24.022  0.00  0.00    +0.000 C 
ATOM     12  C   UNL     1      -5.975  14.236  23.637  0.00  0.00    +0.000 C 
ATOM     13  O   UNL     1      -6.233  15.314  24.151  0.00  0.00    +0.000 OA
ATOM     14  N   UNL     1      -4.965  14.079  22.677  0.00  0.00    +0.000 N 
ATOM     15  C   UNL     1      -4.069  15.216  22.463  0.00  0.00    +0.000 C 
ATOM     16  C   UNL     1      -3.554  15.279  21.027  0.00  0.00    +0.000 C 
ATOM     17  C   UNL     1      -3.001  13.949  20.508  0.00  0.00    +0.000 C 
ATOM     18  C   UNL     1      -4.024  12.832  20.761  0.00  0.00    +0.000 C 
ATOM     19  C   UNL     1      -4.462  12.785  22.227  0.00  0.00    +0.000 C 
ENDBRANCH   1  17
BRANCH   9  20
ATOM     20  N   UNL     1       0.840   9.295  19.290  0.00  0.00    +0.000 N 
ATOM     21  N   UNL     1       1.544   8.282  19.848  0.00  0.00    +0.000 NA
ATOM     22  C   UNL     1       2.405   7.973  18.878  0.00  0.00    +0.000 A 
ATOM     23  C   UNL     1       2.180   8.799  17.770  0.00  0.00    +0.000 A 
ATOM     24  N   UNL     1       1.180   9.647  18.028  0.00  0.00    +0.000 NA
ENDBRANCH   9  20
TORSDOF 2
ENDMDL
MODEL 6
REMARK VINA RESULT:      -5.3      8.958     11.435
REMARK  Name = 
REMARK  3 active torsions:
REMARK  status: ('A' for Active; 'I' for Inactive)
REMARK    1  A    between atoms: C_1  and  C_2
REMARK    2  A    between atoms: C_7  and  C_8
REMARK    3  A    between atoms: C_16  and  N_17
REMARK                            x       y       z     vdW  Elec       q    Type
REMARK                         _______ _______ _______ _____ _____    ______ ____
ROOT
ATOM      1  C   UNL     1       0.054  11.831  21.010  0.00  0.00    +0.000 C 
ATOM      2  O   UNL     1       0.605  11.573  22.074  0.00  0.00    +0.000 OA
ATOM      3  N   UNL     1       0.189  13.071  20.376  0.00  0.00    +0.000 N 
ATOM      4  C   UNL     1       1.136  14.019  20.952  0.00  0.00    +0.000 C 
ATOM      5  C   UNL     1       0.257  14.884  21.829  0.00  0.00    +0.000 C 
ATOM      6  C   UNL     1      -1.140  14.472  21.391  0.00  0.00    +0.000 C 
ATOM      7  C   UNL     1      -1.024  13.776  19.949  0.00  0.00    +0.000 C 
ATOM      8  C   UNL     1      -0.374  14.293  18.584  0.00  0.00    +0.000 C 
ATOM      9  C   UNL     1       0.809  15.269  18.740  0.00  0.00    +0.000 C 
ATOM     10  C   UNL     1       1.810  14.764  19.796  0.00  0.00    +0.000 C 
ENDROOT
BRANCH   1  17
ATOM     11  C   UNL     1       3.007   7.898  17.850  0.00  0.00    +0.000 C 
ATOM     12  C   UNL     1       2.217   7.733  19.121  0.00  0.00    +0.000 C 
ATOM     13  O   UNL     1       2.344   6.725  19.801  0.00  0.00    +0.000 OA
ATOM     14  N   UNL     1       1.348   8.776  19.472  0.00  0.00    +0.000 N 
ATOM     15  C   UNL     1       0.750   8.723  20.806  0.00  0.00    +0.000 C 
ATOM     16  C   UNL     1      -0.632   9.369  20.841  0.00  0.00    +0.000 C 
ATOM     17  C   UNL     1      -0.684  10.757  20.195  0.00  0.00    +0.000 C 
ATOM     18  C   UNL     1      -0.054  10.697  18.796  0.00  0.00    +0.000 C 
ATOM     19  C   UNL     1       1.351  10.088  18.833  0.00  0.00    +0.000 C 
ENDBRANCH   1  17
BRANCH   9  20
ATOM     20  N   UNL     1       0.448  16.674  18.931  0.00  0.00    +0.000 N 
ATOM     21  N   UNL     1      -0.816  17.083  18.668  0.00  0.00    +0.000 NA
ATOM     22  C   UNL     1      -0.830  18.305  19.204  0.00  0.00    +0.000 A 
ATOM     23  C   UNL     1       0.417  18.580  19.779  0.00  0.00    +0.000 A 
ATOM     24  N   UNL     1       1.239  17.540  19.607  0.00  0.00    +0.000 NA
ENDBRANCH   9  20
TORSDOF 2
ENDMDL
MODEL 7
REMARK VINA RESULT:      -5.3     11.400     13.311
REMARK  Name = 
REMARK  3 active torsions:
REMARK  status: ('A' for Active; 'I' for Inactive)
REMARK    1  A    between atoms: C_1  and  C_2
REMARK    2  A    between atoms: C_7  and  C_8
REMARK    3  A    between atoms: C_16  and  N_17
REMARK                            x       y       z     vdW  Elec       q    Type
REMARK                         _______ _______ _______ _____ _____    ______ ____
ROOT
ATOM      1  C   UNL     1      -0.983  13.730  22.108  0.00  0.00    +0.000 C 
ATOM      2  O   UNL     1      -0.291  14.262  22.969  0.00  0.00    +0.000 OA
ATOM      3  N   UNL     1      -2.381  13.772  22.138  0.00  0.00    +0.000 N 
ATOM      4  C   UNL     1      -3.006  14.603  23.161  0.00  0.00    +0.000 C 
ATOM      5  C   UNL     1      -3.296  13.614  24.269  0.00  0.00    +0.000 C 
ATOM      6  C   UNL     1      -3.049  12.279  23.583  0.00  0.00    +0.000 C 
ATOM      7  C   UNL     1      -3.123  12.515  21.996  0.00  0.00    +0.000 C 
ATOM      8  C   UNL     1      -4.263  13.165  21.085  0.00  0.00    +0.000 C 
ATOM      9  C   UNL     1      -5.126  14.243  21.768  0.00  0.00    +0.000 C 
ATOM     10  C   UNL     1      -4.250  15.247  22.541  0.00  0.00    +0.000 C 
ENDROOT
BRANCH   1  17
ATOM     11  C   UNL     1       1.533  17.139  18.081  0.00  0.00    +0.000 C 
ATOM     12  C   UNL     1       2.143  16.161  19.049  0.00  0.00    +0.000 C 
ATOM     13  O   UNL     1       3.345  16.182  19.273  0.00  0.00    +0.000 OA
ATOM     14  N   UNL     1       1.275  15.249  19.665  0.00  0.00    +0.000 N 
ATOM     15  C   UNL     1       1.821  14.450  20.763  0.00  0.00    +0.000 C 
ATOM     16  C   UNL     1       1.157  13.079  20.861  0.00  0.00    +0.000 C 
ATOM     17  C   UNL     1      -0.373  13.128  20.832  0.00  0.00    +0.000 C 
ATOM     18  C   UNL     1      -0.839  13.968  19.634  0.00  0.00    +0.000 C 
ATOM     19  C   UNL     1      -0.180  15.350  19.620  0.00  0.00    +0.000 C 
ENDBRANCH   1  17
BRANCH   9  20
ATOM     20  N   UNL     1      -6.248  13.745  22.564  0.00  0.00    +0.000 N 
ATOM     21  N   UNL     1      -6.546  12.424  22.550  0.00  0.00    +0.000 NA
ATOM     22  C   UNL     1      -7.406  12.321  23.563  0.00  0.00    +0.000 A 
ATOM     23  C   UNL     1      -7.585  13.577  24.156  0.00  0.00    +0.000 A 
ATOM     24  N   UNL     1      -6.847  14.492  23.520  0.00  0.00    +0.000 NA
ENDBRANCH   9  20
TORSDOF 2
ENDMDL
MODEL 8
REMARK VINA RESULT:      -5.3     10.814     12.848
REMARK  Name = 
REMARK  3 active torsions:
REMARK  status: ('A' for Active; 'I' for Inactive)
REMARK    1  A    between atoms: C_1  and  C_2
REMARK    2  A    between atoms: C_7  and  C_8
REMARK    3  A    between atoms: C_16  and  N_17
REMARK                            x       y       z     vdW  Elec       q    Type
REMARK                         _______ _______ _______ _____ _____    ______ ____
ROOT
ATOM      1  C   UNL     1       5.401  15.749  18.895  0.00  0.00    +0.000 C 
ATOM      2  O   UNL     1       5.077  16.550  19.765  0.00  0.00    +0.000 OA
ATOM      3  N   UNL     1       6.639  15.097  18.900  0.00  0.00    +0.000 N 
ATOM      4  C   UNL     1       7.494  15.290  20.065  0.00  0.00    +0.000 C 
ATOM      5  C   UNL     1       8.409  16.415  19.631  0.00  0.00    +0.000 C 
ATOM      6  C   UNL     1       8.122  16.506  18.140  0.00  0.00    +0.000 C 
ATOM      7  C   UNL     1       7.449  15.123  17.678  0.00  0.00    +0.000 C 
ATOM      8  C   UNL     1       7.941  13.612  17.843  0.00  0.00    +0.000 C 
ATOM      9  C   UNL     1       8.814  13.328  19.081  0.00  0.00    +0.000 C 
ATOM     10  C   UNL     1       8.206  13.963  20.345  0.00  0.00    +0.000 C 
ENDROOT
BRANCH   1  17
ATOM     11  C   UNL     1       0.015  14.020  20.371  0.00  0.00    +0.000 C 
ATOM     12  C   UNL     1       0.477  15.250  19.635  0.00  0.00    +0.000 C 
ATOM     13  O   UNL     1      -0.275  16.202  19.490  0.00  0.00    +0.000 OA
ATOM     14  N   UNL     1       1.788  15.239  19.137  0.00  0.00    +0.000 N 
ATOM     15  C   UNL     1       2.312  16.503  18.619  0.00  0.00    +0.000 C 
ATOM     16  C   UNL     1       3.324  16.289  17.497  0.00  0.00    +0.000 C 
ATOM     17  C   UNL     1       4.408  15.260  17.829  0.00  0.00    +0.000 C 
ATOM     18  C   UNL     1       3.752  13.968  18.340  0.00  0.00    +0.000 C 
ATOM     19  C   UNL     1       2.789  14.241  19.498  0.00  0.00    +0.000 C 
ENDBRANCH   1  17
BRANCH   9  20
ATOM     20  N   UNL     1      10.239  13.622  18.930  0.00  0.00    +0.000 N 
ATOM     21  N   UNL     1      11.050  13.585  20.015  0.00  0.00    +0.000 NA
ATOM     22  C   UNL     1      12.261  13.628  19.459  0.00  0.00    +0.000 A 
ATOM     23  C   UNL     1      12.137  13.676  18.065  0.00  0.00    +0.000 A 
ATOM     24  N   UNL     1      10.845  13.673  17.721  0.00  0.00    +0.000 NA
ENDBRANCH   9  20
TORSDOF 2
ENDMDL
MODEL 9
REMARK VINA RESULT:      -5.3     10.436     12.441
REMARK  Name = 
REMARK  3 active torsions:
REMARK  status: ('A' for Active; 'I' for Inactive)
REMARK    1  A    between atoms: C_1  and  C_2
REMARK    2  A    between atoms: C_7  and  C_8
REMARK    3  A    between atoms: C_16  and  N_17
REMARK                            x       y       z     vdW  Elec       q    Type
REMARK                         _______ _______ _______ _____ _____    ______ ____
ROOT
ATOM      1  C   UNL     1      -0.132  13.380  21.097  0.00  0.00    +0.000 C 
ATOM      2  O   UNL     1       0.764  13.712  21.865  0.00  0.00    +0.000 OA
ATOM      3  N   UNL     1      -1.486  13.555  21.403  0.00  0.00    +0.000 N 
ATOM      4  C   UNL     1      -1.809  14.288  22.622  0.00  0.00    +0.000 C 
ATOM      5  C   UNL     1      -2.016  13.184  23.636  0.00  0.00    +0.000 C 
ATOM      6  C   UNL     1      -2.063  11.944  22.756  0.00  0.00    +0.000 C 
ATOM      7  C   UNL     1      -2.392  12.411  21.255  0.00  0.00    +0.000 C 
ATOM      8  C   UNL     1      -3.588  13.295  20.671  0.00  0.00    +0.000 C 
ATOM      9  C   UNL     1      -4.172  14.344  21.636  0.00  0.00    +0.000 C 
ATOM     10  C   UNL     1      -3.054  15.134  22.340  0.00  0.00    +0.000 C 
ENDROOT
BRANCH   1  17
ATOM     11  C   UNL     1       2.937  16.716  17.406  0.00  0.00    +0.000 C 
ATOM     12  C   UNL     1       3.306  15.429  18.094  0.00  0.00    +0.000 C 
ATOM     13  O   UNL     1       4.473  15.069  18.145  0.00  0.00    +0.000 OA
ATOM     14  N   UNL     1       2.261  14.685  18.659  0.00  0.00    +0.000 N 
ATOM     15  C   UNL     1       2.633  13.558  19.514  0.00  0.00    +0.000 C 
ATOM     16  C   UNL     1       1.601  12.435  19.465  0.00  0.00    +0.000 C 
ATOM     17  C   UNL     1       0.159  12.910  19.663  0.00  0.00    +0.000 C 
ATOM     18  C   UNL     1      -0.135  14.076  18.706  0.00  0.00    +0.000 C 
ATOM     19  C   UNL     1       0.904  15.193  18.839  0.00  0.00    +0.000 C 
ENDBRANCH   1  17
BRANCH   9  20
ATOM     20  N   UNL     1      -5.187  13.850  22.567  0.00  0.00    +0.000 N 
ATOM     21  N   UNL     1      -5.812  14.716  23.400  0.00  0.00    +0.000 NA
ATOM     22  C   UNL     1      -6.816  13.975  23.871  0.00  0.00    +0.000 A 
ATOM     23  C   UNL     1      -6.767  12.699  23.297  0.00  0.00    +0.000 A 
ATOM     24  N   UNL     1      -5.727  12.613  22.462  0.00  0.00    +0.000 NA
ENDBRANCH   9  20
TORSDOF 2
ENDMDL
