MODEL 1
REMARK VINA RESULT:      -8.2      0.000      0.000
REMARK  Name = 
REMARK  11 active torsions:
REMARK  status: ('A' for Active; 'I' for Inactive)
REMARK    1  A    between atoms: C_1  and  C_2
REMARK    2  A    between atoms: C_2  and  C_3
REMARK    3  A    between atoms: C_3  and  C_4
REMARK    4  A    between atoms: C_4  and  C_5
REMARK    5  A    between atoms: C_5  and  O_6
REMARK    6  A    between atoms: O_6  and  C_7
REMARK    7  A    between atoms: C_8  and  O_9
REMARK    8  A    between atoms: O_9  and  C_10
REMARK    9  A    between atoms: C_15  and  C_16
REMARK   10  A    between atoms: N_18  and  C_19
REMARK   11  A    between atoms: C_19  and  C_20
REMARK                            x       y       z     vdW  Elec       q    Type
REMARK                         _______ _______ _______ _____ _____    ______ ____
ROOT
ATOM      1  C   UNL     1       3.652   5.153  17.969  0.00  0.00    +0.000 A 
ATOM      2  C   UNL     1       3.687   3.982  18.752  0.00  0.00    +0.000 A 
ATOM      3  C   UNL     1       3.057   3.970  20.009  0.00  0.00    +0.000 A 
ATOM      4  C   UNL     1       2.411   5.099  20.516  0.00  0.00    +0.000 A 
ATOM      5  C   UNL     1       2.361   6.264  19.757  0.00  0.00    +0.000 A 
ATOM      6  C   UNL     1       1.684   7.478  20.259  0.00  0.00    +0.000 A 
ATOM      7  C   UNL     1       1.629   8.604  19.527  0.00  0.00    +0.000 A 
ATOM      8  C   UNL     1       2.226   8.599  18.169  0.00  0.00    +0.000 A 
ATOM      9  O   UNL     1       2.234   9.584  17.433  0.00  0.00    +0.000 OA
ATOM     10  N   UNL     1       2.763   7.438  17.723  0.00  0.00    +0.000 N 
ATOM     11  C   UNL     1       2.947   6.275  18.477  0.00  0.00    +0.000 A 
ATOM     12  H   UNL     1       3.014   7.488  16.757  0.00  0.00    +0.000 HD
ENDROOT
BRANCH   7  13
ATOM     13  C   UNL     1       0.927   9.815  20.058  0.00  0.00    +0.000 C 
ATOM     14  O   UNL     1       0.992  10.127  21.245  0.00  0.00    +0.000 OA
ATOM     15  N   UNL     1       0.202  10.519  19.133  0.00  0.00    +0.000 N 
ATOM     16  H   UNL     1       0.206  10.210  18.165  0.00  0.00    +0.000 HD
BRANCH  15  17
ATOM     17  C   UNL     1      -0.614  11.662  19.453  0.00  0.00    +0.000 C 
BRANCH  17  18
ATOM     18  C   UNL     1      -2.026  11.462  18.970  0.00  0.00    +0.000 A 
ATOM     19  C   UNL     1      -2.301  10.449  18.023  0.00  0.00    +0.000 A 
ATOM     20  C   UNL     1      -3.596  10.246  17.540  0.00  0.00    +0.000 A 
ATOM     21  C   UNL     1      -4.595  11.062  18.023  0.00  0.00    +0.000 A 
ATOM     22  C   UNL     1      -4.345  12.036  18.962  0.00  0.00    +0.000 A 
ATOM     23  C   UNL     1      -3.078  12.255  19.463  0.00  0.00    +0.000 A 
ATOM     24  O   UNL     1      -5.467  12.725  19.302  0.00  0.00    +0.000 OA
ATOM     25  C   UNL     1      -6.437  12.113  18.426  0.00  0.00    +0.000 C 
ATOM     26  O   UNL     1      -5.903  11.019  17.653  0.00  0.00    +0.000 OA
ENDBRANCH  17  18
ENDBRANCH  15  17
ENDBRANCH   7  13
BRANCH   2  27
ATOM     27  O   UNL     1       4.278   2.776  18.474  0.00  0.00    +0.000 OA
ATOM     28  C   UNL     1       3.515   1.584  18.568  0.00  0.00    +0.000 C 
ENDBRANCH   2  27
BRANCH   1  29
ATOM     29  O   UNL     1       4.273   5.115  16.740  0.00  0.00    +0.000 OA
BRANCH  29  30
ATOM     30  C   UNL     1       5.629   5.546  16.664  0.00  0.00    +0.000 C 
BRANCH  30  31
ATOM     31  C   UNL     1       6.464   4.632  15.787  0.00  0.00    +0.000 C 
BRANCH  31  32
ATOM     32  C   UNL     1       5.609   4.178  14.601  0.00  0.00    +0.000 C 
BRANCH  32  34
ATOM     33  C   UNL     1       5.624   3.355  12.234  0.00  0.00    +0.000 C 
ATOM     34  C   UNL     1       6.458   3.936  13.362  0.00  0.00    +0.000 C 
ENDBRANCH  32  34
ENDBRANCH  31  32
ENDBRANCH  30  31
ENDBRANCH  29  30
ENDBRANCH   1  29
TORSDOF 9
ENDMDL
MODEL 2
REMARK VINA RESULT:      -8.2      2.573      4.153
REMARK  Name = 
REMARK  11 active torsions:
REMARK  status: ('A' for Active; 'I' for Inactive)
REMARK    1  A    between atoms: C_1  and  C_2
REMARK    2  A    between atoms: C_2  and  C_3
REMARK    3  A    between atoms: C_3  and  C_4
REMARK    4  A    between atoms: C_4  and  C_5
REMARK    5  A    between atoms: C_5  and  O_6
REMARK    6  A    between atoms: O_6  and  C_7
REMARK    7  A    between atoms: C_8  and  O_9
REMARK    8  A    between atoms: O_9  and  C_10
REMARK    9  A    between atoms: C_15  and  C_16
REMARK   10  A    between atoms: N_18  and  C_19
REMARK   11  A    between atoms: C_19  and  C_20
REMARK                            x       y       z     vdW  Elec       q    Type
REMARK                         _______ _______ _______ _____ _____    ______ ____
ROOT
ATOM      1  C   UNL     1       4.149   5.490  18.997  0.00  0.00    +0.000 A 
ATOM      2  C   UNL     1       4.971   5.277  17.873  0.00  0.00    +0.000 A 
ATOM      3  C   UNL     1       4.910   6.172  16.790  0.00  0.00    +0.000 A 
ATOM      4  C   UNL     1       4.039   7.263  16.789  0.00  0.00    +0.000 A 
ATOM      5  C   UNL     1       3.222   7.495  17.891  0.00  0.00    +0.000 A 
ATOM      6  C   UNL     1       2.289   8.640  17.928  0.00  0.00    +0.000 A 
ATOM      7  C   UNL     1       1.502   8.871  18.993  0.00  0.00    +0.000 A 
ATOM      8  C   UNL     1       1.617   7.973  20.168  0.00  0.00    +0.000 A 
ATOM      9  O   UNL     1       0.930   8.098  21.181  0.00  0.00    +0.000 OA
ATOM     10  N   UNL     1       2.543   6.986  20.118  0.00  0.00    +0.000 N 
ATOM     11  C   UNL     1       3.307   6.633  19.002  0.00  0.00    +0.000 A 
ATOM     12  H   UNL     1       2.646   6.523  20.998  0.00  0.00    +0.000 HD
ENDROOT
BRANCH   7  13
ATOM     13  C   UNL     1       0.575  10.045  19.005  0.00  0.00    +0.000 C 
ATOM     14  O   UNL     1      -0.400  10.101  18.259  0.00  0.00    +0.000 OA
ATOM     15  N   UNL     1       0.909  11.041  19.884  0.00  0.00    +0.000 N 
ATOM     16  H   UNL     1       1.722  10.919  20.481  0.00  0.00    +0.000 HD
BRANCH  15  17
ATOM     17  C   UNL     1       0.200  12.290  19.990  0.00  0.00    +0.000 C 
BRANCH  17  18
ATOM     18  C   UNL     1      -0.844  12.221  21.074  0.00  0.00    +0.000 A 
ATOM     19  C   UNL     1      -0.617  11.407  22.207  0.00  0.00    +0.000 A 
ATOM     20  C   UNL     1      -1.570  11.305  23.224  0.00  0.00    +0.000 A 
ATOM     21  C   UNL     1      -2.734  12.029  23.086  0.00  0.00    +0.000 A 
ATOM     22  C   UNL     1      -2.957  12.842  21.999  0.00  0.00    +0.000 A 
ATOM     23  C   UNL     1      -2.032  12.969  20.983  0.00  0.00    +0.000 A 
ATOM     24  O   UNL     1      -4.164  13.465  22.060  0.00  0.00    +0.000 OA
ATOM     25  C   UNL     1      -4.698  12.903  23.278  0.00  0.00    +0.000 C 
ATOM     26  O   UNL     1      -3.773  12.036  23.963  0.00  0.00    +0.000 OA
ENDBRANCH  17  18
ENDBRANCH  15  17
ENDBRANCH   7  13
BRANCH   2  27
ATOM     27  O   UNL     1       5.874   4.270  17.643  0.00  0.00    +0.000 OA
ATOM     28  C   UNL     1       6.512   4.177  16.379  0.00  0.00    +0.000 C 
ENDBRANCH   2  27
BRANCH   1  29
ATOM     29  O   UNL     1       4.250   4.594  20.038  0.00  0.00    +0.000 OA
BRANCH  29  30
ATOM     30  C   UNL     1       3.541   3.363  19.930  0.00  0.00    +0.000 C 
BRANCH  30  31
ATOM     31  C   UNL     1       2.319   3.334  20.830  0.00  0.00    +0.000 C 
BRANCH  31  32
ATOM     32  C   UNL     1       1.091   3.714  19.999  0.00  0.00    +0.000 C 
BRANCH  32  34
ATOM     33  C   UNL     1       1.234   4.100  17.528  0.00  0.00    +0.000 C 
ATOM     34  C   UNL     1       1.122   3.058  18.627  0.00  0.00    +0.000 C 
ENDBRANCH  32  34
ENDBRANCH  31  32
ENDBRANCH  30  31
ENDBRANCH  29  30
ENDBRANCH   1  29
TORSDOF 9
ENDMDL
MODEL 3
REMARK VINA RESULT:      -8.1      3.030      9.631
REMARK  Name = 
REMARK  11 active torsions:
REMARK  status: ('A' for Active; 'I' for Inactive)
REMARK    1  A    between atoms: C_1  and  C_2
REMARK    2  A    between atoms: C_2  and  C_3
REMARK    3  A    between atoms: C_3  and  C_4
REMARK    4  A    between atoms: C_4  and  C_5
REMARK    5  A    between atoms: C_5  and  O_6
REMARK    6  A    between atoms: O_6  and  C_7
REMARK    7  A    between atoms: C_8  and  O_9
REMARK    8  A    between atoms: O_9  and  C_10
REMARK    9  A    between atoms: C_15  and  C_16
REMARK   10  A    between atoms: N_18  and  C_19
REMARK   11  A    between atoms: C_19  and  C_20
REMARK                            x       y       z     vdW  Elec       q    Type
REMARK                         _______ _______ _______ _____ _____    ______ ____
ROOT
ATOM      1  C   UNL     1       0.011  11.259  20.812  0.00  0.00    +0.000 A 
ATOM      2  C   UNL     1      -0.486  11.321  22.128  0.00  0.00    +0.000 A 
ATOM      3  C   UNL     1      -0.342  10.210  22.977  0.00  0.00    +0.000 A 
ATOM      4  C   UNL     1       0.268   9.030  22.543  0.00  0.00    +0.000 A 
ATOM      5  C   UNL     1       0.770   8.949  21.249  0.00  0.00    +0.000 A 
ATOM      6  C   UNL     1       1.422   7.719  20.754  0.00  0.00    +0.000 A 
ATOM      7  C   UNL     1       1.914   7.638  19.506  0.00  0.00    +0.000 A 
ATOM      8  C   UNL     1       1.831   8.833  18.632  0.00  0.00    +0.000 A 
ATOM      9  O   UNL     1       2.242   8.850  17.472  0.00  0.00    +0.000 OA
ATOM     10  N   UNL     1       1.297   9.962  19.157  0.00  0.00    +0.000 N 
ATOM     11  C   UNL     1       0.673  10.072  20.404  0.00  0.00    +0.000 A 
ATOM     12  H   UNL     1       1.407  10.748  18.550  0.00  0.00    +0.000 HD
ENDROOT
BRANCH   7  13
ATOM     13  C   UNL     1       2.579   6.382  19.038  0.00  0.00    +0.000 C 
ATOM     14  O   UNL     1       2.088   5.687  18.152  0.00  0.00    +0.000 OA
ATOM     15  N   UNL     1       3.746   6.068  19.682  0.00  0.00    +0.000 N 
ATOM     16  H   UNL     1       4.101   6.698  20.396  0.00  0.00    +0.000 HD
BRANCH  15  17
ATOM     17  C   UNL     1       4.497   4.861  19.443  0.00  0.00    +0.000 C 
BRANCH  17  18
ATOM     18  C   UNL     1       5.358   5.002  18.216  0.00  0.00    +0.000 A 
ATOM     19  C   UNL     1       6.463   5.883  18.239  0.00  0.00    +0.000 A 
ATOM     20  C   UNL     1       7.274   6.052  17.113  0.00  0.00    +0.000 A 
ATOM     21  C   UNL     1       6.962   5.326  15.985  0.00  0.00    +0.000 A 
ATOM     22  C   UNL     1       5.903   4.449  15.956  0.00  0.00    +0.000 A 
ATOM     23  C   UNL     1       5.089   4.256  17.054  0.00  0.00    +0.000 A 
ATOM     24  O   UNL     1       5.772   3.837  14.749  0.00  0.00    +0.000 OA
ATOM     25  C   UNL     1       6.832   4.475  14.006  0.00  0.00    +0.000 C 
ATOM     26  O   UNL     1       7.626   5.378  14.799  0.00  0.00    +0.000 OA
ENDBRANCH  17  18
ENDBRANCH  15  17
ENDBRANCH   7  13
BRANCH   2  27
ATOM     27  O   UNL     1      -1.136  12.353  22.757  0.00  0.00    +0.000 OA
ATOM     28  C   UNL     1      -2.477  12.178  23.186  0.00  0.00    +0.000 C 
ENDBRANCH   2  27
BRANCH   1  29
ATOM     29  O   UNL     1      -0.143  12.375  20.020  0.00  0.00    +0.000 OA
BRANCH  29  30
ATOM     30  C   UNL     1       0.890  13.356  20.042  0.00  0.00    +0.000 C 
BRANCH  30  31
ATOM     31  C   UNL     1       1.217  13.863  18.649  0.00  0.00    +0.000 C 
BRANCH  31  32
ATOM     32  C   UNL     1       2.524  13.213  18.187  0.00  0.00    +0.000 C 
BRANCH  32  34
ATOM     33  C   UNL     1       3.288  15.541  17.663  0.00  0.00    +0.000 C 
ATOM     34  C   UNL     1       3.684  14.195  18.243  0.00  0.00    +0.000 C 
ENDBRANCH  32  34
ENDBRANCH  31  32
ENDBRANCH  30  31
ENDBRANCH  29  30
ENDBRANCH   1  29
TORSDOF 9
ENDMDL
MODEL 4
REMARK VINA RESULT:      -8.0      1.384      3.645
REMARK  Name = 
REMARK  11 active torsions:
REMARK  status: ('A' for Active; 'I' for Inactive)
REMARK    1  A    between atoms: C_1  and  C_2
REMARK    2  A    between atoms: C_2  and  C_3
REMARK    3  A    between atoms: C_3  and  C_4
REMARK    4  A    between atoms: C_4  and  C_5
REMARK    5  A    between atoms: C_5  and  O_6
REMARK    6  A    between atoms: O_6  and  C_7
REMARK    7  A    between atoms: C_8  and  O_9
REMARK    8  A    between atoms: O_9  and  C_10
REMARK    9  A    between atoms: C_15  and  C_16
REMARK   10  A    between atoms: N_18  and  C_19
REMARK   11  A    between atoms: C_19  and  C_20
REMARK                            x       y       z     vdW  Elec       q    Type
REMARK                         _______ _______ _______ _____ _____    ______ ____
ROOT
ATOM      1  C   UNL     1       4.286   4.978  18.044  0.00  0.00    +0.000 A 
ATOM      2  C   UNL     1       5.100   4.883  16.899  0.00  0.00    +0.000 A 
ATOM      3  C   UNL     1       5.189   5.976  16.018  0.00  0.00    +0.000 A 
ATOM      4  C   UNL     1       4.472   7.154  16.239  0.00  0.00    +0.000 A 
ATOM      5  C   UNL     1       3.666   7.271  17.366  0.00  0.00    +0.000 A 
ATOM      6  C   UNL     1       2.894   8.502  17.634  0.00  0.00    +0.000 A 
ATOM      7  C   UNL     1       2.118   8.621  18.724  0.00  0.00    +0.000 A 
ATOM      8  C   UNL     1       2.080   7.500  19.695  0.00  0.00    +0.000 A 
ATOM      9  O   UNL     1       1.390   7.513  20.713  0.00  0.00    +0.000 OA
ATOM     10  N   UNL     1       2.867   6.426  19.446  0.00  0.00    +0.000 N 
ATOM     11  C   UNL     1       3.605   6.201  18.280  0.00  0.00    +0.000 A 
ATOM     12  H   UNL     1       2.883   5.786  20.214  0.00  0.00    +0.000 HD
ENDROOT
BRANCH   7  13
ATOM     13  C   UNL     1       1.357   9.885  18.974  0.00  0.00    +0.000 C 
ATOM     14  O   UNL     1       1.826  10.984  18.690  0.00  0.00    +0.000 OA
ATOM     15  N   UNL     1       0.127   9.718  19.554  0.00  0.00    +0.000 N 
ATOM     16  H   UNL     1      -0.203   8.777  19.748  0.00  0.00    +0.000 HD
BRANCH  15  17
ATOM     17  C   UNL     1      -0.727  10.807  19.955  0.00  0.00    +0.000 C 
BRANCH  17  18
ATOM     18  C   UNL     1      -1.911  10.925  19.032  0.00  0.00    +0.000 A 
ATOM     19  C   UNL     1      -1.940  10.169  17.837  0.00  0.00    +0.000 A 
ATOM     20  C   UNL     1      -3.014  10.266  16.949  0.00  0.00    +0.000 A 
ATOM     21  C   UNL     1      -4.044  11.118  17.280  0.00  0.00    +0.000 A 
ATOM     22  C   UNL     1      -4.039  11.841  18.450  0.00  0.00    +0.000 A 
ATOM     23  C   UNL     1      -2.996  11.760  19.350  0.00  0.00    +0.000 A 
ATOM     24  O   UNL     1      -5.148  12.616  18.583  0.00  0.00    +0.000 OA
ATOM     25  C   UNL     1      -5.820  12.343  17.335  0.00  0.00    +0.000 C 
ATOM     26  O   UNL     1      -5.154  11.350  16.530  0.00  0.00    +0.000 OA
ENDBRANCH  17  18
ENDBRANCH  15  17
ENDBRANCH   7  13
BRANCH   2  27
ATOM     27  O   UNL     1       5.866   3.828  16.469  0.00  0.00    +0.000 OA
ATOM     28  C   UNL     1       6.270   3.764  15.110  0.00  0.00    +0.000 C 
ENDBRANCH   2  27
BRANCH   1  29
ATOM     29  O   UNL     1       4.238   3.887  18.883  0.00  0.00    +0.000 OA
BRANCH  29  30
ATOM     30  C   UNL     1       3.691   2.675  18.371  0.00  0.00    +0.000 C 
BRANCH  30  31
ATOM     31  C   UNL     1       2.183   2.754  18.221  0.00  0.00    +0.000 C 
BRANCH  31  32
ATOM     32  C   UNL     1       1.536   2.254  19.515  0.00  0.00    +0.000 C 
BRANCH  32  34
ATOM     33  C   UNL     1       2.000   3.333  21.728  0.00  0.00    +0.000 C 
ATOM     34  C   UNL     1       1.190   3.406  20.446  0.00  0.00    +0.000 C 
ENDBRANCH  32  34
ENDBRANCH  31  32
ENDBRANCH  30  31
ENDBRANCH  29  30
ENDBRANCH   1  29
TORSDOF 9
ENDMDL
MODEL 5
REMARK VINA RESULT:      -8.0      2.284      9.521
REMARK  Name = 
REMARK  11 active torsions:
REMARK  status: ('A' for Active; 'I' for Inactive)
REMARK    1  A    between atoms: C_1  and  C_2
REMARK    2  A    between atoms: C_2  and  C_3
REMARK    3  A    between atoms: C_3  and  C_4
REMARK    4  A    between atoms: C_4  and  C_5
REMARK    5  A    between atoms: C_5  and  O_6
REMARK    6  A    between atoms: O_6  and  C_7
REMARK    7  A    between atoms: C_8  and  O_9
REMARK    8  A    between atoms: O_9  and  C_10
REMARK    9  A    between atoms: C_15  and  C_16
REMARK   10  A    between atoms: N_18  and  C_19
REMARK   11  A    between atoms: C_19  and  C_20
REMARK                            x       y       z     vdW  Elec       q    Type
REMARK                         _______ _______ _______ _____ _____    ______ ____
ROOT
ATOM      1  C   UNL     1      -0.267  11.262  20.566  0.00  0.00    +0.000 A 
ATOM      2  C   UNL     1      -0.895  11.578  21.787  0.00  0.00    +0.000 A 
ATOM      3  C   UNL     1      -0.851  10.657  22.849  0.00  0.00    +0.000 A 
ATOM      4  C   UNL     1      -0.215   9.421  22.720  0.00  0.00    +0.000 A 
ATOM      5  C   UNL     1       0.415   9.090  21.525  0.00  0.00    +0.000 A 
ATOM      6  C   UNL     1       1.100   7.793  21.351  0.00  0.00    +0.000 A 
ATOM      7  C   UNL     1       1.715   7.471  20.200  0.00  0.00    +0.000 A 
ATOM      8  C   UNL     1       1.736   8.470  19.104  0.00  0.00    +0.000 A 
ATOM      9  O   UNL     1       2.263   8.261  18.012  0.00  0.00    +0.000 OA
ATOM     10  N   UNL     1       1.165   9.675  19.340  0.00  0.00    +0.000 N 
ATOM     11  C   UNL     1       0.419  10.024  20.470  0.00  0.00    +0.000 A 
ATOM     12  H   UNL     1       1.346  10.327  18.604  0.00  0.00    +0.000 HD
ENDROOT
BRANCH   7  13
ATOM     13  C   UNL     1       2.410   6.153  20.059  0.00  0.00    +0.000 C 
ATOM     14  O   UNL     1       1.831   5.094  20.288  0.00  0.00    +0.000 OA
ATOM     15  N   UNL     1       3.724   6.227  19.681  0.00  0.00    +0.000 N 
ATOM     16  H   UNL     1       4.134   7.138  19.494  0.00  0.00    +0.000 HD
BRANCH  15  17
ATOM     17  C   UNL     1       4.594   5.083  19.571  0.00  0.00    +0.000 C 
BRANCH  17  18
ATOM     18  C   UNL     1       4.962   4.828  18.134  0.00  0.00    +0.000 A 
ATOM     19  C   UNL     1       4.186   3.929  17.367  0.00  0.00    +0.000 A 
ATOM     20  C   UNL     1       4.508   3.653  16.035  0.00  0.00    +0.000 A 
ATOM     21  C   UNL     1       5.601   4.293  15.495  0.00  0.00    +0.000 A 
ATOM     22  C   UNL     1       6.351   5.187  16.224  0.00  0.00    +0.000 A 
ATOM     23  C   UNL     1       6.053   5.484  17.538  0.00  0.00    +0.000 A 
ATOM     24  O   UNL     1       7.382   5.704  15.503  0.00  0.00    +0.000 OA
ATOM     25  C   UNL     1       7.230   4.987  14.260  0.00  0.00    +0.000 C 
ATOM     26  O   UNL     1       6.069   4.133  14.228  0.00  0.00    +0.000 OA
ENDBRANCH  17  18
ENDBRANCH  15  17
ENDBRANCH   7  13
BRANCH   2  27
ATOM     27  O   UNL     1      -1.593  12.709  22.131  0.00  0.00    +0.000 OA
ATOM     28  C   UNL     1      -0.933  13.756  22.823  0.00  0.00    +0.000 C 
ENDBRANCH   2  27
BRANCH   1  29
ATOM     29  O   UNL     1      -0.326  12.199  19.559  0.00  0.00    +0.000 OA
BRANCH  29  30
ATOM     30  C   UNL     1      -1.505  12.246  18.760  0.00  0.00    +0.000 C 
BRANCH  30  31
ATOM     31  C   UNL     1      -1.649  11.009  17.892  0.00  0.00    +0.000 C 
BRANCH  31  32
ATOM     32  C   UNL     1      -3.093  10.931  17.388  0.00  0.00    +0.000 C 
BRANCH  32  34
ATOM     33  C   UNL     1      -2.961  10.375  14.948  0.00  0.00    +0.000 C 
ATOM     34  C   UNL     1      -3.258   9.842  16.339  0.00  0.00    +0.000 C 
ENDBRANCH  32  34
ENDBRANCH  31  32
ENDBRANCH  30  31
ENDBRANCH  29  30
ENDBRANCH   1  29
TORSDOF 9
ENDMDL
MODEL 6
REMARK VINA RESULT:      -8.0      0.781      1.318
REMARK  Name = 
REMARK  11 active torsions:
REMARK  status: ('A' for Active; 'I' for Inactive)
REMARK    1  A    between atoms: C_1  and  C_2
REMARK    2  A    between atoms: C_2  and  C_3
REMARK    3  A    between atoms: C_3  and  C_4
REMARK    4  A    between atoms: C_4  and  C_5
REMARK    5  A    between atoms: C_5  and  O_6
REMARK    6  A    between atoms: O_6  and  C_7
REMARK    7  A    between atoms: C_8  and  O_9
REMARK    8  A    between atoms: O_9  and  C_10
REMARK    9  A    between atoms: C_15  and  C_16
REMARK   10  A    between atoms: N_18  and  C_19
REMARK   11  A    between atoms: C_19  and  C_20
REMARK                            x       y       z     vdW  Elec       q    Type
REMARK                         _______ _______ _______ _____ _____    ______ ____
ROOT
ATOM      1  C   UNL     1       3.602   5.183  18.057  0.00  0.00    +0.000 A 
ATOM      2  C   UNL     1       3.670   4.009  18.831  0.00  0.00    +0.000 A 
ATOM      3  C   UNL     1       3.058   3.976  20.096  0.00  0.00    +0.000 A 
ATOM      4  C   UNL     1       2.398   5.089  20.620  0.00  0.00    +0.000 A 
ATOM      5  C   UNL     1       2.315   6.258  19.871  0.00  0.00    +0.000 A 
ATOM      6  C   UNL     1       1.624   7.456  20.390  0.00  0.00    +0.000 A 
ATOM      7  C   UNL     1       1.536   8.586  19.667  0.00  0.00    +0.000 A 
ATOM      8  C   UNL     1       2.114   8.600  18.301  0.00  0.00    +0.000 A 
ATOM      9  O   UNL     1       2.094   9.591  17.572  0.00  0.00    +0.000 OA
ATOM     10  N   UNL     1       2.667   7.453  17.839  0.00  0.00    +0.000 N 
ATOM     11  C   UNL     1       2.883   6.288  18.582  0.00  0.00    +0.000 A 
ATOM     12  H   UNL     1       2.903   7.514  16.870  0.00  0.00    +0.000 HD
ENDROOT
BRANCH   7  13
ATOM     13  C   UNL     1       0.820   9.779  20.216  0.00  0.00    +0.000 C 
ATOM     14  O   UNL     1       0.152   9.710  21.245  0.00  0.00    +0.000 OA
ATOM     15  N   UNL     1       0.950  10.926  19.479  0.00  0.00    +0.000 N 
ATOM     16  H   UNL     1       1.532  10.912  18.645  0.00  0.00    +0.000 HD
BRANCH  15  17
ATOM     17  C   UNL     1       0.273  12.160  19.785  0.00  0.00    +0.000 C 
BRANCH  17  18
ATOM     18  C   UNL     1      -1.174  12.090  19.378  0.00  0.00    +0.000 A 
ATOM     19  C   UNL     1      -2.176  12.467  20.302  0.00  0.00    +0.000 A 
ATOM     20  C   UNL     1      -3.530  12.399  19.965  0.00  0.00    +0.000 A 
ATOM     21  C   UNL     1      -3.854  11.958  18.701  0.00  0.00    +0.000 A 
ATOM     22  C   UNL     1      -2.889  11.611  17.785  0.00  0.00    +0.000 A 
ATOM     23  C   UNL     1      -1.544  11.675  18.086  0.00  0.00    +0.000 A 
ATOM     24  O   UNL     1      -3.423  11.205  16.601  0.00  0.00    +0.000 OA
ATOM     25  C   UNL     1      -4.833  11.281  16.901  0.00  0.00    +0.000 C 
ATOM     26  O   UNL     1      -5.114  11.812  18.211  0.00  0.00    +0.000 OA
ENDBRANCH  17  18
ENDBRANCH  15  17
ENDBRANCH   7  13
BRANCH   2  27
ATOM     27  O   UNL     1       4.280   2.815  18.536  0.00  0.00    +0.000 OA
ATOM     28  C   UNL     1       3.485   1.677  18.240  0.00  0.00    +0.000 C 
ENDBRANCH   2  27
BRANCH   1  29
ATOM     29  O   UNL     1       4.206   5.166  16.819  0.00  0.00    +0.000 OA
BRANCH  29  30
ATOM     30  C   UNL     1       5.615   5.369  16.761  0.00  0.00    +0.000 C 
BRANCH  30  31
ATOM     31  C   UNL     1       6.298   4.341  15.878  0.00  0.00    +0.000 C 
BRANCH  31  32
ATOM     32  C   UNL     1       5.554   4.273  14.541  0.00  0.00    +0.000 C 
BRANCH  32  34
ATOM     33  C   UNL     1       5.753   3.254  12.261  0.00  0.00    +0.000 C 
ATOM     34  C   UNL     1       6.496   3.937  13.396  0.00  0.00    +0.000 C 
ENDBRANCH  32  34
ENDBRANCH  31  32
ENDBRANCH  30  31
ENDBRANCH  29  30
ENDBRANCH   1  29
TORSDOF 9
ENDMDL
MODEL 7
REMARK VINA RESULT:      -8.0      1.450      3.703
REMARK  Name = 
REMARK  11 active torsions:
REMARK  status: ('A' for Active; 'I' for Inactive)
REMARK    1  A    between atoms: C_1  and  C_2
REMARK    2  A    between atoms: C_2  and  C_3
REMARK    3  A    between atoms: C_3  and  C_4
REMARK    4  A    between atoms: C_4  and  C_5
REMARK    5  A    between atoms: C_5  and  O_6
REMARK    6  A    between atoms: O_6  and  C_7
REMARK    7  A    between atoms: C_8  and  O_9
REMARK    8  A    between atoms: O_9  and  C_10
REMARK    9  A    between atoms: C_15  and  C_16
REMARK   10  A    between atoms: N_18  and  C_19
REMARK   11  A    between atoms: C_19  and  C_20
REMARK                            x       y       z     vdW  Elec       q    Type
REMARK                         _______ _______ _______ _____ _____    ______ ____
ROOT
ATOM      1  C   UNL     1       4.199   4.512  17.585  0.00  0.00    +0.000 A 
ATOM      2  C   UNL     1       5.046   4.660  16.469  0.00  0.00    +0.000 A 
ATOM      3  C   UNL     1       5.204   5.928  15.882  0.00  0.00    +0.000 A 
ATOM      4  C   UNL     1       4.526   7.049  16.366  0.00  0.00    +0.000 A 
ATOM      5  C   UNL     1       3.689   6.926  17.469  0.00  0.00    +0.000 A 
ATOM      6  C   UNL     1       2.956   8.089  18.011  0.00  0.00    +0.000 A 
ATOM      7  C   UNL     1       2.150   7.977  19.080  0.00  0.00    +0.000 A 
ATOM      8  C   UNL     1       2.039   6.657  19.748  0.00  0.00    +0.000 A 
ATOM      9  O   UNL     1       1.317   6.455  20.724  0.00  0.00    +0.000 OA
ATOM     10  N   UNL     1       2.792   5.641  19.264  0.00  0.00    +0.000 N 
ATOM     11  C   UNL     1       3.558   5.671  18.095  0.00  0.00    +0.000 A 
ATOM     12  H   UNL     1       2.759   4.835  19.854  0.00  0.00    +0.000 HD
ENDROOT
BRANCH   7  13
ATOM     13  C   UNL     1       1.430   9.176  19.612  0.00  0.00    +0.000 C 
ATOM     14  O   UNL     1       1.178   9.296  20.808  0.00  0.00    +0.000 OA
ATOM     15  N   UNL     1       1.064  10.099  18.668  0.00  0.00    +0.000 N 
ATOM     16  H   UNL     1       1.319   9.940  17.698  0.00  0.00    +0.000 HD
BRANCH  15  17
ATOM     17  C   UNL     1       0.290  11.279  18.957  0.00  0.00    +0.000 C 
BRANCH  17  18
ATOM     18  C   UNL     1      -1.146  11.091  18.543  0.00  0.00    +0.000 A 
ATOM     19  C   UNL     1      -1.473  10.088  17.602  0.00  0.00    +0.000 A 
ATOM     20  C   UNL     1      -2.791   9.896  17.182  0.00  0.00    +0.000 A 
ATOM     21  C   UNL     1      -3.760  10.713  17.721  0.00  0.00    +0.000 A 
ATOM     22  C   UNL     1      -3.459  11.677  18.654  0.00  0.00    +0.000 A 
ATOM     23  C   UNL     1      -2.168  11.885  19.094  0.00  0.00    +0.000 A 
ATOM     24  O   UNL     1      -4.559  12.369  19.056  0.00  0.00    +0.000 OA
ATOM     25  C   UNL     1      -5.574  11.770  18.223  0.00  0.00    +0.000 C 
ATOM     26  O   UNL     1      -5.085  10.680  17.416  0.00  0.00    +0.000 OA
ENDBRANCH  17  18
ENDBRANCH  15  17
ENDBRANCH   7  13
BRANCH   2  27
ATOM     27  O   UNL     1       5.784   3.706  15.814  0.00  0.00    +0.000 OA
ATOM     28  C   UNL     1       6.554   4.074  14.681  0.00  0.00    +0.000 C 
ENDBRANCH   2  27
BRANCH   1  29
ATOM     29  O   UNL     1       4.082   3.254  18.133  0.00  0.00    +0.000 OA
BRANCH  29  30
ATOM     30  C   UNL     1       4.479   3.079  19.490  0.00  0.00    +0.000 C 
BRANCH  30  31
ATOM     31  C   UNL     1       3.530   2.164  20.243  0.00  0.00    +0.000 C 
BRANCH  31  32
ATOM     32  C   UNL     1       2.777   2.993  21.287  0.00  0.00    +0.000 C 
BRANCH  32  34
ATOM     33  C   UNL     1       0.869   2.825  19.673  0.00  0.00    +0.000 C 
ATOM     34  C   UNL     1       1.271   2.843  21.137  0.00  0.00    +0.000 C 
ENDBRANCH  32  34
ENDBRANCH  31  32
ENDBRANCH  30  31
ENDBRANCH  29  30
ENDBRANCH   1  29
TORSDOF 9
ENDMDL
MODEL 8
REMARK VINA RESULT:      -7.9      2.550      4.155
REMARK  Name = 
REMARK  11 active torsions:
REMARK  status: ('A' for Active; 'I' for Inactive)
REMARK    1  A    between atoms: C_1  and  C_2
REMARK    2  A    between atoms: C_2  and  C_3
REMARK    3  A    between atoms: C_3  and  C_4
REMARK    4  A    between atoms: C_4  and  C_5
REMARK    5  A    between atoms: C_5  and  O_6
REMARK    6  A    between atoms: O_6  and  C_7
REMARK    7  A    between atoms: C_8  and  O_9
REMARK    8  A    between atoms: O_9  and  C_10
REMARK    9  A    between atoms: C_15  and  C_16
REMARK   10  A    between atoms: N_18  and  C_19
REMARK   11  A    between atoms: C_19  and  C_20
REMARK                            x       y       z     vdW  Elec       q    Type
REMARK                         _______ _______ _______ _____ _____    ______ ____
ROOT
ATOM      1  C   UNL     1       2.738   6.061  19.794  0.00  0.00    +0.000 A 
ATOM      2  C   UNL     1       3.544   5.797  18.669  0.00  0.00    +0.000 A 
ATOM      3  C   UNL     1       3.650   6.761  17.651  0.00  0.00    +0.000 A 
ATOM      4  C   UNL     1       2.959   7.973  17.714  0.00  0.00    +0.000 A 
ATOM      5  C   UNL     1       2.162   8.255  18.818  0.00  0.00    +0.000 A 
ATOM      6  C   UNL     1       1.417   9.527  18.922  0.00  0.00    +0.000 A 
ATOM      7  C   UNL     1       0.650   9.807  19.990  0.00  0.00    +0.000 A 
ATOM      8  C   UNL     1       0.595   8.826  21.101  0.00  0.00    +0.000 A 
ATOM      9  O   UNL     1      -0.089   8.989  22.111  0.00  0.00    +0.000 OA
ATOM     10  N   UNL     1       1.358   7.712  20.995  0.00  0.00    +0.000 N 
ATOM     11  C   UNL     1       2.084   7.318  19.867  0.00  0.00    +0.000 A 
ATOM     12  H   UNL     1       1.366   7.180  21.841  0.00  0.00    +0.000 HD
ENDROOT
BRANCH   7  13
ATOM     13  C   UNL     1      -0.083  11.109  20.071  0.00  0.00    +0.000 C 
ATOM     14  O   UNL     1      -0.639  11.595  19.089  0.00  0.00    +0.000 OA
ATOM     15  N   UNL     1      -0.064  11.711  21.301  0.00  0.00    +0.000 N 
ATOM     16  H   UNL     1       0.403  11.243  22.072  0.00  0.00    +0.000 HD
BRANCH  15  17
ATOM     17  C   UNL     1      -0.635  13.006  21.571  0.00  0.00    +0.000 C 
BRANCH  17  18
ATOM     18  C   UNL     1      -2.067  12.877  22.017  0.00  0.00    +0.000 A 
ATOM     19  C   UNL     1      -2.353  12.650  23.383  0.00  0.00    +0.000 A 
ATOM     20  C   UNL     1      -3.669  12.508  23.830  0.00  0.00    +0.000 A 
ATOM     21  C   UNL     1      -4.676  12.601  22.896  0.00  0.00    +0.000 A 
ATOM     22  C   UNL     1      -4.414  12.844  21.568  0.00  0.00    +0.000 A 
ATOM     23  C   UNL     1      -3.125  12.996  21.098  0.00  0.00    +0.000 A 
ATOM     24  O   UNL     1      -5.547  12.900  20.819  0.00  0.00    +0.000 OA
ATOM     25  C   UNL     1      -6.546  12.604  21.818  0.00  0.00    +0.000 C 
ATOM     26  O   UNL     1      -6.006  12.471  23.148  0.00  0.00    +0.000 OA
ENDBRANCH  17  18
ENDBRANCH  15  17
ENDBRANCH   7  13
BRANCH   2  27
ATOM     27  O   UNL     1       4.285   4.678  18.382  0.00  0.00    +0.000 OA
ATOM     28  C   UNL     1       5.437   4.794  17.562  0.00  0.00    +0.000 C 
ENDBRANCH   2  27
BRANCH   1  29
ATOM     29  O   UNL     1       2.673   5.092  20.771  0.00  0.00    +0.000 OA
BRANCH  29  30
ATOM     30  C   UNL     1       1.539   4.229  20.780  0.00  0.00    +0.000 C 
BRANCH  30  31
ATOM     31  C   UNL     1       1.886   2.836  20.288  0.00  0.00    +0.000 C 
BRANCH  31  32
ATOM     32  C   UNL     1       1.195   2.609  18.940  0.00  0.00    +0.000 C 
BRANCH  32  34
ATOM     33  C   UNL     1       3.392   1.485  18.500  0.00  0.00    +0.000 C 
ATOM     34  C   UNL     1       2.186   2.165  17.875  0.00  0.00    +0.000 C 
ENDBRANCH  32  34
ENDBRANCH  31  32
ENDBRANCH  30  31
ENDBRANCH  29  30
ENDBRANCH   1  29
TORSDOF 9
ENDMDL
MODEL 9
REMARK VINA RESULT:      -7.9      3.000      5.202
REMARK  Name = 
REMARK  11 active torsions:
REMARK  status: ('A' for Active; 'I' for Inactive)
REMARK    1  A    between atoms: C_1  and  C_2
REMARK    2  A    between atoms: C_2  and  C_3
REMARK    3  A    between atoms: C_3  and  C_4
REMARK    4  A    between atoms: C_4  and  C_5
REMARK    5  A    between atoms: C_5  and  O_6
REMARK    6  A    between atoms: O_6  and  C_7
REMARK    7  A    between atoms: C_8  and  O_9
REMARK    8  A    between atoms: O_9  and  C_10
REMARK    9  A    between atoms: C_15  and  C_16
REMARK   10  A    between atoms: N_18  and  C_19
REMARK   11  A    between atoms: C_19  and  C_20
REMARK                            x       y       z     vdW  Elec       q    Type
REMARK                         _______ _______ _______ _____ _____    ______ ____
ROOT
ATOM      1  C   UNL     1       4.391   4.639  17.861  0.00  0.00    +0.000 A 
ATOM      2  C   UNL     1       5.181   4.745  16.700  0.00  0.00    +0.000 A 
ATOM      3  C   UNL     1       5.202   5.955  15.983  0.00  0.00    +0.000 A 
ATOM      4  C   UNL     1       4.441   7.056  16.382  0.00  0.00    +0.000 A 
ATOM      5  C   UNL     1       3.658   6.974  17.528  0.00  0.00    +0.000 A 
ATOM      6  C   UNL     1       2.841   8.118  17.983  0.00  0.00    +0.000 A 
ATOM      7  C   UNL     1       2.086   8.046  19.093  0.00  0.00    +0.000 A 
ATOM      8  C   UNL     1       2.120   6.797  19.894  0.00  0.00    +0.000 A 
ATOM      9  O   UNL     1       1.455   6.634  20.916  0.00  0.00    +0.000 OA
ATOM     10  N   UNL     1       2.946   5.807  19.480  0.00  0.00    +0.000 N 
ATOM     11  C   UNL     1       3.665   5.783  18.281  0.00  0.00    +0.000 A 
ATOM     12  H   UNL     1       3.008   5.066  20.148  0.00  0.00    +0.000 HD
ENDROOT
BRANCH   7  13
ATOM     13  C   UNL     1       1.278   9.225  19.534  0.00  0.00    +0.000 C 
ATOM     14  O   UNL     1       0.943   9.372  20.706  0.00  0.00    +0.000 OA
ATOM     15  N   UNL     1       0.932  10.098  18.536  0.00  0.00    +0.000 N 
ATOM     16  H   UNL     1       1.257   9.920  17.590  0.00  0.00    +0.000 HD
BRANCH  15  17
ATOM     17  C   UNL     1       0.086  11.248  18.732  0.00  0.00    +0.000 C 
BRANCH  17  18
ATOM     18  C   UNL     1       0.892  12.518  18.681  0.00  0.00    +0.000 A 
ATOM     19  C   UNL     1       2.265  12.459  18.348  0.00  0.00    +0.000 A 
ATOM     20  C   UNL     1       3.048  13.615  18.308  0.00  0.00    +0.000 A 
ATOM     21  C   UNL     1       2.435  14.814  18.598  0.00  0.00    +0.000 A 
ATOM     22  C   UNL     1       1.096  14.889  18.900  0.00  0.00    +0.000 A 
ATOM     23  C   UNL     1       0.296  13.765  18.941  0.00  0.00    +0.000 A 
ATOM     24  O   UNL     1       0.693  16.163  19.152  0.00  0.00    +0.000 OA
ATOM     25  C   UNL     1       1.946  16.871  19.032  0.00  0.00    +0.000 C 
ATOM     26  O   UNL     1       3.044  16.030  18.624  0.00  0.00    +0.000 OA
ENDBRANCH  17  18
ENDBRANCH  15  17
ENDBRANCH   7  13
BRANCH   2  27
ATOM     27  O   UNL     1       5.981   3.798  16.111  0.00  0.00    +0.000 OA
ATOM     28  C   UNL     1       6.345   3.939  14.747  0.00  0.00    +0.000 C 
ENDBRANCH   2  27
BRANCH   1  29
ATOM     29  O   UNL     1       4.410   3.439  18.537  0.00  0.00    +0.000 OA
BRANCH  29  30
ATOM     30  C   UNL     1       3.606   2.377  18.032  0.00  0.00    +0.000 C 
BRANCH  30  31
ATOM     31  C   UNL     1       2.171   2.814  17.804  0.00  0.00    +0.000 C 
BRANCH  31  32
ATOM     32  C   UNL     1       1.282   2.139  18.852  0.00  0.00    +0.000 C 
BRANCH  32  34
ATOM     33  C   UNL     1       1.474   2.956  21.213  0.00  0.00    +0.000 C 
ATOM     34  C   UNL     1       0.774   3.140  19.878  0.00  0.00    +0.000 C 
ENDBRANCH  32  34
ENDBRANCH  31  32
ENDBRANCH  30  31
ENDBRANCH  29  30
ENDBRANCH   1  29
TORSDOF 9
ENDMDL
