MODEL 1
REMARK VINA RESULT:      -6.8      0.000      0.000
REMARK  Name = 
REMARK  9 active torsions:
REMARK  status: ('A' for Active; 'I' for Inactive)
REMARK    1  A    between atoms: C_1  and  C_2
REMARK    2  A    between atoms: C_4  and  C_5
REMARK    3  A    between atoms: C_5  and  C_6
REMARK    4  A    between atoms: N_8  and  N_9
REMARK    5  A    between atoms: C_10  and  C_11
REMARK    6  A    between atoms: C_14  and  O_15
REMARK    7  A    between atoms: O_15  and  C_16
REMARK    8  A    between atoms: C_16  and  C_17
REMARK    9  A    between atoms: C_17  and  O_19
REMARK                            x       y       z     vdW  Elec       q    Type
REMARK                         _______ _______ _______ _____ _____    ______ ____
ROOT
ATOM      1  N   UNL     1       2.277   4.736  19.466  0.00  0.00    +0.000 NA
ATOM      2  C   UNL     1       2.802   5.782  20.011  0.00  0.00    +0.000 C 
ENDROOT
BRANCH   2   3
ATOM      3  C   UNL     1       2.210   7.100  19.702  0.00  0.00    +0.000 A 
ATOM      4  C   UNL     1       2.351   7.631  18.414  0.00  0.00    +0.000 A 
ATOM      5  C   UNL     1       1.808   8.876  18.108  0.00  0.00    +0.000 A 
ATOM      6  C   UNL     1       1.106   9.592  19.076  0.00  0.00    +0.000 A 
ATOM      7  C   UNL     1       0.963   9.061  20.362  0.00  0.00    +0.000 A 
ATOM      8  C   UNL     1       1.516   7.812  20.679  0.00  0.00    +0.000 A 
BRANCH   6   9
ATOM      9  O   UNL     1       0.656  10.815  18.665  0.00  0.00    +0.000 OA
BRANCH   9  10
ATOM     10  C   UNL     1      -0.708  11.108  18.975  0.00  0.00    +0.000 C 
BRANCH  10  11
ATOM     11  C   UNL     1      -0.975  12.564  18.627  0.00  0.00    +0.000 C 
ATOM     12  O   UNL     1      -1.027  13.462  19.455  0.00  0.00    +0.000 OA
BRANCH  11  13
ATOM     13  O   UNL     1      -1.137  12.784  17.300  0.00  0.00    +0.000 OA
ATOM     14  H   UNL     1      -1.838  13.458  17.159  0.00  0.00    +0.000 HD
ENDBRANCH  11  13
ENDBRANCH  10  11
ENDBRANCH   9  10
ENDBRANCH   6   9
ENDBRANCH   2   3
BRANCH   1  17
ATOM     15  C   UNL     1       3.341   2.749  18.757  0.00  0.00    +0.000 C 
ATOM     16  O   UNL     1       3.767   1.622  19.008  0.00  0.00    +0.000 OA
ATOM     17  N   UNL     1       2.785   3.523  19.757  0.00  0.00    +0.000 N 
ATOM     18  H   UNL     1       2.733   3.128  20.690  0.00  0.00    +0.000 HD
BRANCH  15  19
ATOM     19  C   UNL     1       3.399   3.371  17.368  0.00  0.00    +0.000 C 
BRANCH  19  23
ATOM     20  C   UNL     1       7.719   5.477  18.517  0.00  0.00    +0.000 C 
ATOM     21  C   UNL     1       6.641   4.926  17.651  0.00  0.00    +0.000 A 
ATOM     22  N   UNL     1       5.530   4.392  18.103  0.00  0.00    +0.000 NA
ATOM     23  C   UNL     1       4.734   3.967  17.047  0.00  0.00    +0.000 A 
ATOM     24  C   UNL     1       5.266   4.230  15.797  0.00  0.00    +0.000 A 
ATOM     25  S   UNL     1       6.797   4.982  15.944  0.00  0.00    +0.000 S 
ENDBRANCH  19  23
ENDBRANCH  15  19
ENDBRANCH   1  17
TORSDOF 8
ENDMDL
MODEL 2
REMARK VINA RESULT:      -6.8      0.367      1.072
REMARK  Name = 
REMARK  9 active torsions:
REMARK  status: ('A' for Active; 'I' for Inactive)
REMARK    1  A    between atoms: C_1  and  C_2
REMARK    2  A    between atoms: C_4  and  C_5
REMARK    3  A    between atoms: C_5  and  C_6
REMARK    4  A    between atoms: N_8  and  N_9
REMARK    5  A    between atoms: C_10  and  C_11
REMARK    6  A    between atoms: C_14  and  O_15
REMARK    7  A    between atoms: O_15  and  C_16
REMARK    8  A    between atoms: C_16  and  C_17
REMARK    9  A    between atoms: C_17  and  O_19
REMARK                            x       y       z     vdW  Elec       q    Type
REMARK                         _______ _______ _______ _____ _____    ______ ____
ROOT
ATOM      1  N   UNL     1       2.237   4.985  19.292  0.00  0.00    +0.000 NA
ATOM      2  C   UNL     1       2.704   6.033  19.882  0.00  0.00    +0.000 C 
ENDROOT
BRANCH   2   3
ATOM      3  C   UNL     1       2.198   7.356  19.458  0.00  0.00    +0.000 A 
ATOM      4  C   UNL     1       1.470   8.134  20.366  0.00  0.00    +0.000 A 
ATOM      5  C   UNL     1       0.976   9.379  19.982  0.00  0.00    +0.000 A 
ATOM      6  C   UNL     1       1.220   9.862  18.698  0.00  0.00    +0.000 A 
ATOM      7  C   UNL     1       1.949   9.086  17.791  0.00  0.00    +0.000 A 
ATOM      8  C   UNL     1       2.441   7.828  18.170  0.00  0.00    +0.000 A 
BRANCH   6   9
ATOM      9  O   UNL     1       0.652  11.076  18.430  0.00  0.00    +0.000 OA
BRANCH   9  10
ATOM     10  C   UNL     1      -0.180  11.611  19.462  0.00  0.00    +0.000 C 
BRANCH  10  11
ATOM     11  C   UNL     1      -0.838  12.877  18.938  0.00  0.00    +0.000 C 
ATOM     12  O   UNL     1      -1.201  13.800  19.652  0.00  0.00    +0.000 OA
BRANCH  11  13
ATOM     13  O   UNL     1      -0.974  12.899  17.589  0.00  0.00    +0.000 OA
ATOM     14  H   UNL     1      -1.844  13.288  17.350  0.00  0.00    +0.000 HD
ENDBRANCH  11  13
ENDBRANCH  10  11
ENDBRANCH   9  10
ENDBRANCH   6   9
ENDBRANCH   2   3
BRANCH   1  17
ATOM     15  C   UNL     1       3.251   2.917  18.768  0.00  0.00    +0.000 C 
ATOM     16  O   UNL     1       3.604   1.788  19.108  0.00  0.00    +0.000 OA
ATOM     17  N   UNL     1       2.665   3.770  19.683  0.00  0.00    +0.000 N 
ATOM     18  H   UNL     1       2.529   3.431  20.630  0.00  0.00    +0.000 HD
BRANCH  15  19
ATOM     19  C   UNL     1       3.434   3.455  17.356  0.00  0.00    +0.000 C 
BRANCH  19  23
ATOM     20  C   UNL     1       7.727   5.518  18.674  0.00  0.00    +0.000 C 
ATOM     21  C   UNL     1       6.704   4.919  17.773  0.00  0.00    +0.000 A 
ATOM     22  N   UNL     1       5.537   4.472  18.174  0.00  0.00    +0.000 NA
ATOM     23  C   UNL     1       4.817   3.969  17.098  0.00  0.00    +0.000 A 
ATOM     24  C   UNL     1       5.465   4.084  15.881  0.00  0.00    +0.000 A 
ATOM     25  S   UNL     1       7.008   4.795  16.090  0.00  0.00    +0.000 S 
ENDBRANCH  19  23
ENDBRANCH  15  19
ENDBRANCH   1  17
TORSDOF 8
ENDMDL
MODEL 3
REMARK VINA RESULT:      -6.8      1.051      1.738
REMARK  Name = 
REMARK  9 active torsions:
REMARK  status: ('A' for Active; 'I' for Inactive)
REMARK    1  A    between atoms: C_1  and  C_2
REMARK    2  A    between atoms: C_4  and  C_5
REMARK    3  A    between atoms: C_5  and  C_6
REMARK    4  A    between atoms: N_8  and  N_9
REMARK    5  A    between atoms: C_10  and  C_11
REMARK    6  A    between atoms: C_14  and  O_15
REMARK    7  A    between atoms: O_15  and  C_16
REMARK    8  A    between atoms: C_16  and  C_17
REMARK    9  A    between atoms: C_17  and  O_19
REMARK                            x       y       z     vdW  Elec       q    Type
REMARK                         _______ _______ _______ _____ _____    ______ ____
ROOT
ATOM      1  N   UNL     1       2.157   5.067  19.188  0.00  0.00    +0.000 NA
ATOM      2  C   UNL     1       2.576   6.075  19.877  0.00  0.00    +0.000 C 
ENDROOT
BRANCH   2   3
ATOM      3  C   UNL     1       2.102   7.423  19.499  0.00  0.00    +0.000 A 
ATOM      4  C   UNL     1       1.431   8.204  20.447  0.00  0.00    +0.000 A 
ATOM      5  C   UNL     1       0.968   9.473  20.107  0.00  0.00    +0.000 A 
ATOM      6  C   UNL     1       1.186   9.977  18.826  0.00  0.00    +0.000 A 
ATOM      7  C   UNL     1       1.857   9.197  17.879  0.00  0.00    +0.000 A 
ATOM      8  C   UNL     1       2.317   7.915  18.213  0.00  0.00    +0.000 A 
BRANCH   6   9
ATOM      9  O   UNL     1       0.651  11.215  18.604  0.00  0.00    +0.000 OA
BRANCH   9  10
ATOM     10  C   UNL     1      -0.544  11.512  19.331  0.00  0.00    +0.000 C 
BRANCH  10  11
ATOM     11  C   UNL     1      -1.618  11.926  18.338  0.00  0.00    +0.000 C 
ATOM     12  O   UNL     1      -2.795  11.610  18.439  0.00  0.00    +0.000 OA
BRANCH  11  13
ATOM     13  O   UNL     1      -1.152  12.697  17.326  0.00  0.00    +0.000 OA
ATOM     14  H   UNL     1      -1.445  12.326  16.464  0.00  0.00    +0.000 HD
ENDBRANCH  11  13
ENDBRANCH  10  11
ENDBRANCH   9  10
ENDBRANCH   6   9
ENDBRANCH   2   3
BRANCH   1  17
ATOM     15  C   UNL     1       3.113   2.992  18.586  0.00  0.00    +0.000 C 
ATOM     16  O   UNL     1       3.439   1.843  18.884  0.00  0.00    +0.000 OA
ATOM     17  N   UNL     1       2.556   3.828  19.534  0.00  0.00    +0.000 N 
ATOM     18  H   UNL     1       2.418   3.461  20.469  0.00  0.00    +0.000 HD
BRANCH  15  19
ATOM     19  C   UNL     1       3.302   3.574  17.191  0.00  0.00    +0.000 C 
BRANCH  19  23
ATOM     20  C   UNL     1       7.140   4.809  14.334  0.00  0.00    +0.000 C 
ATOM     21  C   UNL     1       6.372   4.583  15.589  0.00  0.00    +0.000 A 
ATOM     22  N   UNL     1       5.124   4.177  15.630  0.00  0.00    +0.000 NA
ATOM     23  C   UNL     1       4.692   4.071  16.945  0.00  0.00    +0.000 A 
ATOM     24  C   UNL     1       5.662   4.373  17.884  0.00  0.00    +0.000 A 
ATOM     25  S   UNL     1       7.119   4.835  17.112  0.00  0.00    +0.000 S 
ENDBRANCH  19  23
ENDBRANCH  15  19
ENDBRANCH   1  17
TORSDOF 8
ENDMDL
MODEL 4
REMARK VINA RESULT:      -6.8      0.848      1.246
REMARK  Name = 
REMARK  9 active torsions:
REMARK  status: ('A' for Active; 'I' for Inactive)
REMARK    1  A    between atoms: C_1  and  C_2
REMARK    2  A    between atoms: C_4  and  C_5
REMARK    3  A    between atoms: C_5  and  C_6
REMARK    4  A    between atoms: N_8  and  N_9
REMARK    5  A    between atoms: C_10  and  C_11
REMARK    6  A    between atoms: C_14  and  O_15
REMARK    7  A    between atoms: O_15  and  C_16
REMARK    8  A    between atoms: C_16  and  C_17
REMARK    9  A    between atoms: C_17  and  O_19
REMARK                            x       y       z     vdW  Elec       q    Type
REMARK                         _______ _______ _______ _____ _____    ______ ____
ROOT
ATOM      1  N   UNL     1       2.136   4.721  19.416  0.00  0.00    +0.000 NA
ATOM      2  C   UNL     1       2.827   5.754  19.765  0.00  0.00    +0.000 C 
ENDROOT
BRANCH   2   3
ATOM      3  C   UNL     1       2.244   7.093  19.536  0.00  0.00    +0.000 A 
ATOM      4  C   UNL     1       2.319   7.664  18.260  0.00  0.00    +0.000 A 
ATOM      5  C   UNL     1       1.784   8.929  18.027  0.00  0.00    +0.000 A 
ATOM      6  C   UNL     1       1.156   9.624  19.059  0.00  0.00    +0.000 A 
ATOM      7  C   UNL     1       1.079   9.053  20.334  0.00  0.00    +0.000 A 
ATOM      8  C   UNL     1       1.624   7.783  20.576  0.00  0.00    +0.000 A 
BRANCH   6   9
ATOM      9  O   UNL     1       0.708  10.868  18.716  0.00  0.00    +0.000 OA
BRANCH   9  10
ATOM     10  C   UNL     1      -0.667  11.132  19.007  0.00  0.00    +0.000 C 
BRANCH  10  11
ATOM     11  C   UNL     1      -0.988  12.547  18.553  0.00  0.00    +0.000 C 
ATOM     12  O   UNL     1      -1.062  13.504  19.310  0.00  0.00    +0.000 OA
BRANCH  11  13
ATOM     13  O   UNL     1      -1.174  12.658  17.215  0.00  0.00    +0.000 OA
ATOM     14  H   UNL     1      -2.006  13.150  17.035  0.00  0.00    +0.000 HD
ENDBRANCH  11  13
ENDBRANCH  10  11
ENDBRANCH   9  10
ENDBRANCH   6   9
ENDBRANCH   2   3
BRANCH   1  17
ATOM     15  C   UNL     1       3.234   2.790  18.613  0.00  0.00    +0.000 C 
ATOM     16  O   UNL     1       3.655   1.648  18.802  0.00  0.00    +0.000 OA
ATOM     17  N   UNL     1       2.638   3.492  19.642  0.00  0.00    +0.000 N 
ATOM     18  H   UNL     1       2.552   3.034  20.543  0.00  0.00    +0.000 HD
BRANCH  15  19
ATOM     19  C   UNL     1       3.342   3.505  17.273  0.00  0.00    +0.000 C 
BRANCH  19  23
ATOM     20  C   UNL     1       7.074   4.817  14.312  0.00  0.00    +0.000 C 
ATOM     21  C   UNL     1       6.350   4.563  15.587  0.00  0.00    +0.000 A 
ATOM     22  N   UNL     1       5.106   4.149  15.662  0.00  0.00    +0.000 NA
ATOM     23  C   UNL     1       4.720   4.016  16.989  0.00  0.00    +0.000 A 
ATOM     24  C   UNL     1       5.719   4.309  17.901  0.00  0.00    +0.000 A 
ATOM     25  S   UNL     1       7.146   4.795  17.089  0.00  0.00    +0.000 S 
ENDBRANCH  19  23
ENDBRANCH  15  19
ENDBRANCH   1  17
TORSDOF 8
ENDMDL
MODEL 5
REMARK VINA RESULT:      -6.6      2.666      3.909
REMARK  Name = 
REMARK  9 active torsions:
REMARK  status: ('A' for Active; 'I' for Inactive)
REMARK    1  A    between atoms: C_1  and  C_2
REMARK    2  A    between atoms: C_4  and  C_5
REMARK    3  A    between atoms: C_5  and  C_6
REMARK    4  A    between atoms: N_8  and  N_9
REMARK    5  A    between atoms: C_10  and  C_11
REMARK    6  A    between atoms: C_14  and  O_15
REMARK    7  A    between atoms: O_15  and  C_16
REMARK    8  A    between atoms: C_16  and  C_17
REMARK    9  A    between atoms: C_17  and  O_19
REMARK                            x       y       z     vdW  Elec       q    Type
REMARK                         _______ _______ _______ _____ _____    ______ ____
ROOT
ATOM      1  N   UNL     1       3.922   6.109  17.427  0.00  0.00    +0.000 NA
ATOM      2  C   UNL     1       3.705   7.378  17.334  0.00  0.00    +0.000 C 
ENDROOT
BRANCH   2   3
ATOM      3  C   UNL     1       2.710   7.983  18.245  0.00  0.00    +0.000 A 
ATOM      4  C   UNL     1       2.055   9.159  17.861  0.00  0.00    +0.000 A 
ATOM      5  C   UNL     1       1.122   9.750  18.709  0.00  0.00    +0.000 A 
ATOM      6  C   UNL     1       0.824   9.163  19.938  0.00  0.00    +0.000 A 
ATOM      7  C   UNL     1       1.477   7.987  20.322  0.00  0.00    +0.000 A 
ATOM      8  C   UNL     1       2.424   7.394  19.475  0.00  0.00    +0.000 A 
BRANCH   6   9
ATOM      9  O   UNL     1      -0.077   9.857  20.695  0.00  0.00    +0.000 OA
BRANCH   9  10
ATOM     10  C   UNL     1      -0.559   9.180  21.859  0.00  0.00    +0.000 C 
BRANCH  10  11
ATOM     11  C   UNL     1      -0.320  10.074  23.065  0.00  0.00    +0.000 C 
ATOM     12  O   UNL     1      -0.460  11.288  23.049  0.00  0.00    +0.000 OA
BRANCH  11  13
ATOM     13  O   UNL     1       0.050   9.395  24.178  0.00  0.00    +0.000 OA
ATOM     14  H   UNL     1      -0.742   9.000  24.605  0.00  0.00    +0.000 HD
ENDBRANCH  11  13
ENDBRANCH  10  11
ENDBRANCH   9  10
ENDBRANCH   6   9
ENDBRANCH   2   3
BRANCH   1  17
ATOM     15  C   UNL     1       5.708   4.592  17.130  0.00  0.00    +0.000 C 
ATOM     16  O   UNL     1       6.583   4.104  16.415  0.00  0.00    +0.000 OA
ATOM     17  N   UNL     1       4.845   5.544  16.625  0.00  0.00    +0.000 N 
ATOM     18  H   UNL     1       4.964   5.830  15.659  0.00  0.00    +0.000 HD
BRANCH  15  19
ATOM     19  C   UNL     1       5.504   4.190  18.585  0.00  0.00    +0.000 C 
BRANCH  19  23
ATOM     20  C   UNL     1       1.391   3.208  21.142  0.00  0.00    +0.000 C 
ATOM     21  C   UNL     1       2.392   3.098  20.046  0.00  0.00    +0.000 A 
ATOM     22  N   UNL     1       3.481   3.827  19.962  0.00  0.00    +0.000 NA
ATOM     23  C   UNL     1       4.201   3.492  18.824  0.00  0.00    +0.000 A 
ATOM     24  C   UNL     1       3.638   2.471  18.079  0.00  0.00    +0.000 A 
ATOM     25  S   UNL     1       2.171   1.950  18.791  0.00  0.00    +0.000 S 
ENDBRANCH  19  23
ENDBRANCH  15  19
ENDBRANCH   1  17
TORSDOF 8
ENDMDL
MODEL 6
REMARK VINA RESULT:      -6.6      3.996      8.912
REMARK  Name = 
REMARK  9 active torsions:
REMARK  status: ('A' for Active; 'I' for Inactive)
REMARK    1  A    between atoms: C_1  and  C_2
REMARK    2  A    between atoms: C_4  and  C_5
REMARK    3  A    between atoms: C_5  and  C_6
REMARK    4  A    between atoms: N_8  and  N_9
REMARK    5  A    between atoms: C_10  and  C_11
REMARK    6  A    between atoms: C_14  and  O_15
REMARK    7  A    between atoms: O_15  and  C_16
REMARK    8  A    between atoms: C_16  and  C_17
REMARK    9  A    between atoms: C_17  and  O_19
REMARK                            x       y       z     vdW  Elec       q    Type
REMARK                         _______ _______ _______ _____ _____    ______ ____
ROOT
ATOM      1  N   UNL     1       1.310   9.425  19.241  0.00  0.00    +0.000 NA
ATOM      2  C   UNL     1       2.074   8.617  18.586  0.00  0.00    +0.000 C 
ENDROOT
BRANCH   2   3
ATOM      3  C   UNL     1       2.058   7.186  18.960  0.00  0.00    +0.000 A 
ATOM      4  C   UNL     1       2.268   6.217  17.972  0.00  0.00    +0.000 A 
ATOM      5  C   UNL     1       2.246   4.865  18.303  0.00  0.00    +0.000 A 
ATOM      6  C   UNL     1       2.033   4.471  19.623  0.00  0.00    +0.000 A 
ATOM      7  C   UNL     1       1.825   5.438  20.611  0.00  0.00    +0.000 A 
ATOM      8  C   UNL     1       1.836   6.802  20.281  0.00  0.00    +0.000 A 
BRANCH   6   9
ATOM      9  O   UNL     1       1.996   3.118  19.813  0.00  0.00    +0.000 OA
BRANCH   9  10
ATOM     10  C   UNL     1       3.119   2.558  20.499  0.00  0.00    +0.000 C 
BRANCH  10  11
ATOM     11  C   UNL     1       4.105   2.045  19.461  0.00  0.00    +0.000 C 
ATOM     12  O   UNL     1       3.827   1.207  18.616  0.00  0.00    +0.000 OA
BRANCH  11  13
ATOM     13  O   UNL     1       5.331   2.617  19.549  0.00  0.00    +0.000 OA
ATOM     14  H   UNL     1       5.235   3.585  19.688  0.00  0.00    +0.000 HD
ENDBRANCH  11  13
ENDBRANCH  10  11
ENDBRANCH   9  10
ENDBRANCH   6   9
ENDBRANCH   2   3
BRANCH   1  17
ATOM     15  C   UNL     1       0.085  11.390  18.773  0.00  0.00    +0.000 C 
ATOM     16  O   UNL     1       0.056  12.568  18.416  0.00  0.00    +0.000 OA
ATOM     17  N   UNL     1       1.290  10.727  18.896  0.00  0.00    +0.000 N 
ATOM     18  H   UNL     1       2.138  11.237  18.674  0.00  0.00    +0.000 HD
BRANCH  15  19
ATOM     19  C   UNL     1      -1.169  10.594  19.110  0.00  0.00    +0.000 C 
BRANCH  19  23
ATOM     20  C   UNL     1      -3.099  10.075  14.591  0.00  0.00    +0.000 C 
ATOM     21  C   UNL     1      -3.028  10.480  16.022  0.00  0.00    +0.000 A 
ATOM     22  N   UNL     1      -2.006  10.239  16.809  0.00  0.00    +0.000 NA
ATOM     23  C   UNL     1      -2.248  10.735  18.083  0.00  0.00    +0.000 A 
ATOM     24  C   UNL     1      -3.464  11.382  18.215  0.00  0.00    +0.000 A 
ATOM     25  S   UNL     1      -4.331  11.336  16.739  0.00  0.00    +0.000 S 
ENDBRANCH  19  23
ENDBRANCH  15  19
ENDBRANCH   1  17
TORSDOF 8
ENDMDL
MODEL 7
REMARK VINA RESULT:      -6.6      3.761      8.289
REMARK  Name = 
REMARK  9 active torsions:
REMARK  status: ('A' for Active; 'I' for Inactive)
REMARK    1  A    between atoms: C_1  and  C_2
REMARK    2  A    between atoms: C_4  and  C_5
REMARK    3  A    between atoms: C_5  and  C_6
REMARK    4  A    between atoms: N_8  and  N_9
REMARK    5  A    between atoms: C_10  and  C_11
REMARK    6  A    between atoms: C_14  and  O_15
REMARK    7  A    between atoms: O_15  and  C_16
REMARK    8  A    between atoms: C_16  and  C_17
REMARK    9  A    between atoms: C_17  and  O_19
REMARK                            x       y       z     vdW  Elec       q    Type
REMARK                         _______ _______ _______ _____ _____    ______ ____
ROOT
ATOM      1  N   UNL     1       1.905   7.263  20.281  0.00  0.00    +0.000 NA
ATOM      2  C   UNL     1       2.067   5.985  20.343  0.00  0.00    +0.000 C 
ENDROOT
BRANCH   2   3
ATOM      3  C   UNL     1       2.873   5.332  19.290  0.00  0.00    +0.000 A 
ATOM      4  C   UNL     1       4.270   5.375  19.370  0.00  0.00    +0.000 A 
ATOM      5  C   UNL     1       5.046   4.774  18.382  0.00  0.00    +0.000 A 
ATOM      6  C   UNL     1       4.435   4.111  17.319  0.00  0.00    +0.000 A 
ATOM      7  C   UNL     1       3.040   4.066  17.240  0.00  0.00    +0.000 A 
ATOM      8  C   UNL     1       2.253   4.678  18.227  0.00  0.00    +0.000 A 
BRANCH   6   9
ATOM      9  O   UNL     1       5.302   3.597  16.396  0.00  0.00    +0.000 OA
BRANCH   9  10
ATOM     10  C   UNL     1       5.627   4.461  15.304  0.00  0.00    +0.000 C 
BRANCH  10  11
ATOM     11  C   UNL     1       7.117   4.759  15.358  0.00  0.00    +0.000 C 
ATOM     12  O   UNL     1       7.835   4.471  16.304  0.00  0.00    +0.000 OA
BRANCH  11  13
ATOM     13  O   UNL     1       7.589   5.366  14.241  0.00  0.00    +0.000 OA
ATOM     14  H   UNL     1       8.334   4.844  13.870  0.00  0.00    +0.000 HD
ENDBRANCH  11  13
ENDBRANCH  10  11
ENDBRANCH   9  10
ENDBRANCH   6   9
ENDBRANCH   2   3
BRANCH   1  17
ATOM     15  C   UNL     1       0.820   9.199  21.090  0.00  0.00    +0.000 C 
ATOM     16  O   UNL     1       0.211   9.783  21.987  0.00  0.00    +0.000 OA
ATOM     17  N   UNL     1       1.197   7.880  21.246  0.00  0.00    +0.000 N 
ATOM     18  H   UNL     1       0.967   7.420  22.121  0.00  0.00    +0.000 HD
BRANCH  15  19
ATOM     19  C   UNL     1       1.186   9.860  19.768  0.00  0.00    +0.000 C 
BRANCH  19  23
ATOM     20  C   UNL     1      -2.553   9.838  16.536  0.00  0.00    +0.000 C 
ATOM     21  C   UNL     1      -1.634  10.373  17.578  0.00  0.00    +0.000 A 
ATOM     22  N   UNL     1      -0.660   9.687  18.129  0.00  0.00    +0.000 NA
ATOM     23  C   UNL     1       0.008  10.463  19.067  0.00  0.00    +0.000 A 
ATOM     24  C   UNL     1      -0.472  11.756  19.175  0.00  0.00    +0.000 A 
ATOM     25  S   UNL     1      -1.799  11.992  18.120  0.00  0.00    +0.000 S 
ENDBRANCH  19  23
ENDBRANCH  15  19
ENDBRANCH   1  17
TORSDOF 8
ENDMDL
MODEL 8
REMARK VINA RESULT:      -6.5      2.613      4.007
REMARK  Name = 
REMARK  9 active torsions:
REMARK  status: ('A' for Active; 'I' for Inactive)
REMARK    1  A    between atoms: C_1  and  C_2
REMARK    2  A    between atoms: C_4  and  C_5
REMARK    3  A    between atoms: C_5  and  C_6
REMARK    4  A    between atoms: N_8  and  N_9
REMARK    5  A    between atoms: C_10  and  C_11
REMARK    6  A    between atoms: C_14  and  O_15
REMARK    7  A    between atoms: O_15  and  C_16
REMARK    8  A    between atoms: C_16  and  C_17
REMARK    9  A    between atoms: C_17  and  O_19
REMARK                            x       y       z     vdW  Elec       q    Type
REMARK                         _______ _______ _______ _____ _____    ______ ____
ROOT
ATOM      1  N   UNL     1       3.914   6.090  17.704  0.00  0.00    +0.000 NA
ATOM      2  C   UNL     1       3.607   7.310  17.415  0.00  0.00    +0.000 C 
ENDROOT
BRANCH   2   3
ATOM      3  C   UNL     1       2.609   7.997  18.261  0.00  0.00    +0.000 A 
ATOM      4  C   UNL     1       2.295   7.468  19.518  0.00  0.00    +0.000 A 
ATOM      5  C   UNL     1       1.350   8.096  20.326  0.00  0.00    +0.000 A 
ATOM      6  C   UNL     1       0.726   9.265  19.893  0.00  0.00    +0.000 A 
ATOM      7  C   UNL     1       1.041   9.795  18.638  0.00  0.00    +0.000 A 
ATOM      8  C   UNL     1       1.985   9.161  17.817  0.00  0.00    +0.000 A 
BRANCH   6   9
ATOM      9  O   UNL     1      -0.208   9.764  20.757  0.00  0.00    +0.000 OA
BRANCH   9  10
ATOM     10  C   UNL     1      -0.459   8.973  21.921  0.00  0.00    +0.000 C 
BRANCH  10  11
ATOM     11  C   UNL     1      -0.143   9.814  23.148  0.00  0.00    +0.000 C 
ATOM     12  O   UNL     1       0.848   9.653  23.845  0.00  0.00    +0.000 OA
BRANCH  11  13
ATOM     13  O   UNL     1      -1.062  10.780  23.394  0.00  0.00    +0.000 OA
ATOM     14  H   UNL     1      -1.238  10.832  24.359  0.00  0.00    +0.000 HD
ENDBRANCH  11  13
ENDBRANCH  10  11
ENDBRANCH   9  10
ENDBRANCH   6   9
ENDBRANCH   2   3
BRANCH   1  17
ATOM     15  C   UNL     1       4.657   4.134  16.608  0.00  0.00    +0.000 C 
ATOM     16  O   UNL     1       5.521   3.535  15.968  0.00  0.00    +0.000 OA
ATOM     17  N   UNL     1       4.841   5.456  16.961  0.00  0.00    +0.000 N 
ATOM     18  H   UNL     1       5.708   5.906  16.686  0.00  0.00    +0.000 HD
BRANCH  15  19
ATOM     19  C   UNL     1       3.347   3.489  17.041  0.00  0.00    +0.000 C 
BRANCH  19  23
ATOM     20  C   UNL     1       1.340   2.757  21.497  0.00  0.00    +0.000 C 
ATOM     21  C   UNL     1       2.388   2.756  20.440  0.00  0.00    +0.000 A 
ATOM     22  N   UNL     1       2.196   3.163  19.207  0.00  0.00    +0.000 NA
ATOM     23  C   UNL     1       3.362   3.029  18.466  0.00  0.00    +0.000 A 
ATOM     24  C   UNL     1       4.438   2.545  19.189  0.00  0.00    +0.000 A 
ATOM     25  S   UNL     1       3.975   2.216  20.804  0.00  0.00    +0.000 S 
ENDBRANCH  19  23
ENDBRANCH  15  19
ENDBRANCH   1  17
TORSDOF 8
ENDMDL
MODEL 9
REMARK VINA RESULT:      -6.5      3.967      8.285
REMARK  Name = 
REMARK  9 active torsions:
REMARK  status: ('A' for Active; 'I' for Inactive)
REMARK    1  A    between atoms: C_1  and  C_2
REMARK    2  A    between atoms: C_4  and  C_5
REMARK    3  A    between atoms: C_5  and  C_6
REMARK    4  A    between atoms: N_8  and  N_9
REMARK    5  A    between atoms: C_10  and  C_11
REMARK    6  A    between atoms: C_14  and  O_15
REMARK    7  A    between atoms: O_15  and  C_16
REMARK    8  A    between atoms: C_16  and  C_17
REMARK    9  A    between atoms: C_17  and  O_19
REMARK                            x       y       z     vdW  Elec       q    Type
REMARK                         _______ _______ _______ _____ _____    ______ ____
ROOT
ATOM      1  N   UNL     1       1.822   8.218  21.035  0.00  0.00    +0.000 NA
ATOM      2  C   UNL     1       1.623   7.016  20.608  0.00  0.00    +0.000 C 
ENDROOT
BRANCH   2   3
ATOM      3  C   UNL     1       2.459   6.526  19.492  0.00  0.00    +0.000 A 
ATOM      4  C   UNL     1       2.938   7.437  18.543  0.00  0.00    +0.000 A 
ATOM      5  C   UNL     1       3.719   6.993  17.478  0.00  0.00    +0.000 A 
ATOM      6  C   UNL     1       4.042   5.642  17.363  0.00  0.00    +0.000 A 
ATOM      7  C   UNL     1       3.565   4.732  18.312  0.00  0.00    +0.000 A 
ATOM      8  C   UNL     1       2.771   5.173  19.381  0.00  0.00    +0.000 A 
BRANCH   6   9
ATOM      9  O   UNL     1       4.779   5.326  16.257  0.00  0.00    +0.000 OA
BRANCH   9  10
ATOM     10  C   UNL     1       5.698   4.242  16.415  0.00  0.00    +0.000 C 
BRANCH  10  11
ATOM     11  C   UNL     1       7.095   4.820  16.583  0.00  0.00    +0.000 C 
ATOM     12  O   UNL     1       7.914   4.396  17.385  0.00  0.00    +0.000 OA
BRANCH  11  13
ATOM     13  O   UNL     1       7.359   5.851  15.744  0.00  0.00    +0.000 OA
ATOM     14  H   UNL     1       7.654   6.633  16.262  0.00  0.00    +0.000 HD
ENDBRANCH  11  13
ENDBRANCH  10  11
ENDBRANCH   9  10
ENDBRANCH   6   9
ENDBRANCH   2   3
BRANCH   1  17
ATOM     15  C   UNL     1       0.591   9.960  22.050  0.00  0.00    +0.000 C 
ATOM     16  O   UNL     1      -0.042  10.397  23.012  0.00  0.00    +0.000 OA
ATOM     17  N   UNL     1       1.089   8.672  22.070  0.00  0.00    +0.000 N 
ATOM     18  H   UNL     1       0.926   8.112  22.900  0.00  0.00    +0.000 HD
BRANCH  15  19
ATOM     19  C   UNL     1       0.859  10.775  20.792  0.00  0.00    +0.000 C 
BRANCH  19  23
ATOM     20  C   UNL     1      -2.044   9.871  16.896  0.00  0.00    +0.000 C 
ATOM     21  C   UNL     1      -1.594  10.517  18.159  0.00  0.00    +0.000 A 
ATOM     22  N   UNL     1      -0.498  10.193  18.806  0.00  0.00    +0.000 NA
ATOM     23  C   UNL     1      -0.363  10.971  19.948  0.00  0.00    +0.000 A 
ATOM     24  C   UNL     1      -1.368  11.906  20.117  0.00  0.00    +0.000 A 
ATOM     25  S   UNL     1      -2.517  11.785  18.854  0.00  0.00    +0.000 S 
ENDBRANCH  19  23
ENDBRANCH  15  19
ENDBRANCH   1  17
TORSDOF 8
ENDMDL
