MODEL 1
REMARK VINA RESULT:      -8.0      0.000      0.000
REMARK  Name = 
REMARK  1 active torsions:
REMARK  status: ('A' for Active; 'I' for Inactive)
REMARK    1  A    between atoms: C_2  and  C_3
REMARK                            x       y       z     vdW  Elec       q    Type
REMARK                         _______ _______ _______ _____ _____    ______ ____
ROOT
ATOM      1  O   UNL     1       2.013   7.586  20.151  0.00  0.00    +0.000 OA
ATOM      2  C   UNL     1       2.453   7.208  19.070  0.00  0.00    +0.000 C 
ATOM      3  N   UNL     1       2.925   5.915  18.761  0.00  0.00    +0.000 N 
ATOM      4  C   UNL     1       3.901   5.689  17.722  0.00  0.00    +0.000 A 
ATOM      5  C   UNL     1       4.907   6.646  17.491  0.00  0.00    +0.000 A 
ATOM      6  C   UNL     1       5.893   6.452  16.522  0.00  0.00    +0.000 A 
ATOM      7  C   UNL     1       5.905   5.285  15.770  0.00  0.00    +0.000 A 
ATOM      8  C   UNL     1       4.936   4.312  15.996  0.00  0.00    +0.000 A 
ATOM      9  C   UNL     1       3.947   4.503  16.974  0.00  0.00    +0.000 A 
ATOM     10  S   UNL     1       2.756   3.213  17.212  0.00  0.00    +0.000 S 
ATOM     11  C   UNL     1       2.464   3.473  18.947  0.00  0.00    +0.000 A 
ATOM     12  C   UNL     1       2.099   2.349  19.705  0.00  0.00    +0.000 A 
ATOM     13  C   UNL     1       1.821   2.472  21.062  0.00  0.00    +0.000 A 
ATOM     14  C   UNL     1       1.889   3.724  21.660  0.00  0.00    +0.000 A 
ATOM     15  C   UNL     1       2.234   4.851  20.902  0.00  0.00    +0.000 A 
ATOM     16  C   UNL     1       2.542   4.755  19.534  0.00  0.00    +0.000 A 
ENDROOT
BRANCH   2  17
ATOM     17  C   UNL     1       2.355   8.168  17.905  0.00  0.00    +0.000 C 
ATOM     18  C   UNL     1       1.048   8.876  17.601  0.00  0.00    +0.000 C 
ATOM     19  C   UNL     1       2.212   9.657  18.132  0.00  0.00    +0.000 C 
ENDBRANCH   2  17
TORSDOF 1
ENDMDL
MODEL 2
REMARK VINA RESULT:      -7.5      1.999      4.123
REMARK  Name = 
REMARK  1 active torsions:
REMARK  status: ('A' for Active; 'I' for Inactive)
REMARK    1  A    between atoms: C_2  and  C_3
REMARK                            x       y       z     vdW  Elec       q    Type
REMARK                         _______ _______ _______ _____ _____    ______ ____
ROOT
ATOM      1  O   UNL     1       5.119   4.578  16.438  0.00  0.00    +0.000 OA
ATOM      2  C   UNL     1       4.763   5.471  17.201  0.00  0.00    +0.000 C 
ATOM      3  N   UNL     1       3.592   5.486  17.987  0.00  0.00    +0.000 N 
ATOM      4  C   UNL     1       2.968   6.720  18.399  0.00  0.00    +0.000 A 
ATOM      5  C   UNL     1       2.995   7.835  17.539  0.00  0.00    +0.000 A 
ATOM      6  C   UNL     1       2.372   9.037  17.880  0.00  0.00    +0.000 A 
ATOM      7  C   UNL     1       1.691   9.147  19.085  0.00  0.00    +0.000 A 
ATOM      8  C   UNL     1       1.628   8.051  19.940  0.00  0.00    +0.000 A 
ATOM      9  C   UNL     1       2.249   6.840  19.597  0.00  0.00    +0.000 A 
ATOM     10  S   UNL     1       2.113   5.487  20.733  0.00  0.00    +0.000 S 
ATOM     11  C   UNL     1       2.158   4.168  19.541  0.00  0.00    +0.000 A 
ATOM     12  C   UNL     1       1.471   2.989  19.872  0.00  0.00    +0.000 A 
ATOM     13  C   UNL     1       1.484   1.898  19.010  0.00  0.00    +0.000 A 
ATOM     14  C   UNL     1       2.200   1.978  17.822  0.00  0.00    +0.000 A 
ATOM     15  C   UNL     1       2.902   3.145  17.498  0.00  0.00    +0.000 A 
ATOM     16  C   UNL     1       2.890   4.272  18.338  0.00  0.00    +0.000 A 
ENDROOT
BRANCH   2  17
ATOM     17  C   UNL     1       5.731   6.608  17.441  0.00  0.00    +0.000 C 
ATOM     18  C   UNL     1       6.959   6.403  18.306  0.00  0.00    +0.000 C 
ATOM     19  C   UNL     1       7.115   6.596  16.829  0.00  0.00    +0.000 C 
ENDBRANCH   2  17
TORSDOF 1
ENDMDL
MODEL 3
REMARK VINA RESULT:      -7.1      2.069      5.275
REMARK  Name = 
REMARK  1 active torsions:
REMARK  status: ('A' for Active; 'I' for Inactive)
REMARK    1  A    between atoms: C_2  and  C_3
REMARK                            x       y       z     vdW  Elec       q    Type
REMARK                         _______ _______ _______ _____ _____    ______ ____
ROOT
ATOM      1  O   UNL     1       3.843   3.235  20.090  0.00  0.00    +0.000 OA
ATOM      2  C   UNL     1       3.080   4.155  19.810  0.00  0.00    +0.000 C 
ATOM      3  N   UNL     1       3.441   5.418  19.297  0.00  0.00    +0.000 N 
ATOM      4  C   UNL     1       2.626   6.589  19.514  0.00  0.00    +0.000 A 
ATOM      5  C   UNL     1       1.924   6.735  20.726  0.00  0.00    +0.000 A 
ATOM      6  C   UNL     1       1.154   7.868  20.994  0.00  0.00    +0.000 A 
ATOM      7  C   UNL     1       1.080   8.891  20.059  0.00  0.00    +0.000 A 
ATOM      8  C   UNL     1       1.784   8.783  18.864  0.00  0.00    +0.000 A 
ATOM      9  C   UNL     1       2.564   7.647  18.595  0.00  0.00    +0.000 A 
ATOM     10  S   UNL     1       3.441   7.588  17.057  0.00  0.00    +0.000 S 
ATOM     11  C   UNL     1       4.825   6.616  17.607  0.00  0.00    +0.000 A 
ATOM     12  C   UNL     1       6.050   6.830  16.955  0.00  0.00    +0.000 A 
ATOM     13  C   UNL     1       7.174   6.089  17.302  0.00  0.00    +0.000 A 
ATOM     14  C   UNL     1       7.070   5.118  18.290  0.00  0.00    +0.000 A 
ATOM     15  C   UNL     1       5.845   4.889  18.929  0.00  0.00    +0.000 A 
ATOM     16  C   UNL     1       4.697   5.637  18.616  0.00  0.00    +0.000 A 
ENDROOT
BRANCH   2  17
ATOM     17  C   UNL     1       1.595   3.874  19.884  0.00  0.00    +0.000 C 
ATOM     18  C   UNL     1       0.987   2.739  19.083  0.00  0.00    +0.000 C 
ATOM     19  C   UNL     1       1.069   2.635  20.575  0.00  0.00    +0.000 C 
ENDBRANCH   2  17
TORSDOF 1
ENDMDL
MODEL 4
REMARK VINA RESULT:      -6.6      1.689      4.582
REMARK  Name = 
REMARK  1 active torsions:
REMARK  status: ('A' for Active; 'I' for Inactive)
REMARK    1  A    between atoms: C_2  and  C_3
REMARK                            x       y       z     vdW  Elec       q    Type
REMARK                         _______ _______ _______ _____ _____    ______ ____
ROOT
ATOM      1  O   UNL     1       2.056   8.391  18.773  0.00  0.00    +0.000 OA
ATOM      2  C   UNL     1       2.166   7.394  19.480  0.00  0.00    +0.000 C 
ATOM      3  N   UNL     1       2.849   6.204  19.153  0.00  0.00    +0.000 N 
ATOM      4  C   UNL     1       2.489   4.934  19.736  0.00  0.00    +0.000 A 
ATOM      5  C   UNL     1       1.139   4.660  20.026  0.00  0.00    +0.000 A 
ATOM      6  C   UNL     1       0.739   3.431  20.555  0.00  0.00    +0.000 A 
ATOM      7  C   UNL     1       1.681   2.440  20.791  0.00  0.00    +0.000 A 
ATOM      8  C   UNL     1       3.019   2.677  20.489  0.00  0.00    +0.000 A 
ATOM      9  C   UNL     1       3.422   3.910  19.952  0.00  0.00    +0.000 A 
ATOM     10  S   UNL     1       5.140   4.131  19.582  0.00  0.00    +0.000 S 
ATOM     11  C   UNL     1       4.949   5.248  18.211  0.00  0.00    +0.000 A 
ATOM     12  C   UNL     1       5.941   5.210  17.219  0.00  0.00    +0.000 A 
ATOM     13  C   UNL     1       5.884   6.073  16.130  0.00  0.00    +0.000 A 
ATOM     14  C   UNL     1       4.842   6.987  16.040  0.00  0.00    +0.000 A 
ATOM     15  C   UNL     1       3.861   7.040  17.038  0.00  0.00    +0.000 A 
ATOM     16  C   UNL     1       3.880   6.167  18.140  0.00  0.00    +0.000 A 
ENDROOT
BRANCH   2  17
ATOM     17  C   UNL     1       1.646   7.485  20.898  0.00  0.00    +0.000 C 
ATOM     18  C   UNL     1       1.589   8.822  21.611  0.00  0.00    +0.000 C 
ATOM     19  C   UNL     1       0.318   8.145  21.199  0.00  0.00    +0.000 C 
ENDBRANCH   2  17
TORSDOF 1
ENDMDL
MODEL 5
REMARK VINA RESULT:      -6.6      2.211      4.038
REMARK  Name = 
REMARK  1 active torsions:
REMARK  status: ('A' for Active; 'I' for Inactive)
REMARK    1  A    between atoms: C_2  and  C_3
REMARK                            x       y       z     vdW  Elec       q    Type
REMARK                         _______ _______ _______ _____ _____    ______ ____
ROOT
ATOM      1  O   UNL     1       5.841   3.749  18.285  0.00  0.00    +0.000 OA
ATOM      2  C   UNL     1       5.357   4.838  18.576  0.00  0.00    +0.000 C 
ATOM      3  N   UNL     1       3.998   5.109  18.840  0.00  0.00    +0.000 N 
ATOM      4  C   UNL     1       3.427   6.416  18.626  0.00  0.00    +0.000 A 
ATOM      5  C   UNL     1       3.886   7.210  17.557  0.00  0.00    +0.000 A 
ATOM      6  C   UNL     1       3.336   8.466  17.290  0.00  0.00    +0.000 A 
ATOM      7  C   UNL     1       2.301   8.950  18.077  0.00  0.00    +0.000 A 
ATOM      8  C   UNL     1       1.812   8.174  19.123  0.00  0.00    +0.000 A 
ATOM      9  C   UNL     1       2.359   6.909  19.390  0.00  0.00    +0.000 A 
ATOM     10  S   UNL     1       1.674   5.976  20.732  0.00  0.00    +0.000 S 
ATOM     11  C   UNL     1       1.965   4.352  20.067  0.00  0.00    +0.000 A 
ATOM     12  C   UNL     1       1.067   3.341  20.445  0.00  0.00    +0.000 A 
ATOM     13  C   UNL     1       1.241   2.037  19.995  0.00  0.00    +0.000 A 
ATOM     14  C   UNL     1       2.327   1.737  19.182  0.00  0.00    +0.000 A 
ATOM     15  C   UNL     1       3.236   2.739  18.820  0.00  0.00    +0.000 A 
ATOM     16  C   UNL     1       3.074   4.071  19.240  0.00  0.00    +0.000 A 
ENDROOT
BRANCH   2  17
ATOM     17  C   UNL     1       6.315   5.983  18.820  0.00  0.00    +0.000 C 
ATOM     18  C   UNL     1       7.757   5.710  19.202  0.00  0.00    +0.000 C 
ATOM     19  C   UNL     1       7.440   6.277  17.851  0.00  0.00    +0.000 C 
ENDBRANCH   2  17
TORSDOF 1
ENDMDL
MODEL 6
REMARK VINA RESULT:      -6.4      4.662      7.159
REMARK  Name = 
REMARK  1 active torsions:
REMARK  status: ('A' for Active; 'I' for Inactive)
REMARK    1  A    between atoms: C_2  and  C_3
REMARK                            x       y       z     vdW  Elec       q    Type
REMARK                         _______ _______ _______ _____ _____    ______ ____
ROOT
ATOM      1  O   UNL     1      -2.032  12.233  17.932  0.00  0.00    +0.000 OA
ATOM      2  C   UNL     1      -1.502  11.146  18.138  0.00  0.00    +0.000 C 
ATOM      3  N   UNL     1      -0.764  10.776  19.282  0.00  0.00    +0.000 N 
ATOM      4  C   UNL     1       0.258   9.758  19.232  0.00  0.00    +0.000 A 
ATOM      5  C   UNL     1       1.047   9.620  18.074  0.00  0.00    +0.000 A 
ATOM      6  C   UNL     1       2.072   8.674  17.995  0.00  0.00    +0.000 A 
ATOM      7  C   UNL     1       2.342   7.854  19.082  0.00  0.00    +0.000 A 
ATOM      8  C   UNL     1       1.593   7.989  20.248  0.00  0.00    +0.000 A 
ATOM      9  C   UNL     1       0.567   8.943  20.330  0.00  0.00    +0.000 A 
ATOM     10  S   UNL     1      -0.334   9.062  21.852  0.00  0.00    +0.000 S 
ATOM     11  C   UNL     1      -0.709  10.799  21.773  0.00  0.00    +0.000 A 
ATOM     12  C   UNL     1      -0.847  11.474  22.996  0.00  0.00    +0.000 A 
ATOM     13  C   UNL     1      -1.172  12.826  23.023  0.00  0.00    +0.000 A 
ATOM     14  C   UNL     1      -1.378  13.500  21.826  0.00  0.00    +0.000 A 
ATOM     15  C   UNL     1      -1.261  12.824  20.605  0.00  0.00    +0.000 A 
ATOM     16  C   UNL     1      -0.912  11.464  20.545  0.00  0.00    +0.000 A 
ENDROOT
BRANCH   2  17
ATOM     17  C   UNL     1      -1.774  10.038  17.145  0.00  0.00    +0.000 C 
ATOM     18  C   UNL     1      -3.174   9.475  16.987  0.00  0.00    +0.000 C 
ATOM     19  C   UNL     1      -2.575  10.299  15.888  0.00  0.00    +0.000 C 
ENDBRANCH   2  17
TORSDOF 1
ENDMDL
MODEL 7
REMARK VINA RESULT:      -6.0      1.883      4.353
REMARK  Name = 
REMARK  1 active torsions:
REMARK  status: ('A' for Active; 'I' for Inactive)
REMARK    1  A    between atoms: C_2  and  C_3
REMARK                            x       y       z     vdW  Elec       q    Type
REMARK                         _______ _______ _______ _____ _____    ______ ____
ROOT
ATOM      1  O   UNL     1       3.235   8.183  17.700  0.00  0.00    +0.000 OA
ATOM      2  C   UNL     1       2.865   7.174  18.292  0.00  0.00    +0.000 C 
ATOM      3  N   UNL     1       3.508   5.918  18.293  0.00  0.00    +0.000 N 
ATOM      4  C   UNL     1       2.782   4.692  18.515  0.00  0.00    +0.000 A 
ATOM      5  C   UNL     1       1.463   4.566  18.038  0.00  0.00    +0.000 A 
ATOM      6  C   UNL     1       0.736   3.385  18.197  0.00  0.00    +0.000 A 
ATOM      7  C   UNL     1       1.319   2.293  18.825  0.00  0.00    +0.000 A 
ATOM      8  C   UNL     1       2.630   2.383  19.283  0.00  0.00    +0.000 A 
ATOM      9  C   UNL     1       3.364   3.567  19.119  0.00  0.00    +0.000 A 
ATOM     10  S   UNL     1       5.032   3.600  19.718  0.00  0.00    +0.000 S 
ATOM     11  C   UNL     1       5.693   4.742  18.526  0.00  0.00    +0.000 A 
ATOM     12  C   UNL     1       7.051   4.603  18.199  0.00  0.00    +0.000 A 
ATOM     13  C   UNL     1       7.654   5.476  17.300  0.00  0.00    +0.000 A 
ATOM     14  C   UNL     1       6.903   6.502  16.740  0.00  0.00    +0.000 A 
ATOM     15  C   UNL     1       5.553   6.655  17.079  0.00  0.00    +0.000 A 
ATOM     16  C   UNL     1       4.910   5.775  17.967  0.00  0.00    +0.000 A 
ENDROOT
BRANCH   2  17
ATOM     17  C   UNL     1       1.687   7.310  19.231  0.00  0.00    +0.000 C 
ATOM     18  C   UNL     1       1.908   7.562  20.710  0.00  0.00    +0.000 C 
ATOM     19  C   UNL     1       1.333   8.645  19.849  0.00  0.00    +0.000 C 
ENDBRANCH   2  17
TORSDOF 1
ENDMDL
MODEL 8
REMARK VINA RESULT:      -6.0      5.351      8.306
REMARK  Name = 
REMARK  1 active torsions:
REMARK  status: ('A' for Active; 'I' for Inactive)
REMARK    1  A    between atoms: C_2  and  C_3
REMARK                            x       y       z     vdW  Elec       q    Type
REMARK                         _______ _______ _______ _____ _____    ______ ____
ROOT
ATOM      1  O   UNL     1      -1.324  12.524  17.760  0.00  0.00    +0.000 OA
ATOM      2  C   UNL     1      -1.153  11.524  18.450  0.00  0.00    +0.000 C 
ATOM      3  N   UNL     1      -0.678  11.492  19.778  0.00  0.00    +0.000 N 
ATOM      4  C   UNL     1       0.008  10.341  20.313  0.00  0.00    +0.000 A 
ATOM      5  C   UNL     1       0.841   9.575  19.476  0.00  0.00    +0.000 A 
ATOM      6  C   UNL     1       1.553   8.475  19.960  0.00  0.00    +0.000 A 
ATOM      7  C   UNL     1       1.460   8.125  21.299  0.00  0.00    +0.000 A 
ATOM      8  C   UNL     1       0.663   8.882  22.153  0.00  0.00    +0.000 A 
ATOM      9  C   UNL     1      -0.049   9.990  21.670  0.00  0.00    +0.000 A 
ATOM     10  S   UNL     1      -1.033  10.911  22.822  0.00  0.00    +0.000 S 
ATOM     11  C   UNL     1      -0.883  12.504  22.046  0.00  0.00    +0.000 A 
ATOM     12  C   UNL     1      -0.949  13.627  22.885  0.00  0.00    +0.000 A 
ATOM     13  C   UNL     1      -0.873  14.910  22.355  0.00  0.00    +0.000 A 
ATOM     14  C   UNL     1      -0.749  15.073  20.981  0.00  0.00    +0.000 A 
ATOM     15  C   UNL     1      -0.703  13.955  20.139  0.00  0.00    +0.000 A 
ATOM     16  C   UNL     1      -0.755  12.645  20.647  0.00  0.00    +0.000 A 
ENDROOT
BRANCH   2  17
ATOM     17  C   UNL     1      -1.626  10.202  17.889  0.00  0.00    +0.000 C 
ATOM     18  C   UNL     1      -3.108   9.906  17.764  0.00  0.00    +0.000 C 
ATOM     19  C   UNL     1      -2.287  10.124  16.530  0.00  0.00    +0.000 C 
ENDBRANCH   2  17
TORSDOF 1
ENDMDL
MODEL 9
REMARK VINA RESULT:      -5.8      5.818      8.144
REMARK  Name = 
REMARK  1 active torsions:
REMARK  status: ('A' for Active; 'I' for Inactive)
REMARK    1  A    between atoms: C_2  and  C_3
REMARK                            x       y       z     vdW  Elec       q    Type
REMARK                         _______ _______ _______ _____ _____    ______ ____
ROOT
ATOM      1  O   UNL     1      -2.548  13.672  20.686  0.00  0.00    +0.000 OA
ATOM      2  C   UNL     1      -1.567  12.955  20.857  0.00  0.00    +0.000 C 
ATOM      3  N   UNL     1      -1.319  11.711  20.239  0.00  0.00    +0.000 N 
ATOM      4  C   UNL     1      -0.493  10.704  20.860  0.00  0.00    +0.000 A 
ATOM      5  C   UNL     1      -0.503  10.562  22.261  0.00  0.00    +0.000 A 
ATOM      6  C   UNL     1       0.251   9.577  22.902  0.00  0.00    +0.000 A 
ATOM      7  C   UNL     1       1.022   8.699  22.153  0.00  0.00    +0.000 A 
ATOM      8  C   UNL     1       1.029   8.802  20.765  0.00  0.00    +0.000 A 
ATOM      9  C   UNL     1       0.267   9.788  20.119  0.00  0.00    +0.000 A 
ATOM     10  S   UNL     1       0.319   9.848  18.349  0.00  0.00    +0.000 S 
ATOM     11  C   UNL     1      -1.328  10.464  18.082  0.00  0.00    +0.000 A 
ATOM     12  C   UNL     1      -1.959  10.091  16.884  0.00  0.00    +0.000 A 
ATOM     13  C   UNL     1      -3.234  10.557  16.583  0.00  0.00    +0.000 A 
ATOM     14  C   UNL     1      -3.874  11.412  17.472  0.00  0.00    +0.000 A 
ATOM     15  C   UNL     1      -3.239  11.801  18.658  0.00  0.00    +0.000 A 
ATOM     16  C   UNL     1      -1.959  11.330  19.000  0.00  0.00    +0.000 A 
ENDROOT
BRANCH   2  17
ATOM     17  C   UNL     1      -0.438  13.508  21.698  0.00  0.00    +0.000 C 
ATOM     18  C   UNL     1       0.760  14.166  21.040  0.00  0.00    +0.000 C 
ATOM     19  C   UNL     1      -0.213  15.000  21.817  0.00  0.00    +0.000 C 
ENDBRANCH   2  17
TORSDOF 1
ENDMDL
