MODEL 1
REMARK VINA RESULT:      -8.9      0.000      0.000
REMARK  Name = 
REMARK  4 active torsions:
REMARK  status: ('A' for Active; 'I' for Inactive)
REMARK    1  A    between atoms: C_1  and  O_2
REMARK    2  A    between atoms: O_2  and  C_3
REMARK    3  A    between atoms: C_9  and  C_10
REMARK    4  A    between atoms: C_17  and  C_18
REMARK                            x       y       z     vdW  Elec       q    Type
REMARK                         _______ _______ _______ _____ _____    ______ ____
ROOT
ATOM      1  C   UNL     1       6.323   5.068  17.678  0.00  0.00    +0.000 C 
ATOM      2  F   UNL     1       6.976   4.155  18.474  0.00  0.00    +0.000 F 
ATOM      3  C   UNL     1       7.252   6.316  17.476  0.00  0.00    +0.000 C 
ATOM      4  O   UNL     1       7.613   7.133  18.312  0.00  0.00    +0.000 OA
ATOM      5  N   UNL     1       7.650   6.333  16.138  0.00  0.00    +0.000 N 
ATOM      6  C   UNL     1       7.053   5.306  15.423  0.00  0.00    +0.000 A 
ATOM      7  C   UNL     1       7.171   5.058  14.072  0.00  0.00    +0.000 A 
ATOM      8  C   UNL     1       6.443   3.983  13.536  0.00  0.00    +0.000 A 
ATOM      9  C   UNL     1       5.638   3.186  14.389  0.00  0.00    +0.000 A 
ATOM     10  C   UNL     1       5.544   3.452  15.759  0.00  0.00    +0.000 A 
ATOM     11  C   UNL     1       6.252   4.530  16.260  0.00  0.00    +0.000 A 
ATOM     12  H   UNL     1       8.257   7.045  15.762  0.00  0.00    +0.000 HD
ENDROOT
BRANCH   1  19
ATOM     13  C   UNL     1       4.321   4.696  19.272  0.00  0.00    +0.000 A 
ATOM     14  C   UNL     1       3.099   5.134  19.799  0.00  0.00    +0.000 A 
ATOM     15  C   UNL     1       2.494   6.297  19.318  0.00  0.00    +0.000 A 
ATOM     16  C   UNL     1       3.106   7.026  18.307  0.00  0.00    +0.000 A 
ATOM     17 CL   UNL     1       2.357   8.453  17.706  0.00  0.00    +0.000 Cl
ATOM     18  C   UNL     1       4.331   6.613  17.786  0.00  0.00    +0.000 A 
ATOM     19  C   UNL     1       4.965   5.450  18.270  0.00  0.00    +0.000 A 
BRANCH  13  21
ATOM     20  C   UNL     1       4.164   2.438  20.003  0.00  0.00    +0.000 C 
ATOM     21  O   UNL     1       4.969   3.574  19.713  0.00  0.00    +0.000 OA
ENDBRANCH  13  21
ENDBRANCH   1  19
BRANCH   8  22
ATOM     22  C   UNL     1       6.496   3.673  12.060  0.00  0.00    +0.000 C 
ATOM     23  F   UNL     1       7.042   2.457  11.780  0.00  0.00    +0.000 F 
ATOM     24  F   UNL     1       5.263   3.672  11.482  0.00  0.00    +0.000 F 
ATOM     25  F   UNL     1       7.236   4.581  11.366  0.00  0.00    +0.000 F 
ENDBRANCH   8  22
TORSDOF 3
ENDMDL
MODEL 2
REMARK VINA RESULT:      -7.9      1.299      1.397
REMARK  Name = 
REMARK  4 active torsions:
REMARK  status: ('A' for Active; 'I' for Inactive)
REMARK    1  A    between atoms: C_1  and  O_2
REMARK    2  A    between atoms: O_2  and  C_3
REMARK    3  A    between atoms: C_9  and  C_10
REMARK    4  A    between atoms: C_17  and  C_18
REMARK                            x       y       z     vdW  Elec       q    Type
REMARK                         _______ _______ _______ _____ _____    ______ ____
ROOT
ATOM      1  C   UNL     1       5.266   4.414  18.504  0.00  0.00    +0.000 C 
ATOM      2  F   UNL     1       5.219   3.182  19.115  0.00  0.00    +0.000 F 
ATOM      3  C   UNL     1       6.630   5.102  18.862  0.00  0.00    +0.000 C 
ATOM      4  O   UNL     1       7.011   5.502  19.953  0.00  0.00    +0.000 OA
ATOM      5  N   UNL     1       7.392   5.160  17.694  0.00  0.00    +0.000 N 
ATOM      6  C   UNL     1       6.686   4.666  16.608  0.00  0.00    +0.000 A 
ATOM      7  C   UNL     1       7.105   4.626  15.295  0.00  0.00    +0.000 A 
ATOM      8  C   UNL     1       6.210   4.120  14.337  0.00  0.00    +0.000 A 
ATOM      9  C   UNL     1       4.934   3.656  14.743  0.00  0.00    +0.000 A 
ATOM     10  C   UNL     1       4.538   3.697  16.084  0.00  0.00    +0.000 A 
ATOM     11  C   UNL     1       5.426   4.221  17.007  0.00  0.00    +0.000 A 
ATOM     12  H   UNL     1       8.317   5.562  17.669  0.00  0.00    +0.000 HD
ENDROOT
BRANCH   1  19
ATOM     13  C   UNL     1       3.165   4.921  19.923  0.00  0.00    +0.000 A 
ATOM     14  C   UNL     1       2.114   5.784  20.260  0.00  0.00    +0.000 A 
ATOM     15  C   UNL     1       1.928   6.981  19.565  0.00  0.00    +0.000 A 
ATOM     16  C   UNL     1       2.790   7.320  18.531  0.00  0.00    +0.000 A 
ATOM     17 CL   UNL     1       2.556   8.790  17.668  0.00  0.00    +0.000 Cl
ATOM     18  C   UNL     1       3.851   6.481  18.198  0.00  0.00    +0.000 A 
ATOM     19  C   UNL     1       4.065   5.275  18.898  0.00  0.00    +0.000 A 
BRANCH  13  21
ATOM     20  C   UNL     1       2.323   3.176  21.304  0.00  0.00    +0.000 C 
ATOM     21  O   UNL     1       3.407   3.743  20.577  0.00  0.00    +0.000 OA
ENDBRANCH  13  21
ENDBRANCH   1  19
BRANCH   8  22
ATOM     22  C   UNL     1       6.587   4.077  12.876  0.00  0.00    +0.000 C 
ATOM     23  F   UNL     1       7.146   2.896  12.493  0.00  0.00    +0.000 F 
ATOM     24  F   UNL     1       5.517   4.268  12.055  0.00  0.00    +0.000 F 
ATOM     25  F   UNL     1       7.491   5.040  12.545  0.00  0.00    +0.000 F 
ENDBRANCH   8  22
TORSDOF 3
ENDMDL
MODEL 3
REMARK VINA RESULT:      -7.2      1.515      2.219
REMARK  Name = 
REMARK  4 active torsions:
REMARK  status: ('A' for Active; 'I' for Inactive)
REMARK    1  A    between atoms: C_1  and  O_2
REMARK    2  A    between atoms: O_2  and  C_3
REMARK    3  A    between atoms: C_9  and  C_10
REMARK    4  A    between atoms: C_17  and  C_18
REMARK                            x       y       z     vdW  Elec       q    Type
REMARK                         _______ _______ _______ _____ _____    ______ ____
ROOT
ATOM      1  C   UNL     1       6.192   4.994  17.818  0.00  0.00    +0.000 C 
ATOM      2  F   UNL     1       6.664   3.985  18.626  0.00  0.00    +0.000 F 
ATOM      3  C   UNL     1       7.299   6.099  17.692  0.00  0.00    +0.000 C 
ATOM      4  O   UNL     1       7.727   6.842  18.564  0.00  0.00    +0.000 OA
ATOM      5  N   UNL     1       7.768   6.079  16.377  0.00  0.00    +0.000 N 
ATOM      6  C   UNL     1       7.070   5.159  15.609  0.00  0.00    +0.000 A 
ATOM      7  C   UNL     1       7.224   4.917  14.261  0.00  0.00    +0.000 A 
ATOM      8  C   UNL     1       6.380   3.965  13.665  0.00  0.00    +0.000 A 
ATOM      9  C   UNL     1       5.424   3.280  14.456  0.00  0.00    +0.000 A 
ATOM     10  C   UNL     1       5.296   3.536  15.826  0.00  0.00    +0.000 A 
ATOM     11  C   UNL     1       6.122   4.493  16.387  0.00  0.00    +0.000 A 
ATOM     12  H   UNL     1       8.489   6.702  16.049  0.00  0.00    +0.000 HD
ENDROOT
BRANCH   1  19
ATOM     13  C   UNL     1       4.270   6.723  17.831  0.00  0.00    +0.000 A 
ATOM     14  C   UNL     1       3.036   7.154  18.335  0.00  0.00    +0.000 A 
ATOM     15  C   UNL     1       2.410   6.456  19.371  0.00  0.00    +0.000 A 
ATOM     16  C   UNL     1       3.014   5.328  19.908  0.00  0.00    +0.000 A 
ATOM     17 CL   UNL     1       2.249   4.474  21.190  0.00  0.00    +0.000 Cl
ATOM     18  C   UNL     1       4.232   4.877  19.403  0.00  0.00    +0.000 A 
ATOM     19  C   UNL     1       4.873   5.558  18.348  0.00  0.00    +0.000 A 
BRANCH  13  21
ATOM     20  C   UNL     1       4.385   7.193  15.502  0.00  0.00    +0.000 C 
ATOM     21  O   UNL     1       4.924   7.355  16.808  0.00  0.00    +0.000 OA
ENDBRANCH  13  21
ENDBRANCH   1  19
BRANCH   8  22
ATOM     22  C   UNL     1       6.468   3.673  12.187  0.00  0.00    +0.000 C 
ATOM     23  F   UNL     1       7.031   2.465  11.904  0.00  0.00    +0.000 F 
ATOM     24  F   UNL     1       5.249   3.668  11.582  0.00  0.00    +0.000 F 
ATOM     25  F   UNL     1       7.215   4.596  11.519  0.00  0.00    +0.000 F 
ENDBRANCH   8  22
TORSDOF 3
ENDMDL
MODEL 4
REMARK VINA RESULT:      -7.2      1.558      2.444
REMARK  Name = 
REMARK  4 active torsions:
REMARK  status: ('A' for Active; 'I' for Inactive)
REMARK    1  A    between atoms: C_1  and  O_2
REMARK    2  A    between atoms: O_2  and  C_3
REMARK    3  A    between atoms: C_9  and  C_10
REMARK    4  A    between atoms: C_17  and  C_18
REMARK                            x       y       z     vdW  Elec       q    Type
REMARK                         _______ _______ _______ _____ _____    ______ ____
ROOT
ATOM      1  C   UNL     1       5.485   4.398  17.813  0.00  0.00    +0.000 C 
ATOM      2  F   UNL     1       5.237   3.186  18.414  0.00  0.00    +0.000 F 
ATOM      3  C   UNL     1       6.947   4.846  18.164  0.00  0.00    +0.000 C 
ATOM      4  O   UNL     1       7.397   5.167  19.256  0.00  0.00    +0.000 OA
ATOM      5  N   UNL     1       7.701   4.786  16.990  0.00  0.00    +0.000 N 
ATOM      6  C   UNL     1       6.915   4.426  15.906  0.00  0.00    +0.000 A 
ATOM      7  C   UNL     1       7.312   4.328  14.590  0.00  0.00    +0.000 A 
ATOM      8  C   UNL     1       6.339   3.987  13.635  0.00  0.00    +0.000 A 
ATOM      9  C   UNL     1       5.006   3.740  14.049  0.00  0.00    +0.000 A 
ATOM     10  C   UNL     1       4.631   3.835  15.393  0.00  0.00    +0.000 A 
ATOM     11  C   UNL     1       5.600   4.194  16.312  0.00  0.00    +0.000 A 
ATOM     12  H   UNL     1       8.679   5.028  16.961  0.00  0.00    +0.000 HD
ENDROOT
BRANCH   1  19
ATOM     13  C   UNL     1       4.415   6.749  17.688  0.00  0.00    +0.000 A 
ATOM     14  C   UNL     1       3.405   7.638  18.076  0.00  0.00    +0.000 A 
ATOM     15  C   UNL     1       2.445   7.256  19.016  0.00  0.00    +0.000 A 
ATOM     16  C   UNL     1       2.491   5.985  19.573  0.00  0.00    +0.000 A 
ATOM     17 CL   UNL     1       1.316   5.517  20.737  0.00  0.00    +0.000 Cl
ATOM     18  C   UNL     1       3.479   5.083  19.181  0.00  0.00    +0.000 A 
ATOM     19  C   UNL     1       4.448   5.444  18.222  0.00  0.00    +0.000 A 
BRANCH  13  21
ATOM     20  C   UNL     1       6.399   7.957  17.172  0.00  0.00    +0.000 C 
ATOM     21  O   UNL     1       5.373   7.060  16.761  0.00  0.00    +0.000 OA
ENDBRANCH  13  21
ENDBRANCH   1  19
BRANCH   8  22
ATOM     22  C   UNL     1       6.693   3.895  12.171  0.00  0.00    +0.000 C 
ATOM     23  F   UNL     1       7.540   4.877  11.754  0.00  0.00    +0.000 F 
ATOM     24  F   UNL     1       7.300   2.718  11.854  0.00  0.00    +0.000 F 
ATOM     25  F   UNL     1       5.598   3.983  11.366  0.00  0.00    +0.000 F 
ENDBRANCH   8  22
TORSDOF 3
ENDMDL
MODEL 5
REMARK VINA RESULT:      -7.1      1.323      1.545
REMARK  Name = 
REMARK  4 active torsions:
REMARK  status: ('A' for Active; 'I' for Inactive)
REMARK    1  A    between atoms: C_1  and  O_2
REMARK    2  A    between atoms: O_2  and  C_3
REMARK    3  A    between atoms: C_9  and  C_10
REMARK    4  A    between atoms: C_17  and  C_18
REMARK                            x       y       z     vdW  Elec       q    Type
REMARK                         _______ _______ _______ _____ _____    ______ ____
ROOT
ATOM      1  C   UNL     1       5.467   4.380  18.072  0.00  0.00    +0.000 C 
ATOM      2  F   UNL     1       5.454   3.066  18.480  0.00  0.00    +0.000 F 
ATOM      3  C   UNL     1       6.682   5.106  18.749  0.00  0.00    +0.000 C 
ATOM      4  O   UNL     1       6.848   5.354  19.936  0.00  0.00    +0.000 OA
ATOM      5  N   UNL     1       7.604   5.410  17.746  0.00  0.00    +0.000 N 
ATOM      6  C   UNL     1       7.127   5.044  16.497  0.00  0.00    +0.000 A 
ATOM      7  C   UNL     1       7.743   5.248  15.282  0.00  0.00    +0.000 A 
ATOM      8  C   UNL     1       7.063   4.835  14.123  0.00  0.00    +0.000 A 
ATOM      9  C   UNL     1       5.794   4.213  14.239  0.00  0.00    +0.000 A 
ATOM     10  C   UNL     1       5.195   4.007  15.486  0.00  0.00    +0.000 A 
ATOM     11  C   UNL     1       5.873   4.443  16.611  0.00  0.00    +0.000 A 
ATOM     12  H   UNL     1       8.475   5.881  17.935  0.00  0.00    +0.000 HD
ENDROOT
BRANCH   1  19
ATOM     13  C   UNL     1       3.077   4.435  19.059  0.00  0.00    +0.000 A 
ATOM     14  C   UNL     1       1.906   5.146  19.348  0.00  0.00    +0.000 A 
ATOM     15  C   UNL     1       1.764   6.475  18.942  0.00  0.00    +0.000 A 
ATOM     16  C   UNL     1       2.790   7.097  18.244  0.00  0.00    +0.000 A 
ATOM     17 CL   UNL     1       2.612   8.730  17.734  0.00  0.00    +0.000 Cl
ATOM     18  C   UNL     1       3.969   6.408  17.966  0.00  0.00    +0.000 A 
ATOM     19  C   UNL     1       4.138   5.070  18.381  0.00  0.00    +0.000 A 
BRANCH  13  21
ATOM     20  C   UNL     1       2.970   2.809  20.793  0.00  0.00    +0.000 C 
ATOM     21  O   UNL     1       3.281   3.137  19.444  0.00  0.00    +0.000 OA
ENDBRANCH  13  21
ENDBRANCH   1  19
BRANCH   8  22
ATOM     22  C   UNL     1       7.660   5.057  12.756  0.00  0.00    +0.000 C 
ATOM     23  F   UNL     1       7.453   4.020  11.897  0.00  0.00    +0.000 F 
ATOM     24  F   UNL     1       7.156   6.161  12.138  0.00  0.00    +0.000 F 
ATOM     25  F   UNL     1       9.009   5.236  12.802  0.00  0.00    +0.000 F 
ENDBRANCH   8  22
TORSDOF 3
ENDMDL
MODEL 6
REMARK VINA RESULT:      -7.1      7.760     10.060
REMARK  Name = 
REMARK  4 active torsions:
REMARK  status: ('A' for Active; 'I' for Inactive)
REMARK    1  A    between atoms: C_1  and  O_2
REMARK    2  A    between atoms: O_2  and  C_3
REMARK    3  A    between atoms: C_9  and  C_10
REMARK    4  A    between atoms: C_17  and  C_18
REMARK                            x       y       z     vdW  Elec       q    Type
REMARK                         _______ _______ _______ _____ _____    ______ ____
ROOT
ATOM      1  C   UNL     1       0.671  10.786  19.088  0.00  0.00    +0.000 C 
ATOM      2  F   UNL     1       1.480  11.288  18.095  0.00  0.00    +0.000 F 
ATOM      3  C   UNL     1       0.636  11.811  20.276  0.00  0.00    +0.000 C 
ATOM      4  O   UNL     1       1.550  12.131  21.024  0.00  0.00    +0.000 OA
ATOM      5  N   UNL     1      -0.649  12.352  20.329  0.00  0.00    +0.000 N 
ATOM      6  C   UNL     1      -1.479  11.771  19.381  0.00  0.00    +0.000 A 
ATOM      7  C   UNL     1      -2.821  12.019  19.190  0.00  0.00    +0.000 A 
ATOM      8  C   UNL     1      -3.488  11.285  18.195  0.00  0.00    +0.000 A 
ATOM      9  C   UNL     1      -2.770  10.342  17.418  0.00  0.00    +0.000 A 
ATOM     10  C   UNL     1      -1.405  10.117  17.624  0.00  0.00    +0.000 A 
ATOM     11  C   UNL     1      -0.774  10.835  18.625  0.00  0.00    +0.000 A 
ATOM     12  H   UNL     1      -0.920  13.041  21.013  0.00  0.00    +0.000 HD
ENDROOT
BRANCH   1  19
ATOM     13  C   UNL     1       0.750   8.814  20.759  0.00  0.00    +0.000 A 
ATOM     14  C   UNL     1       1.178   7.520  21.080  0.00  0.00    +0.000 A 
ATOM     15  C   UNL     1       2.015   6.813  20.213  0.00  0.00    +0.000 A 
ATOM     16  C   UNL     1       2.428   7.397  19.024  0.00  0.00    +0.000 A 
ATOM     17 CL   UNL     1       3.467   6.531  17.961  0.00  0.00    +0.000 Cl
ATOM     18  C   UNL     1       1.994   8.676  18.682  0.00  0.00    +0.000 A 
ATOM     19  C   UNL     1       1.136   9.400  19.536  0.00  0.00    +0.000 A 
BRANCH  13  21
ATOM     20  C   UNL     1       0.100   9.423  22.965  0.00  0.00    +0.000 C 
ATOM     21  O   UNL     1      -0.082   9.550  21.559  0.00  0.00    +0.000 OA
ENDBRANCH  13  21
ENDBRANCH   1  19
BRANCH   8  22
ATOM     22  C   UNL     1      -4.965  11.478  17.953  0.00  0.00    +0.000 C 
ATOM     23  F   UNL     1      -5.725  10.422  18.356  0.00  0.00    +0.000 F 
ATOM     24  F   UNL     1      -5.463  12.566  18.603  0.00  0.00    +0.000 F 
ATOM     25  F   UNL     1      -5.255  11.663  16.635  0.00  0.00    +0.000 F 
ENDBRANCH   8  22
TORSDOF 3
ENDMDL
MODEL 7
REMARK VINA RESULT:      -7.0      1.699      2.462
REMARK  Name = 
REMARK  4 active torsions:
REMARK  status: ('A' for Active; 'I' for Inactive)
REMARK    1  A    between atoms: C_1  and  O_2
REMARK    2  A    between atoms: O_2  and  C_3
REMARK    3  A    between atoms: C_9  and  C_10
REMARK    4  A    between atoms: C_17  and  C_18
REMARK                            x       y       z     vdW  Elec       q    Type
REMARK                         _______ _______ _______ _____ _____    ______ ____
ROOT
ATOM      1  C   UNL     1       6.227   4.779  17.784  0.00  0.00    +0.000 C 
ATOM      2  F   UNL     1       7.018   3.919  18.511  0.00  0.00    +0.000 F 
ATOM      3  C   UNL     1       6.959   6.161  17.666  0.00  0.00    +0.000 C 
ATOM      4  O   UNL     1       7.208   6.962  18.557  0.00  0.00    +0.000 OA
ATOM      5  N   UNL     1       7.331   6.329  16.331  0.00  0.00    +0.000 N 
ATOM      6  C   UNL     1       6.881   5.277  15.548  0.00  0.00    +0.000 A 
ATOM      7  C   UNL     1       7.014   5.143  14.183  0.00  0.00    +0.000 A 
ATOM      8  C   UNL     1       6.444   4.012  13.576  0.00  0.00    +0.000 A 
ATOM      9  C   UNL     1       5.777   3.048  14.373  0.00  0.00    +0.000 A 
ATOM     10  C   UNL     1       5.665   3.202  15.759  0.00  0.00    +0.000 A 
ATOM     11  C   UNL     1       6.214   4.335  16.332  0.00  0.00    +0.000 A 
ATOM     12  H   UNL     1       7.821   7.147  16.004  0.00  0.00    +0.000 HD
ENDROOT
BRANCH   1  19
ATOM     13  C   UNL     1       3.917   5.916  18.032  0.00  0.00    +0.000 A 
ATOM     14  C   UNL     1       2.643   5.948  18.613  0.00  0.00    +0.000 A 
ATOM     15  C   UNL     1       2.283   5.015  19.588  0.00  0.00    +0.000 A 
ATOM     16  C   UNL     1       3.195   4.047  19.988  0.00  0.00    +0.000 A 
ATOM     17 CL   UNL     1       2.756   2.904  21.195  0.00  0.00    +0.000 Cl
ATOM     18  C   UNL     1       4.459   3.991  19.404  0.00  0.00    +0.000 A 
ATOM     19  C   UNL     1       4.836   4.914  18.407  0.00  0.00    +0.000 A 
BRANCH  13  21
ATOM     20  C   UNL     1       3.801   8.115  17.132  0.00  0.00    +0.000 C 
ATOM     21  O   UNL     1       4.322   6.792  17.062  0.00  0.00    +0.000 OA
ENDBRANCH  13  21
ENDBRANCH   1  19
BRANCH   8  22
ATOM     22  C   UNL     1       6.521   3.816  12.081  0.00  0.00    +0.000 C 
ATOM     23  F   UNL     1       7.268   4.761  11.447  0.00  0.00    +0.000 F 
ATOM     24  F   UNL     1       7.067   2.616  11.739  0.00  0.00    +0.000 F 
ATOM     25  F   UNL     1       5.295   3.853  11.490  0.00  0.00    +0.000 F 
ENDBRANCH   8  22
TORSDOF 3
ENDMDL
MODEL 8
REMARK VINA RESULT:      -7.0      3.283      6.201
REMARK  Name = 
REMARK  4 active torsions:
REMARK  status: ('A' for Active; 'I' for Inactive)
REMARK    1  A    between atoms: C_1  and  O_2
REMARK    2  A    between atoms: O_2  and  C_3
REMARK    3  A    between atoms: C_9  and  C_10
REMARK    4  A    between atoms: C_17  and  C_18
REMARK                            x       y       z     vdW  Elec       q    Type
REMARK                         _______ _______ _______ _____ _____    ______ ____
ROOT
ATOM      1  C   UNL     1       6.770   5.623  16.971  0.00  0.00    +0.000 C 
ATOM      2  F   UNL     1       7.466   6.808  16.913  0.00  0.00    +0.000 F 
ATOM      3  C   UNL     1       7.486   4.665  17.986  0.00  0.00    +0.000 C 
ATOM      4  O   UNL     1       8.588   4.144  17.884  0.00  0.00    +0.000 OA
ATOM      5  N   UNL     1       6.648   4.519  19.093  0.00  0.00    +0.000 N 
ATOM      6  C   UNL     1       5.451   5.196  18.909  0.00  0.00    +0.000 A 
ATOM      7  C   UNL     1       4.373   5.220  19.766  0.00  0.00    +0.000 A 
ATOM      8  C   UNL     1       3.233   5.938  19.366  0.00  0.00    +0.000 A 
ATOM      9  C   UNL     1       3.233   6.620  18.124  0.00  0.00    +0.000 A 
ATOM     10  C   UNL     1       4.346   6.589  17.276  0.00  0.00    +0.000 A 
ATOM     11  C   UNL     1       5.448   5.857  17.681  0.00  0.00    +0.000 A 
ATOM     12  H   UNL     1       6.892   3.947  19.886  0.00  0.00    +0.000 HD
ENDROOT
BRANCH   1  19
ATOM     13  C   UNL     1       5.848   3.847  15.333  0.00  0.00    +0.000 A 
ATOM     14  C   UNL     1       5.729   3.355  14.027  0.00  0.00    +0.000 A 
ATOM     15  C   UNL     1       6.407   3.970  12.972  0.00  0.00    +0.000 A 
ATOM     16  C   UNL     1       7.208   5.077  13.217  0.00  0.00    +0.000 A 
ATOM     17 CL   UNL     1       8.051   5.829  11.921  0.00  0.00    +0.000 Cl
ATOM     18  C   UNL     1       7.319   5.590  14.508  0.00  0.00    +0.000 A 
ATOM     19  C   UNL     1       6.630   4.993  15.584  0.00  0.00    +0.000 A 
BRANCH  13  21
ATOM     20  C   UNL     1       3.777   3.230  16.328  0.00  0.00    +0.000 C 
ATOM     21  O   UNL     1       5.196   3.298  16.404  0.00  0.00    +0.000 OA
ENDBRANCH  13  21
ENDBRANCH   1  19
BRANCH   8  22
ATOM     22  C   UNL     1       2.002   5.981  20.238  0.00  0.00    +0.000 C 
ATOM     23  F   UNL     1       0.941   5.306  19.714  0.00  0.00    +0.000 F 
ATOM     24  F   UNL     1       2.215   5.443  21.470  0.00  0.00    +0.000 F 
ATOM     25  F   UNL     1       1.563   7.252  20.453  0.00  0.00    +0.000 F 
ENDBRANCH   8  22
TORSDOF 3
ENDMDL
MODEL 9
REMARK VINA RESULT:      -6.7      6.556      8.968
REMARK  Name = 
REMARK  4 active torsions:
REMARK  status: ('A' for Active; 'I' for Inactive)
REMARK    1  A    between atoms: C_1  and  O_2
REMARK    2  A    between atoms: O_2  and  C_3
REMARK    3  A    between atoms: C_9  and  C_10
REMARK    4  A    between atoms: C_17  and  C_18
REMARK                            x       y       z     vdW  Elec       q    Type
REMARK                         _______ _______ _______ _____ _____    ______ ____
ROOT
ATOM      1  C   UNL     1      -0.266  10.979  19.848  0.00  0.00    +0.000 C 
ATOM      2  F   UNL     1      -1.566  10.773  19.448  0.00  0.00    +0.000 F 
ATOM      3  C   UNL     1      -0.161  10.704  21.389  0.00  0.00    +0.000 C 
ATOM      4  O   UNL     1      -0.663  11.340  22.305  0.00  0.00    +0.000 OA
ATOM      5  N   UNL     1       0.601   9.547  21.560  0.00  0.00    +0.000 N 
ATOM      6  C   UNL     1       1.066   9.067  20.346  0.00  0.00    +0.000 A 
ATOM      7  C   UNL     1       1.893   7.983  20.144  0.00  0.00    +0.000 A 
ATOM      8  C   UNL     1       2.283   7.691  18.826  0.00  0.00    +0.000 A 
ATOM      9  C   UNL     1       1.806   8.494  17.759  0.00  0.00    +0.000 A 
ATOM     10  C   UNL     1       0.957   9.582  17.989  0.00  0.00    +0.000 A 
ATOM     11  C   UNL     1       0.606   9.865  19.297  0.00  0.00    +0.000 A 
ATOM     12  H   UNL     1       0.808   9.164  22.470  0.00  0.00    +0.000 HD
ENDROOT
BRANCH   1  19
ATOM     13  C   UNL     1      -0.628  13.516  19.505  0.00  0.00    +0.000 A 
ATOM     14  C   UNL     1      -0.108  14.781  19.200  0.00  0.00    +0.000 A 
ATOM     15  C   UNL     1       1.233  14.927  18.837  0.00  0.00    +0.000 A 
ATOM     16  C   UNL     1       2.058  13.813  18.776  0.00  0.00    +0.000 A 
ATOM     17 CL   UNL     1       3.707  13.992  18.320  0.00  0.00    +0.000 Cl
ATOM     18  C   UNL     1       1.559  12.552  19.096  0.00  0.00    +0.000 A 
ATOM     19  C   UNL     1       0.212  12.384  19.479  0.00  0.00    +0.000 A 
BRANCH  13  21
ATOM     20  C   UNL     1      -2.416  14.095  20.964  0.00  0.00    +0.000 C 
ATOM     21  O   UNL     1      -1.928  13.311  19.881  0.00  0.00    +0.000 OA
ENDBRANCH  13  21
ENDBRANCH   1  19
BRANCH   8  22
ATOM     22  C   UNL     1       3.214   6.541  18.532  0.00  0.00    +0.000 C 
ATOM     23  F   UNL     1       3.757   5.983  19.650  0.00  0.00    +0.000 F 
ATOM     24  F   UNL     1       2.596   5.525  17.869  0.00  0.00    +0.000 F 
ATOM     25  F   UNL     1       4.268   6.913  17.754  0.00  0.00    +0.000 F 
ENDBRANCH   8  22
TORSDOF 3
ENDMDL
