MODEL 1
REMARK VINA RESULT:      -7.9      0.000      0.000
REMARK  Name = 
REMARK  7 active torsions:
REMARK  status: ('A' for Active; 'I' for Inactive)
REMARK    1  A    between atoms: C_1  and  C_2
REMARK    2  A    between atoms: C_2  and  C_3
REMARK    3  A    between atoms: C_3  and  C_4
REMARK    4  A    between atoms: C_4  and  C_5
REMARK    5  A    between atoms: N_6  and  N_7
REMARK    6  A    between atoms: N_13  and  C_14
REMARK    7  A    between atoms: C_14  and  N_15
REMARK                            x       y       z     vdW  Elec       q    Type
REMARK                         _______ _______ _______ _____ _____    ______ ____
ROOT
ATOM      1  N   UNL     1       2.587   6.072  19.105  0.00  0.00    +0.000 NA
ATOM      2  C   UNL     1       2.237   4.835  19.245  0.00  0.00    +0.000 C 
ATOM      3  S   UNL     1       1.101   4.156  20.379  0.00  0.00    +0.000 S 
ATOM      4  C   UNL     1       1.729   2.470  20.168  0.00  0.00    +0.000 C 
ATOM      5  C   UNL     1       2.627   2.512  18.965  0.00  0.00    +0.000 C 
ATOM      6  O   UNL     1       3.239   1.578  18.478  0.00  0.00    +0.000 OA
ATOM      7  N   UNL     1       2.822   3.821  18.474  0.00  0.00    +0.000 N 
ENDROOT
BRANCH   1  10
ATOM      8  C   UNL     1       1.760   8.145  19.480  0.00  0.00    +0.000 C 
ATOM      9  C   UNL     1       2.207   8.571  18.101  0.00  0.00    +0.000 C 
ATOM     10  N   UNL     1       1.958   6.958  19.974  0.00  0.00    +0.000 NA
BRANCH   8  11
ATOM     11  C   UNL     1       1.030   9.154  20.345  0.00  0.00    +0.000 C 
BRANCH  11  13
ATOM     12  C   UNL     1       0.025   9.561  22.647  0.00  0.00    +0.000 C 
ATOM     13  C   UNL     1       0.483   8.529  21.627  0.00  0.00    +0.000 C 
ENDBRANCH  11  13
ENDBRANCH   8  11
ENDBRANCH   1  10
BRANCH   7  14
ATOM     14  C   UNL     1       3.567   4.087  17.267  0.00  0.00    +0.000 C 
BRANCH  14  15
ATOM     15  N   UNL     1       4.822   4.770  17.479  0.00  0.00    +0.000 N 
ATOM     16  C   UNL     1       5.688   4.521  18.504  0.00  0.00    +0.000 C 
ATOM     17  O   UNL     1       5.702   3.591  19.287  0.00  0.00    +0.000 OA
ATOM     18  C   UNL     1       6.665   5.610  18.509  0.00  0.00    +0.000 A 
ATOM     19  C   UNL     1       7.737   5.846  19.346  0.00  0.00    +0.000 A 
ATOM     20  C   UNL     1       8.480   7.008  19.114  0.00  0.00    +0.000 A 
ATOM     21  C   UNL     1       8.137   7.889  18.068  0.00  0.00    +0.000 A 
ATOM     22  C   UNL     1       7.039   7.631  17.241  0.00  0.00    +0.000 A 
ATOM     23  C   UNL     1       6.319   6.480  17.489  0.00  0.00    +0.000 A 
ATOM     24  C   UNL     1       5.106   5.954  16.863  0.00  0.00    +0.000 C 
ATOM     25  O   UNL     1       4.465   6.523  15.997  0.00  0.00    +0.000 OA
ENDBRANCH  14  15
ENDBRANCH   7  14
TORSDOF 5
ENDMDL
MODEL 2
REMARK VINA RESULT:      -7.6      2.107      2.967
REMARK  Name = 
REMARK  7 active torsions:
REMARK  status: ('A' for Active; 'I' for Inactive)
REMARK    1  A    between atoms: C_1  and  C_2
REMARK    2  A    between atoms: C_2  and  C_3
REMARK    3  A    between atoms: C_3  and  C_4
REMARK    4  A    between atoms: C_4  and  C_5
REMARK    5  A    between atoms: N_6  and  N_7
REMARK    6  A    between atoms: N_13  and  C_14
REMARK    7  A    between atoms: C_14  and  N_15
REMARK                            x       y       z     vdW  Elec       q    Type
REMARK                         _______ _______ _______ _____ _____    ______ ____
ROOT
ATOM      1  N   UNL     1       3.301   5.997  19.597  0.00  0.00    +0.000 NA
ATOM      2  C   UNL     1       2.724   4.919  20.015  0.00  0.00    +0.000 C 
ATOM      3  S   UNL     1       1.027   4.647  20.309  0.00  0.00    +0.000 S 
ATOM      4  C   UNL     1       1.325   3.179  21.329  0.00  0.00    +0.000 C 
ATOM      5  C   UNL     1       2.770   2.822  21.124  0.00  0.00    +0.000 C 
ATOM      6  O   UNL     1       3.368   1.886  21.625  0.00  0.00    +0.000 OA
ATOM      7  N   UNL     1       3.467   3.779  20.355  0.00  0.00    +0.000 N 
ENDROOT
BRANCH   1  10
ATOM      8  C   UNL     1       2.675   7.692  18.235  0.00  0.00    +0.000 C 
ATOM      9  C   UNL     1       3.808   7.353  17.294  0.00  0.00    +0.000 C 
ATOM     10  N   UNL     1       2.441   7.061  19.348  0.00  0.00    +0.000 NA
BRANCH   8  11
ATOM     11  C   UNL     1       1.745   8.832  17.863  0.00  0.00    +0.000 C 
BRANCH  11  13
ATOM     12  C   UNL     1      -0.144  10.295  18.737  0.00  0.00    +0.000 C 
ATOM     13  C   UNL     1       1.076   9.454  19.086  0.00  0.00    +0.000 C 
ENDBRANCH  11  13
ENDBRANCH   8  11
ENDBRANCH   1  10
BRANCH   7  14
ATOM     14  C   UNL     1       4.838   3.591  19.950  0.00  0.00    +0.000 C 
BRANCH  14  15
ATOM     15  N   UNL     1       5.117   3.979  18.587  0.00  0.00    +0.000 N 
ATOM     16  C   UNL     1       4.499   3.469  17.483  0.00  0.00    +0.000 C 
ATOM     17  O   UNL     1       3.497   2.782  17.413  0.00  0.00    +0.000 OA
ATOM     18  C   UNL     1       5.269   3.913  16.321  0.00  0.00    +0.000 A 
ATOM     19  C   UNL     1       5.084   3.663  14.976  0.00  0.00    +0.000 A 
ATOM     20  C   UNL     1       6.021   4.208  14.093  0.00  0.00    +0.000 A 
ATOM     21  C   UNL     1       7.103   4.977  14.571  0.00  0.00    +0.000 A 
ATOM     22  C   UNL     1       7.272   5.206  15.941  0.00  0.00    +0.000 A 
ATOM     23  C   UNL     1       6.337   4.657  16.793  0.00  0.00    +0.000 A 
ATOM     24  C   UNL     1       6.255   4.655  18.254  0.00  0.00    +0.000 C 
ATOM     25  O   UNL     1       7.094   5.127  19.000  0.00  0.00    +0.000 OA
ENDBRANCH  14  15
ENDBRANCH   7  14
TORSDOF 5
ENDMDL
MODEL 3
REMARK VINA RESULT:      -7.5      2.565      6.446
REMARK  Name = 
REMARK  7 active torsions:
REMARK  status: ('A' for Active; 'I' for Inactive)
REMARK    1  A    between atoms: C_1  and  C_2
REMARK    2  A    between atoms: C_2  and  C_3
REMARK    3  A    between atoms: C_3  and  C_4
REMARK    4  A    between atoms: C_4  and  C_5
REMARK    5  A    between atoms: N_6  and  N_7
REMARK    6  A    between atoms: N_13  and  C_14
REMARK    7  A    between atoms: C_14  and  N_15
REMARK                            x       y       z     vdW  Elec       q    Type
REMARK                         _______ _______ _______ _____ _____    ______ ____
ROOT
ATOM      1  N   UNL     1       4.144   5.008  17.204  0.00  0.00    +0.000 NA
ATOM      2  C   UNL     1       3.317   4.257  17.855  0.00  0.00    +0.000 C 
ATOM      3  S   UNL     1       2.784   2.644  17.461  0.00  0.00    +0.000 S 
ATOM      4  C   UNL     1       1.344   2.733  18.556  0.00  0.00    +0.000 C 
ATOM      5  C   UNL     1       1.546   3.957  19.404  0.00  0.00    +0.000 C 
ATOM      6  O   UNL     1       0.805   4.367  20.280  0.00  0.00    +0.000 OA
ATOM      7  N   UNL     1       2.668   4.717  19.009  0.00  0.00    +0.000 N 
ENDROOT
BRANCH   1  10
ATOM      8  C   UNL     1       5.901   4.774  15.797  0.00  0.00    +0.000 C 
ATOM      9  C   UNL     1       6.700   5.744  16.635  0.00  0.00    +0.000 C 
ATOM     10  N   UNL     1       4.670   4.435  16.052  0.00  0.00    +0.000 NA
BRANCH   8  11
ATOM     11  C   UNL     1       6.566   4.148  14.586  0.00  0.00    +0.000 C 
BRANCH  11  13
ATOM     12  C   UNL     1       6.238   3.319  12.203  0.00  0.00    +0.000 C 
ATOM     13  C   UNL     1       5.581   3.905  13.445  0.00  0.00    +0.000 C 
ENDBRANCH  11  13
ENDBRANCH   8  11
ENDBRANCH   1  10
BRANCH   7  14
ATOM     14  C   UNL     1       3.109   5.877  19.744  0.00  0.00    +0.000 C 
BRANCH  14  15
ATOM     15  N   UNL     1       2.321   7.066  19.510  0.00  0.00    +0.000 N 
ATOM     16  C   UNL     1       2.487   7.924  18.462  0.00  0.00    +0.000 C 
ATOM     17  O   UNL     1       3.139   7.776  17.446  0.00  0.00    +0.000 OA
ATOM     18  C   UNL     1       1.699   9.119  18.763  0.00  0.00    +0.000 A 
ATOM     19  C   UNL     1       1.534  10.286  18.044  0.00  0.00    +0.000 A 
ATOM     20  C   UNL     1       0.730  11.277  18.617  0.00  0.00    +0.000 A 
ATOM     21  C   UNL     1       0.122  11.078  19.873  0.00  0.00    +0.000 A 
ATOM     22  C   UNL     1       0.314   9.889  20.585  0.00  0.00    +0.000 A 
ATOM     23  C   UNL     1       1.112   8.926  20.002  0.00  0.00    +0.000 A 
ATOM     24  C   UNL     1       1.556   7.622  20.494  0.00  0.00    +0.000 C 
ATOM     25  O   UNL     1       1.316   7.176  21.601  0.00  0.00    +0.000 OA
ENDBRANCH  14  15
ENDBRANCH   7  14
TORSDOF 5
ENDMDL
MODEL 4
REMARK VINA RESULT:      -7.4      2.466      5.045
REMARK  Name = 
REMARK  7 active torsions:
REMARK  status: ('A' for Active; 'I' for Inactive)
REMARK    1  A    between atoms: C_1  and  C_2
REMARK    2  A    between atoms: C_2  and  C_3
REMARK    3  A    between atoms: C_3  and  C_4
REMARK    4  A    between atoms: C_4  and  C_5
REMARK    5  A    between atoms: N_6  and  N_7
REMARK    6  A    between atoms: N_13  and  C_14
REMARK    7  A    between atoms: C_14  and  N_15
REMARK                            x       y       z     vdW  Elec       q    Type
REMARK                         _______ _______ _______ _____ _____    ______ ____
ROOT
ATOM      1  N   UNL     1       3.866   6.484  16.809  0.00  0.00    +0.000 NA
ATOM      2  C   UNL     1       5.102   6.318  17.153  0.00  0.00    +0.000 C 
ATOM      3  S   UNL     1       6.193   7.483  17.853  0.00  0.00    +0.000 S 
ATOM      4  C   UNL     1       7.668   6.520  17.431  0.00  0.00    +0.000 C 
ATOM      5  C   UNL     1       7.170   5.167  17.012  0.00  0.00    +0.000 C 
ATOM      6  O   UNL     1       7.848   4.217  16.661  0.00  0.00    +0.000 OA
ATOM      7  N   UNL     1       5.763   5.101  16.932  0.00  0.00    +0.000 N 
ENDROOT
BRANCH   1  10
ATOM      8  C   UNL     1       2.636   7.858  18.119  0.00  0.00    +0.000 C 
ATOM      9  C   UNL     1       2.311   6.698  19.030  0.00  0.00    +0.000 C 
ATOM     10  N   UNL     1       3.361   7.758  17.044  0.00  0.00    +0.000 NA
BRANCH   8  11
ATOM     11  C   UNL     1       2.093   9.229  18.476  0.00  0.00    +0.000 C 
BRANCH  11  13
ATOM     12  C   UNL     1      -0.153  10.412  18.647  0.00  0.00    +0.000 C 
ATOM     13  C   UNL     1       0.745   9.508  17.815  0.00  0.00    +0.000 C 
ENDBRANCH  11  13
ENDBRANCH   8  11
ENDBRANCH   1  10
BRANCH   7  14
ATOM     14  C   UNL     1       5.064   3.873  16.645  0.00  0.00    +0.000 C 
BRANCH  14  15
ATOM     15  N   UNL     1       4.161   3.443  17.688  0.00  0.00    +0.000 N 
ATOM     16  C   UNL     1       2.808   3.324  17.555  0.00  0.00    +0.000 C 
ATOM     17  O   UNL     1       2.132   3.341  16.545  0.00  0.00    +0.000 OA
ATOM     18  C   UNL     1       2.263   3.149  18.902  0.00  0.00    +0.000 A 
ATOM     19  C   UNL     1       0.958   3.001  19.327  0.00  0.00    +0.000 A 
ATOM     20  C   UNL     1       0.747   2.884  20.704  0.00  0.00    +0.000 A 
ATOM     21  C   UNL     1       1.830   2.920  21.607  0.00  0.00    +0.000 A 
ATOM     22  C   UNL     1       3.142   3.082  21.150  0.00  0.00    +0.000 A 
ATOM     23  C   UNL     1       3.326   3.196  19.788  0.00  0.00    +0.000 A 
ATOM     24  C   UNL     1       4.537   3.431  19.000  0.00  0.00    +0.000 C 
ATOM     25  O   UNL     1       5.644   3.633  19.466  0.00  0.00    +0.000 OA
ENDBRANCH  14  15
ENDBRANCH   7  14
TORSDOF 5
ENDMDL
MODEL 5
REMARK VINA RESULT:      -7.3      0.389      1.784
REMARK  Name = 
REMARK  7 active torsions:
REMARK  status: ('A' for Active; 'I' for Inactive)
REMARK    1  A    between atoms: C_1  and  C_2
REMARK    2  A    between atoms: C_2  and  C_3
REMARK    3  A    between atoms: C_3  and  C_4
REMARK    4  A    between atoms: C_4  and  C_5
REMARK    5  A    between atoms: N_6  and  N_7
REMARK    6  A    between atoms: N_13  and  C_14
REMARK    7  A    between atoms: C_14  and  N_15
REMARK                            x       y       z     vdW  Elec       q    Type
REMARK                         _______ _______ _______ _____ _____    ______ ____
ROOT
ATOM      1  N   UNL     1       2.590   6.064  19.313  0.00  0.00    +0.000 NA
ATOM      2  C   UNL     1       2.202   4.830  19.304  0.00  0.00    +0.000 C 
ATOM      3  S   UNL     1       0.936   4.091  20.247  0.00  0.00    +0.000 S 
ATOM      4  C   UNL     1       1.547   2.410  19.954  0.00  0.00    +0.000 C 
ATOM      5  C   UNL     1       2.571   2.530  18.861  0.00  0.00    +0.000 C 
ATOM      6  O   UNL     1       3.212   1.622  18.360  0.00  0.00    +0.000 OA
ATOM      7  N   UNL     1       2.846   3.869  18.511  0.00  0.00    +0.000 N 
ENDROOT
BRANCH   1  10
ATOM      8  C   UNL     1       1.652   8.082  19.722  0.00  0.00    +0.000 C 
ATOM      9  C   UNL     1       2.125   8.573  18.374  0.00  0.00    +0.000 C 
ATOM     10  N   UNL     1       1.891   6.889  20.186  0.00  0.00    +0.000 NA
BRANCH   8  11
ATOM     11  C   UNL     1       0.845   9.026  20.592  0.00  0.00    +0.000 C 
BRANCH  11  13
ATOM     12  C   UNL     1       0.145   9.420  23.006  0.00  0.00    +0.000 C 
ATOM     13  C   UNL     1       1.238   8.935  22.065  0.00  0.00    +0.000 C 
ENDBRANCH  11  13
ENDBRANCH   8  11
ENDBRANCH   1  10
BRANCH   7  14
ATOM     14  C   UNL     1       3.721   4.216  17.419  0.00  0.00    +0.000 C 
BRANCH  14  15
ATOM     15  N   UNL     1       4.729   5.198  17.751  0.00  0.00    +0.000 N 
ATOM     16  C   UNL     1       4.974   6.339  17.045  0.00  0.00    +0.000 C 
ATOM     17  O   UNL     1       4.307   6.859  16.171  0.00  0.00    +0.000 OA
ATOM     18  C   UNL     1       6.238   6.883  17.543  0.00  0.00    +0.000 A 
ATOM     19  C   UNL     1       6.941   8.007  17.160  0.00  0.00    +0.000 A 
ATOM     20  C   UNL     1       8.154   8.251  17.811  0.00  0.00    +0.000 A 
ATOM     21  C   UNL     1       8.626   7.377  18.813  0.00  0.00    +0.000 A 
ATOM     22  C   UNL     1       7.898   6.238  19.174  0.00  0.00    +0.000 A 
ATOM     23  C   UNL     1       6.705   6.017  18.517  0.00  0.00    +0.000 A 
ATOM     24  C   UNL     1       5.749   4.913  18.611  0.00  0.00    +0.000 C 
ATOM     25  O   UNL     1       5.900   3.917  19.294  0.00  0.00    +0.000 OA
ENDBRANCH  14  15
ENDBRANCH   7  14
TORSDOF 5
ENDMDL
MODEL 6
REMARK VINA RESULT:      -7.3      1.073      1.218
REMARK  Name = 
REMARK  7 active torsions:
REMARK  status: ('A' for Active; 'I' for Inactive)
REMARK    1  A    between atoms: C_1  and  C_2
REMARK    2  A    between atoms: C_2  and  C_3
REMARK    3  A    between atoms: C_3  and  C_4
REMARK    4  A    between atoms: C_4  and  C_5
REMARK    5  A    between atoms: N_6  and  N_7
REMARK    6  A    between atoms: N_13  and  C_14
REMARK    7  A    between atoms: C_14  and  N_15
REMARK                            x       y       z     vdW  Elec       q    Type
REMARK                         _______ _______ _______ _____ _____    ______ ____
ROOT
ATOM      1  N   UNL     1       2.790   5.930  18.324  0.00  0.00    +0.000 NA
ATOM      2  C   UNL     1       2.454   4.689  18.460  0.00  0.00    +0.000 C 
ATOM      3  S   UNL     1       1.182   4.017  19.444  0.00  0.00    +0.000 S 
ATOM      4  C   UNL     1       1.875   2.344  19.393  0.00  0.00    +0.000 C 
ATOM      5  C   UNL     1       2.937   2.370  18.332  0.00  0.00    +0.000 C 
ATOM      6  O   UNL     1       3.636   1.438  17.976  0.00  0.00    +0.000 OA
ATOM      7  N   UNL     1       3.170   3.666  17.822  0.00  0.00    +0.000 N 
ENDROOT
BRANCH   1  10
ATOM      8  C   UNL     1       2.127   8.066  18.671  0.00  0.00    +0.000 C 
ATOM      9  C   UNL     1       3.037   8.528  17.558  0.00  0.00    +0.000 C 
ATOM     10  N   UNL     1       2.021   6.827  19.056  0.00  0.00    +0.000 NA
BRANCH   8  11
ATOM     11  C   UNL     1       1.276   9.099  19.385  0.00  0.00    +0.000 C 
BRANCH  11  13
ATOM     12  C   UNL     1      -0.805  10.535  19.101  0.00  0.00    +0.000 C 
ATOM     13  C   UNL     1       0.394   9.888  18.421  0.00  0.00    +0.000 C 
ENDBRANCH  11  13
ENDBRANCH   8  11
ENDBRANCH   1  10
BRANCH   7  14
ATOM     14  C   UNL     1       4.076   3.911  16.727  0.00  0.00    +0.000 C 
BRANCH  14  15
ATOM     15  N   UNL     1       5.235   4.700  17.076  0.00  0.00    +0.000 N 
ATOM     16  C   UNL     1       5.953   4.572  18.230  0.00  0.00    +0.000 C 
ATOM     17  O   UNL     1       5.914   3.687  19.063  0.00  0.00    +0.000 OA
ATOM     18  C   UNL     1       6.840   5.731  18.308  0.00  0.00    +0.000 A 
ATOM     19  C   UNL     1       7.756   6.094  19.275  0.00  0.00    +0.000 A 
ATOM     20  C   UNL     1       8.444   7.296  19.082  0.00  0.00    +0.000 A 
ATOM     21  C   UNL     1       8.201   8.093  17.944  0.00  0.00    +0.000 A 
ATOM     22  C   UNL     1       7.259   7.707  16.984  0.00  0.00    +0.000 A 
ATOM     23  C   UNL     1       6.592   6.518  17.196  0.00  0.00    +0.000 A 
ATOM     24  C   UNL     1       5.525   5.868  16.434  0.00  0.00    +0.000 C 
ATOM     25  O   UNL     1       4.983   6.340  15.451  0.00  0.00    +0.000 OA
ENDBRANCH  14  15
ENDBRANCH   7  14
TORSDOF 5
ENDMDL
MODEL 7
REMARK VINA RESULT:      -7.2      2.415      4.942
REMARK  Name = 
REMARK  7 active torsions:
REMARK  status: ('A' for Active; 'I' for Inactive)
REMARK    1  A    between atoms: C_1  and  C_2
REMARK    2  A    between atoms: C_2  and  C_3
REMARK    3  A    between atoms: C_3  and  C_4
REMARK    4  A    between atoms: C_4  and  C_5
REMARK    5  A    between atoms: N_6  and  N_7
REMARK    6  A    between atoms: N_13  and  C_14
REMARK    7  A    between atoms: C_14  and  N_15
REMARK                            x       y       z     vdW  Elec       q    Type
REMARK                         _______ _______ _______ _____ _____    ______ ____
ROOT
ATOM      1  N   UNL     1       3.964   6.707  16.834  0.00  0.00    +0.000 NA
ATOM      2  C   UNL     1       5.221   6.552  17.096  0.00  0.00    +0.000 C 
ATOM      3  S   UNL     1       6.389   7.769  17.536  0.00  0.00    +0.000 S 
ATOM      4  C   UNL     1       7.806   6.714  17.132  0.00  0.00    +0.000 C 
ATOM      5  C   UNL     1       7.249   5.331  16.946  0.00  0.00    +0.000 C 
ATOM      6  O   UNL     1       7.877   4.322  16.676  0.00  0.00    +0.000 OA
ATOM      7  N   UNL     1       5.838   5.298  16.991  0.00  0.00    +0.000 N 
ENDROOT
BRANCH   1  10
ATOM      8  C   UNL     1       2.635   8.210  17.879  0.00  0.00    +0.000 C 
ATOM      9  C   UNL     1       2.113   7.119  18.783  0.00  0.00    +0.000 C 
ATOM     10  N   UNL     1       3.505   8.015  16.931  0.00  0.00    +0.000 NA
BRANCH   8  11
ATOM     11  C   UNL     1       2.126   9.624  18.086  0.00  0.00    +0.000 C 
BRANCH  11  13
ATOM     12  C   UNL     1       0.032  10.159  19.428  0.00  0.00    +0.000 C 
ATOM     13  C   UNL     1       0.601   9.695  18.095  0.00  0.00    +0.000 C 
ENDBRANCH  11  13
ENDBRANCH   8  11
ENDBRANCH   1  10
BRANCH   7  14
ATOM     14  C   UNL     1       5.095   4.063  16.936  0.00  0.00    +0.000 C 
BRANCH  14  15
ATOM     15  N   UNL     1       4.139   3.893  18.006  0.00  0.00    +0.000 N 
ATOM     16  C   UNL     1       4.456   3.646  19.310  0.00  0.00    +0.000 C 
ATOM     17  O   UNL     1       5.535   3.724  19.865  0.00  0.00    +0.000 OA
ATOM     18  C   UNL     1       3.216   3.261  19.982  0.00  0.00    +0.000 A 
ATOM     19  C   UNL     1       2.985   2.895  21.293  0.00  0.00    +0.000 A 
ATOM     20  C   UNL     1       1.675   2.544  21.635  0.00  0.00    +0.000 A 
ATOM     21  C   UNL     1       0.645   2.568  20.671  0.00  0.00    +0.000 A 
ATOM     22  C   UNL     1       0.909   2.933  19.346  0.00  0.00    +0.000 A 
ATOM     23  C   UNL     1       2.209   3.273  19.032  0.00  0.00    +0.000 A 
ATOM     24  C   UNL     1       2.823   3.637  17.755  0.00  0.00    +0.000 C 
ATOM     25  O   UNL     1       2.248   3.642  16.681  0.00  0.00    +0.000 OA
ENDBRANCH  14  15
ENDBRANCH   7  14
TORSDOF 5
ENDMDL
MODEL 8
REMARK VINA RESULT:      -7.0      2.182      3.017
REMARK  Name = 
REMARK  7 active torsions:
REMARK  status: ('A' for Active; 'I' for Inactive)
REMARK    1  A    between atoms: C_1  and  C_2
REMARK    2  A    between atoms: C_2  and  C_3
REMARK    3  A    between atoms: C_3  and  C_4
REMARK    4  A    between atoms: C_4  and  C_5
REMARK    5  A    between atoms: N_6  and  N_7
REMARK    6  A    between atoms: N_13  and  C_14
REMARK    7  A    between atoms: C_14  and  N_15
REMARK                            x       y       z     vdW  Elec       q    Type
REMARK                         _______ _______ _______ _____ _____    ______ ____
ROOT
ATOM      1  N   UNL     1       3.576   6.300  19.474  0.00  0.00    +0.000 NA
ATOM      2  C   UNL     1       3.293   5.042  19.562  0.00  0.00    +0.000 C 
ATOM      3  S   UNL     1       1.732   4.300  19.791  0.00  0.00    +0.000 S 
ATOM      4  C   UNL     1       2.439   2.719  20.323  0.00  0.00    +0.000 C 
ATOM      5  C   UNL     1       3.903   2.791  19.997  0.00  0.00    +0.000 C 
ATOM      6  O   UNL     1       4.736   1.923  20.187  0.00  0.00    +0.000 OA
ATOM      7  N   UNL     1       4.299   4.065  19.535  0.00  0.00    +0.000 N 
ENDROOT
BRANCH   1  10
ATOM      8  C   UNL     1       2.359   7.980  18.571  0.00  0.00    +0.000 C 
ATOM      9  C   UNL     1       3.334   8.066  17.420  0.00  0.00    +0.000 C 
ATOM     10  N   UNL     1       2.482   7.152  19.567  0.00  0.00    +0.000 NA
BRANCH   8  11
ATOM     11  C   UNL     1       1.158   8.907  18.570  0.00  0.00    +0.000 C 
BRANCH  11  13
ATOM     12  C   UNL     1       0.609  10.872  20.090  0.00  0.00    +0.000 C 
ATOM     13  C   UNL     1       0.779   9.364  19.977  0.00  0.00    +0.000 C 
ENDBRANCH  11  13
ENDBRANCH   8  11
ENDBRANCH   1  10
BRANCH   7  14
ATOM     14  C   UNL     1       5.637   4.334  19.070  0.00  0.00    +0.000 C 
BRANCH  14  15
ATOM     15  N   UNL     1       5.751   4.490  17.638  0.00  0.00    +0.000 N 
ATOM     16  C   UNL     1       5.024   3.799  16.713  0.00  0.00    +0.000 C 
ATOM     17  O   UNL     1       4.038   3.107  16.874  0.00  0.00    +0.000 OA
ATOM     18  C   UNL     1       5.648   4.046  15.413  0.00  0.00    +0.000 A 
ATOM     19  C   UNL     1       5.319   3.574  14.158  0.00  0.00    +0.000 A 
ATOM     20  C   UNL     1       6.137   3.967  13.095  0.00  0.00    +0.000 A 
ATOM     21  C   UNL     1       7.248   4.810  13.311  0.00  0.00    +0.000 A 
ATOM     22  C   UNL     1       7.566   5.265  14.596  0.00  0.00    +0.000 A 
ATOM     23  C   UNL     1       6.745   4.862  15.629  0.00  0.00    +0.000 A 
ATOM     24  C   UNL     1       6.829   5.105  17.070  0.00  0.00    +0.000 C 
ATOM     25  O   UNL     1       7.735   5.698  17.626  0.00  0.00    +0.000 OA
ENDBRANCH  14  15
ENDBRANCH   7  14
TORSDOF 5
ENDMDL
MODEL 9
REMARK VINA RESULT:      -6.7      2.601      6.358
REMARK  Name = 
REMARK  7 active torsions:
REMARK  status: ('A' for Active; 'I' for Inactive)
REMARK    1  A    between atoms: C_1  and  C_2
REMARK    2  A    between atoms: C_2  and  C_3
REMARK    3  A    between atoms: C_3  and  C_4
REMARK    4  A    between atoms: C_4  and  C_5
REMARK    5  A    between atoms: N_6  and  N_7
REMARK    6  A    between atoms: N_13  and  C_14
REMARK    7  A    between atoms: C_14  and  N_15
REMARK                            x       y       z     vdW  Elec       q    Type
REMARK                         _______ _______ _______ _____ _____    ______ ____
ROOT
ATOM      1  N   UNL     1       4.190   4.896  17.325  0.00  0.00    +0.000 NA
ATOM      2  C   UNL     1       3.277   4.257  17.981  0.00  0.00    +0.000 C 
ATOM      3  S   UNL     1       2.546   2.722  17.595  0.00  0.00    +0.000 S 
ATOM      4  C   UNL     1       1.131   2.995  18.693  0.00  0.00    +0.000 C 
ATOM      5  C   UNL     1       1.486   4.187  19.535  0.00  0.00    +0.000 C 
ATOM      6  O   UNL     1       0.805   4.691  20.410  0.00  0.00    +0.000 OA
ATOM      7  N   UNL     1       2.693   4.800  19.134  0.00  0.00    +0.000 N 
ENDROOT
BRANCH   1  10
ATOM      8  C   UNL     1       5.802   4.658  15.756  0.00  0.00    +0.000 C 
ATOM      9  C   UNL     1       6.603   5.757  16.413  0.00  0.00    +0.000 C 
ATOM     10  N   UNL     1       4.637   4.257  16.174  0.00  0.00    +0.000 NA
BRANCH   8  11
ATOM     11  C   UNL     1       6.386   3.970  14.536  0.00  0.00    +0.000 C 
BRANCH  11  13
ATOM     12  C   UNL     1       5.953   3.212  12.147  0.00  0.00    +0.000 C 
ATOM     13  C   UNL     1       5.423   3.976  13.352  0.00  0.00    +0.000 C 
ENDBRANCH  11  13
ENDBRANCH   8  11
ENDBRANCH   1  10
BRANCH   7  14
ATOM     14  C   UNL     1       3.278   5.899  19.863  0.00  0.00    +0.000 C 
BRANCH  14  15
ATOM     15  N   UNL     1       2.565   7.149  19.729  0.00  0.00    +0.000 N 
ATOM     16  C   UNL     1       1.648   7.629  20.619  0.00  0.00    +0.000 C 
ATOM     17  O   UNL     1       1.402   7.248  21.748  0.00  0.00    +0.000 OA
ATOM     18  C   UNL     1       0.973   8.751  19.968  0.00  0.00    +0.000 A 
ATOM     19  C   UNL     1      -0.043   9.569  20.422  0.00  0.00    +0.000 A 
ATOM     20  C   UNL     1      -0.510  10.551  19.543  0.00  0.00    +0.000 A 
ATOM     21  C   UNL     1       0.043  10.687  18.252  0.00  0.00    +0.000 A 
ATOM     22  C   UNL     1       1.064   9.838  17.814  0.00  0.00    +0.000 A 
ATOM     23  C   UNL     1       1.507   8.875  18.697  0.00  0.00    +0.000 A 
ATOM     24  C   UNL     1       2.499   7.811  18.538  0.00  0.00    +0.000 C 
ATOM     25  O   UNL     1       3.090   7.558  17.504  0.00  0.00    +0.000 OA
ENDBRANCH  14  15
ENDBRANCH   7  14
TORSDOF 5
ENDMDL
