MODEL 1
REMARK VINA RESULT:      -6.6      0.000      0.000
REMARK  Name = 
REMARK  4 active torsions:
REMARK  status: ('A' for Active; 'I' for Inactive)
REMARK    1  A    between atoms: C_1  and  C_2
REMARK    2  A    between atoms: C_2  and  O_3
REMARK    3  A    between atoms: O_3  and  C_4
REMARK    4  A    between atoms: C_4  and  C_6
REMARK                            x       y       z     vdW  Elec       q    Type
REMARK                         _______ _______ _______ _____ _____    ______ ____
ROOT
ATOM      1  C   UNL     1       6.574   4.750  16.400  0.00  0.00    +0.000 C 
ATOM      2  C   UNL     1       7.421   5.584  17.025  0.00  0.00    +0.000 C 
ATOM      3  S   UNL     1       7.094   5.731  18.717  0.00  0.00    +0.000 S 
ATOM      4  C   UNL     1       5.791   4.537  18.579  0.00  0.00    +0.000 C 
ATOM      5  N   UNL     1       5.165   4.231  19.647  0.00  0.00    +0.000 NA
ATOM      6  S   UNL     1       4.146   3.002  19.629  0.00  0.00    +0.000 S 
ATOM      7  O   UNL     1       2.926   3.412  20.298  0.00  0.00    +0.000 OA
ATOM      8  O   UNL     1       4.867   1.832  20.099  0.00  0.00    +0.000 OA
ATOM      9  C   UNL     1       3.724   2.680  17.947  0.00  0.00    +0.000 C 
ATOM     10  C   UNL     1       4.328   3.603  16.905  0.00  0.00    +0.000 C 
ATOM     11  N   UNL     1       5.644   4.111  17.262  0.00  0.00    +0.000 N 
ENDROOT
BRANCH   1  12
ATOM     12  C   UNL     1       6.765   4.712  14.916  0.00  0.00    +0.000 C 
ATOM     13  O   UNL     1       7.609   5.427  14.373  0.00  0.00    +0.000 OA
BRANCH  12  14
ATOM     14  O   UNL     1       5.970   3.861  14.235  0.00  0.00    +0.000 OA
BRANCH  14  16
ATOM     15  C   UNL     1       5.221   3.153  11.974  0.00  0.00    +0.000 C 
ATOM     16  C   UNL     1       6.341   3.727  12.834  0.00  0.00    +0.000 C 
ENDBRANCH  14  16
ENDBRANCH  12  14
ENDBRANCH   1  12
TORSDOF 3
ENDMDL
MODEL 2
REMARK VINA RESULT:      -6.5      2.438      3.079
REMARK  Name = 
REMARK  4 active torsions:
REMARK  status: ('A' for Active; 'I' for Inactive)
REMARK    1  A    between atoms: C_1  and  C_2
REMARK    2  A    between atoms: C_2  and  O_3
REMARK    3  A    between atoms: O_3  and  C_4
REMARK    4  A    between atoms: C_4  and  C_6
REMARK                            x       y       z     vdW  Elec       q    Type
REMARK                         _______ _______ _______ _____ _____    ______ ____
ROOT
ATOM      1  C   UNL     1       4.845   5.084  17.988  0.00  0.00    +0.000 C 
ATOM      2  C   UNL     1       4.395   6.350  17.978  0.00  0.00    +0.000 C 
ATOM      3  S   UNL     1       2.691   6.459  18.252  0.00  0.00    +0.000 S 
ATOM      4  C   UNL     1       2.603   4.702  18.470  0.00  0.00    +0.000 C 
ATOM      5  N   UNL     1       1.460   4.204  18.739  0.00  0.00    +0.000 NA
ATOM      6  S   UNL     1       1.361   2.670  19.172  0.00  0.00    +0.000 S 
ATOM      7  O   UNL     1       0.269   2.061  18.437  0.00  0.00    +0.000 OA
ATOM      8  O   UNL     1       1.364   2.628  20.624  0.00  0.00    +0.000 OA
ATOM      9  C   UNL     1       2.842   1.868  18.651  0.00  0.00    +0.000 C 
ATOM     10  C   UNL     1       3.845   2.717  17.893  0.00  0.00    +0.000 C 
ATOM     11  N   UNL     1       3.853   4.116  18.294  0.00  0.00    +0.000 N 
ENDROOT
BRANCH   1  12
ATOM     12  C   UNL     1       6.294   4.967  17.627  0.00  0.00    +0.000 C 
ATOM     13  O   UNL     1       7.084   4.393  18.378  0.00  0.00    +0.000 OA
BRANCH  12  14
ATOM     14  O   UNL     1       6.660   5.518  16.451  0.00  0.00    +0.000 OA
BRANCH  14  16
ATOM     15  C   UNL     1       5.716   4.282  14.513  0.00  0.00    +0.000 C 
ATOM     16  C   UNL     1       6.921   4.532  15.413  0.00  0.00    +0.000 C 
ENDBRANCH  14  16
ENDBRANCH  12  14
ENDBRANCH   1  12
TORSDOF 3
ENDMDL
MODEL 3
REMARK VINA RESULT:      -6.4      1.923      2.180
REMARK  Name = 
REMARK  4 active torsions:
REMARK  status: ('A' for Active; 'I' for Inactive)
REMARK    1  A    between atoms: C_1  and  C_2
REMARK    2  A    between atoms: C_2  and  O_3
REMARK    3  A    between atoms: O_3  and  C_4
REMARK    4  A    between atoms: C_4  and  C_6
REMARK                            x       y       z     vdW  Elec       q    Type
REMARK                         _______ _______ _______ _____ _____    ______ ____
ROOT
ATOM      1  C   UNL     1       5.239   4.747  17.167  0.00  0.00    +0.000 C 
ATOM      2  C   UNL     1       5.043   6.075  17.100  0.00  0.00    +0.000 C 
ATOM      3  S   UNL     1       3.594   6.582  17.897  0.00  0.00    +0.000 S 
ATOM      4  C   UNL     1       3.282   4.914  18.412  0.00  0.00    +0.000 C 
ATOM      5  N   UNL     1       2.240   4.708  19.118  0.00  0.00    +0.000 NA
ATOM      6  S   UNL     1       2.033   3.280  19.802  0.00  0.00    +0.000 S 
ATOM      7  O   UNL     1       0.663   2.862  19.574  0.00  0.00    +0.000 OA
ATOM      8  O   UNL     1       2.542   3.370  21.159  0.00  0.00    +0.000 OA
ATOM      9  C   UNL     1       3.068   2.126  18.961  0.00  0.00    +0.000 C 
ATOM     10  C   UNL     1       3.871   2.661  17.790  0.00  0.00    +0.000 C 
ATOM     11  N   UNL     1       4.265   4.054  17.934  0.00  0.00    +0.000 N 
ENDROOT
BRANCH   1  12
ATOM     12  C   UNL     1       6.420   4.280  16.375  0.00  0.00    +0.000 C 
ATOM     13  O   UNL     1       7.566   4.547  16.741  0.00  0.00    +0.000 OA
BRANCH  12  14
ATOM     14  O   UNL     1       6.147   3.566  15.264  0.00  0.00    +0.000 OA
BRANCH  14  16
ATOM     15  C   UNL     1       5.979   3.561  12.786  0.00  0.00    +0.000 C 
ATOM     16  C   UNL     1       6.503   4.258  14.035  0.00  0.00    +0.000 C 
ENDBRANCH  14  16
ENDBRANCH  12  14
ENDBRANCH   1  12
TORSDOF 3
ENDMDL
MODEL 4
REMARK VINA RESULT:      -6.3      2.519      5.913
REMARK  Name = 
REMARK  4 active torsions:
REMARK  status: ('A' for Active; 'I' for Inactive)
REMARK    1  A    between atoms: C_1  and  C_2
REMARK    2  A    between atoms: C_2  and  O_3
REMARK    3  A    between atoms: O_3  and  C_4
REMARK    4  A    between atoms: C_4  and  C_6
REMARK                            x       y       z     vdW  Elec       q    Type
REMARK                         _______ _______ _______ _____ _____    ______ ____
ROOT
ATOM      1  C   UNL     1       4.166   2.961  19.179  0.00  0.00    +0.000 C 
ATOM      2  C   UNL     1       3.255   2.482  18.316  0.00  0.00    +0.000 C 
ATOM      3  S   UNL     1       3.324   3.254  16.769  0.00  0.00    +0.000 S 
ATOM      4  C   UNL     1       4.713   4.219  17.302  0.00  0.00    +0.000 C 
ATOM      5  N   UNL     1       5.222   5.025  16.455  0.00  0.00    +0.000 NA
ATOM      6  S   UNL     1       6.607   5.744  16.797  0.00  0.00    +0.000 S 
ATOM      7  O   UNL     1       6.482   7.150  16.464  0.00  0.00    +0.000 OA
ATOM      8  O   UNL     1       7.667   4.952  16.198  0.00  0.00    +0.000 OA
ATOM      9  C   UNL     1       6.843   5.649  18.542  0.00  0.00    +0.000 C 
ATOM     10  C   UNL     1       5.737   4.991  19.344  0.00  0.00    +0.000 C 
ATOM     11  N   UNL     1       5.036   3.936  18.626  0.00  0.00    +0.000 N 
ENDROOT
BRANCH   1  12
ATOM     12  C   UNL     1       4.034   2.392  20.558  0.00  0.00    +0.000 C 
ATOM     13  O   UNL     1       4.990   1.838  21.103  0.00  0.00    +0.000 OA
BRANCH  12  14
ATOM     14  O   UNL     1       2.826   2.527  21.144  0.00  0.00    +0.000 OA
BRANCH  14  16
ATOM     15  C   UNL     1       1.137   4.273  20.624  0.00  0.00    +0.000 C 
ATOM     16  C   UNL     1       2.435   3.915  21.338  0.00  0.00    +0.000 C 
ENDBRANCH  14  16
ENDBRANCH  12  14
ENDBRANCH   1  12
TORSDOF 3
ENDMDL
MODEL 5
REMARK VINA RESULT:      -6.3      2.239      2.757
REMARK  Name = 
REMARK  4 active torsions:
REMARK  status: ('A' for Active; 'I' for Inactive)
REMARK    1  A    between atoms: C_1  and  C_2
REMARK    2  A    between atoms: C_2  and  O_3
REMARK    3  A    between atoms: O_3  and  C_4
REMARK    4  A    between atoms: C_4  and  C_6
REMARK                            x       y       z     vdW  Elec       q    Type
REMARK                         _______ _______ _______ _____ _____    ______ ____
ROOT
ATOM      1  C   UNL     1       5.555   5.251  17.954  0.00  0.00    +0.000 C 
ATOM      2  C   UNL     1       5.177   6.458  17.500  0.00  0.00    +0.000 C 
ATOM      3  S   UNL     1       3.526   6.825  17.862  0.00  0.00    +0.000 S 
ATOM      4  C   UNL     1       3.369   5.294  18.743  0.00  0.00    +0.000 C 
ATOM      5  N   UNL     1       2.240   5.046  19.282  0.00  0.00    +0.000 NA
ATOM      6  S   UNL     1       2.109   3.803  20.277  0.00  0.00    +0.000 S 
ATOM      7  O   UNL     1       0.906   3.070  19.931  0.00  0.00    +0.000 OA
ATOM      8  O   UNL     1       2.282   4.308  21.628  0.00  0.00    +0.000 OA
ATOM      9  C   UNL     1       3.471   2.726  19.973  0.00  0.00    +0.000 C 
ATOM     10  C   UNL     1       4.422   3.129  18.862  0.00  0.00    +0.000 C 
ATOM     11  N   UNL     1       4.555   4.568  18.694  0.00  0.00    +0.000 N 
ENDROOT
BRANCH   1  12
ATOM     12  C   UNL     1       6.942   4.868  17.538  0.00  0.00    +0.000 C 
ATOM     13  O   UNL     1       7.747   4.433  18.362  0.00  0.00    +0.000 OA
BRANCH  12  14
ATOM     14  O   UNL     1       7.237   5.029  16.231  0.00  0.00    +0.000 OA
BRANCH  14  16
ATOM     15  C   UNL     1       5.748   4.427  14.336  0.00  0.00    +0.000 C 
ATOM     16  C   UNL     1       6.735   3.950  15.394  0.00  0.00    +0.000 C 
ENDBRANCH  14  16
ENDBRANCH  12  14
ENDBRANCH   1  12
TORSDOF 3
ENDMDL
MODEL 6
REMARK VINA RESULT:      -6.2      2.611      3.572
REMARK  Name = 
REMARK  4 active torsions:
REMARK  status: ('A' for Active; 'I' for Inactive)
REMARK    1  A    between atoms: C_1  and  C_2
REMARK    2  A    between atoms: C_2  and  O_3
REMARK    3  A    between atoms: O_3  and  C_4
REMARK    4  A    between atoms: C_4  and  C_6
REMARK                            x       y       z     vdW  Elec       q    Type
REMARK                         _______ _______ _______ _____ _____    ______ ____
ROOT
ATOM      1  C   UNL     1       4.586   5.910  17.136  0.00  0.00    +0.000 C 
ATOM      2  C   UNL     1       4.084   7.102  17.500  0.00  0.00    +0.000 C 
ATOM      3  S   UNL     1       2.601   6.965  18.380  0.00  0.00    +0.000 S 
ATOM      4  C   UNL     1       2.715   5.197  18.317  0.00  0.00    +0.000 C 
ATOM      5  N   UNL     1       1.789   4.533  18.891  0.00  0.00    +0.000 NA
ATOM      6  S   UNL     1       1.957   2.955  19.068  0.00  0.00    +0.000 S 
ATOM      7  O   UNL     1       0.712   2.319  18.681  0.00  0.00    +0.000 OA
ATOM      8  O   UNL     1       2.504   2.722  20.393  0.00  0.00    +0.000 OA
ATOM      9  C   UNL     1       3.186   2.415  17.924  0.00  0.00    +0.000 C 
ATOM     10  C   UNL     1       3.778   3.472  17.011  0.00  0.00    +0.000 C 
ATOM     11  N   UNL     1       3.844   4.796  17.610  0.00  0.00    +0.000 N 
ENDROOT
BRANCH   1  12
ATOM     12  C   UNL     1       5.800   6.018  16.266  0.00  0.00    +0.000 C 
ATOM     13  O   UNL     1       5.715   5.853  15.048  0.00  0.00    +0.000 OA
BRANCH  12  14
ATOM     14  O   UNL     1       6.959   6.302  16.894  0.00  0.00    +0.000 OA
BRANCH  14  16
ATOM     15  C   UNL     1       7.781   5.769  19.177  0.00  0.00    +0.000 C 
ATOM     16  C   UNL     1       7.395   5.249  17.798  0.00  0.00    +0.000 C 
ENDBRANCH  14  16
ENDBRANCH  12  14
ENDBRANCH   1  12
TORSDOF 3
ENDMDL
MODEL 7
REMARK VINA RESULT:      -6.2      2.628      5.865
REMARK  Name = 
REMARK  4 active torsions:
REMARK  status: ('A' for Active; 'I' for Inactive)
REMARK    1  A    between atoms: C_1  and  C_2
REMARK    2  A    between atoms: C_2  and  O_3
REMARK    3  A    between atoms: O_3  and  C_4
REMARK    4  A    between atoms: C_4  and  C_6
REMARK                            x       y       z     vdW  Elec       q    Type
REMARK                         _______ _______ _______ _____ _____    ______ ____
ROOT
ATOM      1  C   UNL     1       2.613   4.297  18.310  0.00  0.00    +0.000 C 
ATOM      2  C   UNL     1       1.965   5.371  18.792  0.00  0.00    +0.000 C 
ATOM      3  S   UNL     1       2.820   6.849  18.520  0.00  0.00    +0.000 S 
ATOM      4  C   UNL     1       4.082   5.970  17.639  0.00  0.00    +0.000 C 
ATOM      5  N   UNL     1       5.044   6.656  17.158  0.00  0.00    +0.000 NA
ATOM      6  S   UNL     1       6.079   5.957  16.163  0.00  0.00    +0.000 S 
ATOM      7  O   UNL     1       7.420   6.332  16.567  0.00  0.00    +0.000 OA
ATOM      8  O   UNL     1       5.632   6.230  14.809  0.00  0.00    +0.000 OA
ATOM      9  C   UNL     1       5.944   4.213  16.387  0.00  0.00    +0.000 C 
ATOM     10  C   UNL     1       4.971   3.737  17.449  0.00  0.00    +0.000 C 
ATOM     11  N   UNL     1       3.815   4.604  17.620  0.00  0.00    +0.000 N 
ENDROOT
BRANCH   1  12
ATOM     12  C   UNL     1       1.947   3.000  18.650  0.00  0.00    +0.000 C 
ATOM     13  O   UNL     1       0.820   2.743  18.225  0.00  0.00    +0.000 OA
BRANCH  12  14
ATOM     14  O   UNL     1       2.652   2.156  19.432  0.00  0.00    +0.000 OA
BRANCH  14  16
ATOM     15  C   UNL     1       1.661   2.706  21.643  0.00  0.00    +0.000 C 
ATOM     16  C   UNL     1       2.905   2.685  20.763  0.00  0.00    +0.000 C 
ENDBRANCH  14  16
ENDBRANCH  12  14
ENDBRANCH   1  12
TORSDOF 3
ENDMDL
MODEL 8
REMARK VINA RESULT:      -6.2      2.884      5.663
REMARK  Name = 
REMARK  4 active torsions:
REMARK  status: ('A' for Active; 'I' for Inactive)
REMARK    1  A    between atoms: C_1  and  C_2
REMARK    2  A    between atoms: C_2  and  O_3
REMARK    3  A    between atoms: O_3  and  C_4
REMARK    4  A    between atoms: C_4  and  C_6
REMARK                            x       y       z     vdW  Elec       q    Type
REMARK                         _______ _______ _______ _____ _____    ______ ____
ROOT
ATOM      1  C   UNL     1       3.280   4.302  18.092  0.00  0.00    +0.000 C 
ATOM      2  C   UNL     1       2.365   5.282  18.005  0.00  0.00    +0.000 C 
ATOM      3  S   UNL     1       3.074   6.851  17.845  0.00  0.00    +0.000 S 
ATOM      4  C   UNL     1       4.693   6.128  17.818  0.00  0.00    +0.000 C 
ATOM      5  N   UNL     1       5.683   6.921  17.686  0.00  0.00    +0.000 NA
ATOM      6  S   UNL     1       7.137   6.314  17.422  0.00  0.00    +0.000 S 
ATOM      7  O   UNL     1       8.077   6.992  18.294  0.00  0.00    +0.000 OA
ATOM      8  O   UNL     1       7.355   6.317  15.986  0.00  0.00    +0.000 OA
ATOM      9  C   UNL     1       7.109   4.621  17.914  0.00  0.00    +0.000 C 
ATOM     10  C   UNL     1       5.811   4.105  18.505  0.00  0.00    +0.000 C 
ATOM     11  N   UNL     1       4.622   4.746  17.962  0.00  0.00    +0.000 N 
ENDROOT
BRANCH   1  12
ATOM     12  C   UNL     1       2.683   2.954  18.358  0.00  0.00    +0.000 C 
ATOM     13  O   UNL     1       2.015   2.383  17.495  0.00  0.00    +0.000 OA
BRANCH  12  14
ATOM     14  O   UNL     1       2.925   2.426  19.575  0.00  0.00    +0.000 OA
BRANCH  14  16
ATOM     15  C   UNL     1       2.050   3.568  21.600  0.00  0.00    +0.000 C 
ATOM     16  C   UNL     1       1.800   2.555  20.489  0.00  0.00    +0.000 C 
ENDBRANCH  14  16
ENDBRANCH  12  14
ENDBRANCH   1  12
TORSDOF 3
ENDMDL
MODEL 9
REMARK VINA RESULT:      -6.1      3.952      6.086
REMARK  Name = 
REMARK  4 active torsions:
REMARK  status: ('A' for Active; 'I' for Inactive)
REMARK    1  A    between atoms: C_1  and  C_2
REMARK    2  A    between atoms: C_2  and  O_3
REMARK    3  A    between atoms: O_3  and  C_4
REMARK    4  A    between atoms: C_4  and  C_6
REMARK                            x       y       z     vdW  Elec       q    Type
REMARK                         _______ _______ _______ _____ _____    ______ ____
ROOT
ATOM      1  C   UNL     1       3.168   6.552  18.040  0.00  0.00    +0.000 C 
ATOM      2  C   UNL     1       2.343   5.493  18.078  0.00  0.00    +0.000 C 
ATOM      3  S   UNL     1       3.129   4.014  17.645  0.00  0.00    +0.000 S 
ATOM      4  C   UNL     1       4.673   4.871  17.481  0.00  0.00    +0.000 C 
ATOM      5  N   UNL     1       5.694   4.176  17.161  0.00  0.00    +0.000 NA
ATOM      6  S   UNL     1       7.143   4.845  17.226  0.00  0.00    +0.000 S 
ATOM      7  O   UNL     1       7.855   4.503  16.010  0.00  0.00    +0.000 OA
ATOM      8  O   UNL     1       7.718   4.509  18.517  0.00  0.00    +0.000 OA
ATOM      9  C   UNL     1       6.927   6.595  17.221  0.00  0.00    +0.000 C 
ATOM     10  C   UNL     1       5.502   7.104  17.111  0.00  0.00    +0.000 C 
ATOM     11  N   UNL     1       4.516   6.231  17.729  0.00  0.00    +0.000 N 
ENDROOT
BRANCH   1  12
ATOM     12  C   UNL     1       2.473   7.855  18.290  0.00  0.00    +0.000 C 
ATOM     13  O   UNL     1       2.394   8.704  17.401  0.00  0.00    +0.000 OA
BRANCH  12  14
ATOM     14  O   UNL     1       1.953   8.026  19.523  0.00  0.00    +0.000 OA
BRANCH  14  16
ATOM     15  C   UNL     1       0.376   9.301  20.957  0.00  0.00    +0.000 C 
ATOM     16  C   UNL     1       1.139   9.226  19.640  0.00  0.00    +0.000 C 
ENDBRANCH  14  16
ENDBRANCH  12  14
ENDBRANCH   1  12
TORSDOF 3
ENDMDL
