MODEL 1
REMARK VINA RESULT:      -7.6      0.000      0.000
REMARK  Name = 
REMARK  2 active torsions:
REMARK  status: ('A' for Active; 'I' for Inactive)
REMARK    1  A    between atoms: C_1  and  C_2
REMARK    2  A    between atoms: C_18  and  C_20
REMARK                            x       y       z     vdW  Elec       q    Type
REMARK                         _______ _______ _______ _____ _____    ______ ____
ROOT
ATOM      1  C   UNL     1      -0.682  14.073  20.991  0.00  0.00    +0.000 C 
ATOM      2  C   UNL     1      -1.690  12.953  20.703  0.00  0.00    +0.000 C 
ATOM      3  C   UNL     1      -0.968  11.661  20.164  0.00  0.00    +0.000 C 
ATOM      4  C   UNL     1      -0.470  10.860  21.310  0.00  0.00    +0.000 A 
ATOM      5  C   UNL     1      -0.855  11.057  22.621  0.00  0.00    +0.000 A 
ATOM      6  N   UNL     1      -0.273  10.132  23.421  0.00  0.00    +0.000 NA
ATOM      7  N   UNL     1       0.450   9.327  22.646  0.00  0.00    +0.000 NA
ATOM      8  N   UNL     1       0.347   9.745  21.353  0.00  0.00    +0.000 N 
ATOM      9  C   UNL     1       1.024   9.058  20.296  0.00  0.00    +0.000 A 
ATOM     10  N   UNL     1       1.699   7.923  20.616  0.00  0.00    +0.000 NA
ATOM     11  C   UNL     1       2.365   7.293  19.621  0.00  0.00    +0.000 A 
ATOM     12  C   UNL     1       2.400   7.761  18.336  0.00  0.00    +0.000 A 
ATOM     13  F   UNL     1       3.078   7.135  17.371  0.00  0.00    +0.000 F 
ATOM     14  C   UNL     1       1.694   8.917  18.096  0.00  0.00    +0.000 A 
ATOM     15  N   UNL     1       0.991   9.582  19.040  0.00  0.00    +0.000 NA
ATOM     16  C   UNL     1      -1.791  12.111  23.086  0.00  0.00    +0.000 C 
ATOM     17  N   UNL     1      -2.531  12.630  21.905  0.00  0.00    +0.000 N 
ATOM     18  C   UNL     1      -3.923  12.689  22.042  0.00  0.00    +0.000 C 
ATOM     19  O   UNL     1      -4.470  12.329  23.092  0.00  0.00    +0.000 OA
ENDROOT
BRANCH  18  20
ATOM     20  C   UNL     1      -4.844  13.114  20.941  0.00  0.00    +0.000 A 
ATOM     21  C   UNL     1      -5.622  12.148  20.278  0.00  0.00    +0.000 A 
ATOM     22  C   UNL     1      -6.484  12.498  19.241  0.00  0.00    +0.000 A 
ATOM     23  C   UNL     1      -6.682  13.837  18.932  0.00  0.00    +0.000 A 
ATOM     24  C   UNL     1      -6.005  14.825  19.650  0.00  0.00    +0.000 A 
ATOM     25 CL   UNL     1      -6.409  16.467  19.268  0.00  0.00    +0.000 Cl
ATOM     26  C   UNL     1      -5.060  14.478  20.638  0.00  0.00    +0.000 A 
ATOM     27 CL   UNL     1      -4.176  15.753  21.424  0.00  0.00    +0.000 Cl
ENDBRANCH  18  20
TORSDOF 1
ENDMDL
MODEL 2
REMARK VINA RESULT:      -7.2      5.931      8.691
REMARK  Name = 
REMARK  2 active torsions:
REMARK  status: ('A' for Active; 'I' for Inactive)
REMARK    1  A    between atoms: C_1  and  C_2
REMARK    2  A    between atoms: C_18  and  C_20
REMARK                            x       y       z     vdW  Elec       q    Type
REMARK                         _______ _______ _______ _____ _____    ______ ____
ROOT
ATOM      1  C   UNL     1      -0.315   9.681  17.646  0.00  0.00    +0.000 C 
ATOM      2  C   UNL     1       1.117   9.523  18.171  0.00  0.00    +0.000 C 
ATOM      3  C   UNL     1       1.828  10.921  18.315  0.00  0.00    +0.000 C 
ATOM      4  C   UNL     1       1.463  11.528  19.620  0.00  0.00    +0.000 A 
ATOM      5  C   UNL     1       0.860  10.841  20.655  0.00  0.00    +0.000 A 
ATOM      6  N   UNL     1       0.709  11.653  21.728  0.00  0.00    +0.000 NA
ATOM      7  N   UNL     1       1.231  12.837  21.413  0.00  0.00    +0.000 NA
ATOM      8  N   UNL     1       1.700  12.789  20.135  0.00  0.00    +0.000 N 
ATOM      9  C   UNL     1       2.321  13.928  19.531  0.00  0.00    +0.000 A 
ATOM     10  N   UNL     1       2.505  15.028  20.307  0.00  0.00    +0.000 NA
ATOM     11  C   UNL     1       3.062  16.116  19.725  0.00  0.00    +0.000 A 
ATOM     12  C   UNL     1       3.418  16.153  18.405  0.00  0.00    +0.000 A 
ATOM     13  F   UNL     1       3.950  17.241  17.843  0.00  0.00    +0.000 F 
ATOM     14  C   UNL     1       3.196  15.000  17.687  0.00  0.00    +0.000 A 
ATOM     15  N   UNL     1       2.663  13.873  18.214  0.00  0.00    +0.000 NA
ATOM     16  C   UNL     1       0.461   9.412  20.611  0.00  0.00    +0.000 C 
ATOM     17  N   UNL     1       1.161   8.767  19.468  0.00  0.00    +0.000 N 
ATOM     18  C   UNL     1       1.827   7.572  19.765  0.00  0.00    +0.000 C 
ATOM     19  O   UNL     1       1.811   7.107  20.911  0.00  0.00    +0.000 OA
ENDROOT
BRANCH  18  20
ATOM     20  C   UNL     1       2.647   6.814  18.767  0.00  0.00    +0.000 A 
ATOM     21  C   UNL     1       3.651   7.484  18.046  0.00  0.00    +0.000 A 
ATOM     22  C   UNL     1       4.430   6.821  17.100  0.00  0.00    +0.000 A 
ATOM     23  C   UNL     1       4.307   5.446  16.948  0.00  0.00    +0.000 A 
ATOM     24  C   UNL     1       3.393   4.737  17.731  0.00  0.00    +0.000 A 
ATOM     25 CL   UNL     1       3.399   3.013  17.551  0.00  0.00    +0.000 Cl
ATOM     26  C   UNL     1       2.535   5.412  18.624  0.00  0.00    +0.000 A 
ATOM     27 CL   UNL     1       1.349   4.484  19.495  0.00  0.00    +0.000 Cl
ENDBRANCH  18  20
TORSDOF 1
ENDMDL
MODEL 3
REMARK VINA RESULT:      -7.0      1.423      1.661
REMARK  Name = 
REMARK  2 active torsions:
REMARK  status: ('A' for Active; 'I' for Inactive)
REMARK    1  A    between atoms: C_1  and  C_2
REMARK    2  A    between atoms: C_18  and  C_20
REMARK                            x       y       z     vdW  Elec       q    Type
REMARK                         _______ _______ _______ _____ _____    ______ ____
ROOT
ATOM      1  C   UNL     1      -0.982  14.461  21.254  0.00  0.00    +0.000 C 
ATOM      2  C   UNL     1      -1.971  13.383  20.793  0.00  0.00    +0.000 C 
ATOM      3  C   UNL     1      -1.218  12.154  20.157  0.00  0.00    +0.000 C 
ATOM      4  C   UNL     1      -0.782  11.232  21.236  0.00  0.00    +0.000 A 
ATOM      5  C   UNL     1      -1.238  11.289  22.538  0.00  0.00    +0.000 A 
ATOM      6  N   UNL     1      -0.699  10.280  23.265  0.00  0.00    +0.000 NA
ATOM      7  N   UNL     1       0.067   9.560  22.448  0.00  0.00    +0.000 NA
ATOM      8  N   UNL     1       0.034  10.116  21.204  0.00  0.00    +0.000 N 
ATOM      9  C   UNL     1       0.768   9.543  20.117  0.00  0.00    +0.000 A 
ATOM     10  N   UNL     1       1.427   8.377  20.350  0.00  0.00    +0.000 NA
ATOM     11  C   UNL     1       2.148   7.855  19.332  0.00  0.00    +0.000 A 
ATOM     12  C   UNL     1       2.253   8.458  18.108  0.00  0.00    +0.000 A 
ATOM     13  F   UNL     1       2.983   7.937  17.119  0.00  0.00    +0.000 F 
ATOM     14  C   UNL     1       1.558   9.636  17.955  0.00  0.00    +0.000 A 
ATOM     15  N   UNL     1       0.803  10.199  18.925  0.00  0.00    +0.000 NA
ATOM     16  C   UNL     1      -2.200  12.289  23.062  0.00  0.00    +0.000 C 
ATOM     17  N   UNL     1      -2.875  12.936  21.905  0.00  0.00    +0.000 N 
ATOM     18  C   UNL     1      -4.274  12.985  21.972  0.00  0.00    +0.000 C 
ATOM     19  O   UNL     1      -4.876  12.516  22.945  0.00  0.00    +0.000 OA
ENDROOT
BRANCH  18  20
ATOM     20  C   UNL     1      -5.134  13.530  20.874  0.00  0.00    +0.000 A 
ATOM     21  C   UNL     1      -5.657  14.830  20.987  0.00  0.00    +0.000 A 
ATOM     22  C   UNL     1      -6.470  15.373  19.995  0.00  0.00    +0.000 A 
ATOM     23  C   UNL     1      -6.672  14.675  18.812  0.00  0.00    +0.000 A 
ATOM     24  C   UNL     1      -6.074  13.427  18.627  0.00  0.00    +0.000 A 
ATOM     25 CL   UNL     1      -6.290  12.691  17.073  0.00  0.00    +0.000 Cl
ATOM     26  C   UNL     1      -5.325  12.828  19.662  0.00  0.00    +0.000 A 
ATOM     27 CL   UNL     1      -4.691  11.228  19.408  0.00  0.00    +0.000 Cl
ENDBRANCH  18  20
TORSDOF 1
ENDMDL
MODEL 4
REMARK VINA RESULT:      -6.9      4.315      7.223
REMARK  Name = 
REMARK  2 active torsions:
REMARK  status: ('A' for Active; 'I' for Inactive)
REMARK    1  A    between atoms: C_1  and  C_2
REMARK    2  A    between atoms: C_18  and  C_20
REMARK                            x       y       z     vdW  Elec       q    Type
REMARK                         _______ _______ _______ _____ _____    ______ ____
ROOT
ATOM      1  C   UNL     1      -0.184  11.409  18.482  0.00  0.00    +0.000 C 
ATOM      2  C   UNL     1      -0.062  12.728  19.256  0.00  0.00    +0.000 C 
ATOM      3  C   UNL     1      -1.415  13.094  19.974  0.00  0.00    +0.000 C 
ATOM      4  C   UNL     1      -1.488  12.386  21.277  0.00  0.00    +0.000 A 
ATOM      5  C   UNL     1      -0.415  11.769  21.887  0.00  0.00    +0.000 A 
ATOM      6  N   UNL     1      -0.788  11.266  23.088  0.00  0.00    +0.000 NA
ATOM      7  N   UNL     1      -2.069  11.575  23.274  0.00  0.00    +0.000 NA
ATOM      8  N   UNL     1      -2.522  12.261  22.187  0.00  0.00    +0.000 N 
ATOM      9  C   UNL     1      -3.874  12.726  22.115  0.00  0.00    +0.000 A 
ATOM     10  N   UNL     1      -4.662  12.536  23.206  0.00  0.00    +0.000 NA
ATOM     11  C   UNL     1      -5.948  12.946  23.123  0.00  0.00    +0.000 A 
ATOM     12  C   UNL     1      -6.478  13.513  21.997  0.00  0.00    +0.000 A 
ATOM     13  F   UNL     1      -7.756  13.896  21.927  0.00  0.00    +0.000 F 
ATOM     14  C   UNL     1      -5.616  13.666  20.936  0.00  0.00    +0.000 A 
ATOM     15  N   UNL     1      -4.315  13.297  20.961  0.00  0.00    +0.000 NA
ATOM     16  C   UNL     1       0.957  11.692  21.326  0.00  0.00    +0.000 C 
ATOM     17  N   UNL     1       1.073  12.700  20.239  0.00  0.00    +0.000 N 
ATOM     18  C   UNL     1       2.192  13.540  20.311  0.00  0.00    +0.000 C 
ATOM     19  O   UNL     1       3.013  13.420  21.228  0.00  0.00    +0.000 OA
ENDROOT
BRANCH  18  20
ATOM     20  C   UNL     1       2.445  14.662  19.352  0.00  0.00    +0.000 A 
ATOM     21  C   UNL     1       3.330  14.467  18.277  0.00  0.00    +0.000 A 
ATOM     22  C   UNL     1       3.603  15.486  17.368  0.00  0.00    +0.000 A 
ATOM     23  C   UNL     1       2.898  16.680  17.441  0.00  0.00    +0.000 A 
ATOM     24  C   UNL     1       1.932  16.861  18.433  0.00  0.00    +0.000 A 
ATOM     25 CL   UNL     1       1.026  18.337  18.367  0.00  0.00    +0.000 Cl
ATOM     26  C   UNL     1       1.715  15.871  19.414  0.00  0.00    +0.000 A 
ATOM     27 CL   UNL     1       0.571  16.199  20.683  0.00  0.00    +0.000 Cl
ENDBRANCH  18  20
TORSDOF 1
ENDMDL
MODEL 5
REMARK VINA RESULT:      -6.6      4.940      5.713
REMARK  Name = 
REMARK  2 active torsions:
REMARK  status: ('A' for Active; 'I' for Inactive)
REMARK    1  A    between atoms: C_1  and  C_2
REMARK    2  A    between atoms: C_18  and  C_20
REMARK                            x       y       z     vdW  Elec       q    Type
REMARK                         _______ _______ _______ _____ _____    ______ ____
ROOT
ATOM      1  C   UNL     1      -0.294  15.858  18.908  0.00  0.00    +0.000 C 
ATOM      2  C   UNL     1       0.181  14.409  19.071  0.00  0.00    +0.000 C 
ATOM      3  C   UNL     1       1.748  14.307  18.957  0.00  0.00    +0.000 C 
ATOM      4  C   UNL     1       2.358  14.610  20.276  0.00  0.00    +0.000 A 
ATOM      5  C   UNL     1       1.656  14.660  21.464  0.00  0.00    +0.000 A 
ATOM      6  N   UNL     1       2.502  14.901  22.495  0.00  0.00    +0.000 NA
ATOM      7  N   UNL     1       3.734  14.976  21.996  0.00  0.00    +0.000 NA
ATOM      8  N   UNL     1       3.677  14.800  20.646  0.00  0.00    +0.000 N 
ATOM      9  C   UNL     1       4.864  14.828  19.845  0.00  0.00    +0.000 A 
ATOM     10  N   UNL     1       6.054  14.947  20.490  0.00  0.00    +0.000 NA
ATOM     11  C   UNL     1       7.171  15.007  19.730  0.00  0.00    +0.000 A 
ATOM     12  C   UNL     1       7.143  14.974  18.362  0.00  0.00    +0.000 A 
ATOM     13  F   UNL     1       8.255  15.052  17.627  0.00  0.00    +0.000 F 
ATOM     14  C   UNL     1       5.899  14.855  17.787  0.00  0.00    +0.000 A 
ATOM     15  N   UNL     1       4.747  14.770  18.490  0.00  0.00    +0.000 NA
ATOM     16  C   UNL     1       0.194  14.450  21.600  0.00  0.00    +0.000 C 
ATOM     17  N   UNL     1      -0.301  13.800  20.357  0.00  0.00    +0.000 N 
ATOM     18  C   UNL     1      -1.098  12.664  20.545  0.00  0.00    +0.000 C 
ATOM     19  O   UNL     1      -1.359  12.257  21.684  0.00  0.00    +0.000 OA
ENDROOT
BRANCH  18  20
ATOM     20  C   UNL     1      -1.629  11.832  19.419  0.00  0.00    +0.000 A 
ATOM     21  C   UNL     1      -0.778  10.918  18.774  0.00  0.00    +0.000 A 
ATOM     22  C   UNL     1      -1.227  10.131  17.715  0.00  0.00    +0.000 A 
ATOM     23  C   UNL     1      -2.570  10.152  17.364  0.00  0.00    +0.000 A 
ATOM     24  C   UNL     1      -3.461  10.971  18.061  0.00  0.00    +0.000 A 
ATOM     25 CL   UNL     1      -5.133  10.836  17.625  0.00  0.00    +0.000 Cl
ATOM     26  C   UNL     1      -2.999  11.839  19.072  0.00  0.00    +0.000 A 
ATOM     27 CL   UNL     1      -4.142  12.908  19.832  0.00  0.00    +0.000 Cl
ENDBRANCH  18  20
TORSDOF 1
ENDMDL
MODEL 6
REMARK VINA RESULT:      -6.6      8.141     10.977
REMARK  Name = 
REMARK  2 active torsions:
REMARK  status: ('A' for Active; 'I' for Inactive)
REMARK    1  A    between atoms: C_1  and  C_2
REMARK    2  A    between atoms: C_18  and  C_20
REMARK                            x       y       z     vdW  Elec       q    Type
REMARK                         _______ _______ _______ _____ _____    ______ ____
ROOT
ATOM      1  C   UNL     1       6.107  16.172  21.911  0.00  0.00    +0.000 C 
ATOM      2  C   UNL     1       6.230  15.223  20.713  0.00  0.00    +0.000 C 
ATOM      3  C   UNL     1       4.844  14.562  20.363  0.00  0.00    +0.000 C 
ATOM      4  C   UNL     1       4.064  15.483  19.499  0.00  0.00    +0.000 A 
ATOM      5  C   UNL     1       4.594  16.585  18.858  0.00  0.00    +0.000 A 
ATOM      6  N   UNL     1       3.645  17.185  18.101  0.00  0.00    +0.000 NA
ATOM      7  N   UNL     1       2.526  16.473  18.219  0.00  0.00    +0.000 NA
ATOM      8  N   UNL     1       2.752  15.428  19.063  0.00  0.00    +0.000 N 
ATOM      9  C   UNL     1       1.718  14.488  19.372  0.00  0.00    +0.000 A 
ATOM     10  N   UNL     1       0.531  14.626  18.725  0.00  0.00    +0.000 NA
ATOM     11  C   UNL     1      -0.456  13.757  19.043  0.00  0.00    +0.000 A 
ATOM     12  C   UNL     1      -0.312  12.780  19.989  0.00  0.00    +0.000 A 
ATOM     13  F   UNL     1      -1.303  11.943  20.303  0.00  0.00    +0.000 F 
ATOM     14  C   UNL     1       0.919  12.710  20.600  0.00  0.00    +0.000 A 
ATOM     15  N   UNL     1       1.953  13.533  20.313  0.00  0.00    +0.000 NA
ATOM     16  C   UNL     1       6.006  17.032  18.959  0.00  0.00    +0.000 C 
ATOM     17  N   UNL     1       6.811  15.910  19.510  0.00  0.00    +0.000 N 
ATOM     18  C   UNL     1       7.975  15.594  18.796  0.00  0.00    +0.000 C 
ATOM     19  O   UNL     1       8.286  16.230  17.782  0.00  0.00    +0.000 OA
ENDROOT
BRANCH  18  20
ATOM     20  C   UNL     1       8.877  14.453  19.151  0.00  0.00    +0.000 A 
ATOM     21  C   UNL     1       9.787  14.596  20.214  0.00  0.00    +0.000 A 
ATOM     22  C   UNL     1      10.651  13.564  20.572  0.00  0.00    +0.000 A 
ATOM     23  C   UNL     1      10.536  12.324  19.957  0.00  0.00    +0.000 A 
ATOM     24  C   UNL     1       9.566  12.121  18.973  0.00  0.00    +0.000 A 
ATOM     25 CL   UNL     1       9.423  10.509  18.352  0.00  0.00    +0.000 Cl
ATOM     26  C   UNL     1       8.748  13.186  18.539  0.00  0.00    +0.000 A 
ATOM     27 CL   UNL     1       7.630  12.895  17.239  0.00  0.00    +0.000 Cl
ENDBRANCH  18  20
TORSDOF 1
ENDMDL
MODEL 7
REMARK VINA RESULT:      -6.6      4.369      6.862
REMARK  Name = 
REMARK  2 active torsions:
REMARK  status: ('A' for Active; 'I' for Inactive)
REMARK    1  A    between atoms: C_1  and  C_2
REMARK    2  A    between atoms: C_18  and  C_20
REMARK                            x       y       z     vdW  Elec       q    Type
REMARK                         _______ _______ _______ _____ _____    ______ ____
ROOT
ATOM      1  C   UNL     1       0.996  10.677  21.307  0.00  0.00    +0.000 C 
ATOM      2  C   UNL     1       0.900  12.011  20.556  0.00  0.00    +0.000 C 
ATOM      3  C   UNL     1      -0.142  11.928  19.378  0.00  0.00    +0.000 C 
ATOM      4  C   UNL     1      -1.506  12.176  19.908  0.00  0.00    +0.000 A 
ATOM      5  C   UNL     1      -1.771  12.701  21.157  0.00  0.00    +0.000 A 
ATOM      6  N   UNL     1      -3.106  12.862  21.322  0.00  0.00    +0.000 NA
ATOM      7  N   UNL     1      -3.699  12.480  20.193  0.00  0.00    +0.000 NA
ATOM      8  N   UNL     1      -2.749  12.059  19.312  0.00  0.00    +0.000 N 
ATOM      9  C   UNL     1      -3.103  11.593  18.006  0.00  0.00    +0.000 A 
ATOM     10  N   UNL     1      -4.412  11.669  17.646  0.00  0.00    +0.000 NA
ATOM     11  C   UNL     1      -4.750  11.197  16.424  0.00  0.00    +0.000 A 
ATOM     12  C   UNL     1      -3.844  10.638  15.565  0.00  0.00    +0.000 A 
ATOM     13  F   UNL     1      -4.199  10.161  14.370  0.00  0.00    +0.000 F 
ATOM     14  C   UNL     1      -2.541  10.596  16.006  0.00  0.00    +0.000 A 
ATOM     15  N   UNL     1      -2.134  11.069  17.206  0.00  0.00    +0.000 NA
ATOM     16  C   UNL     1      -0.743  13.065  22.164  0.00  0.00    +0.000 C 
ATOM     17  N   UNL     1       0.572  13.152  21.477  0.00  0.00    +0.000 N 
ATOM     18  C   UNL     1       1.308  14.318  21.724  0.00  0.00    +0.000 C 
ATOM     19  O   UNL     1       0.865  15.196  22.474  0.00  0.00    +0.000 OA
ENDROOT
BRANCH  18  20
ATOM     20  C   UNL     1       2.620  14.621  21.069  0.00  0.00    +0.000 A 
ATOM     21  C   UNL     1       3.813  14.416  21.784  0.00  0.00    +0.000 A 
ATOM     22  C   UNL     1       5.055  14.695  21.217  0.00  0.00    +0.000 A 
ATOM     23  C   UNL     1       5.135  15.062  19.881  0.00  0.00    +0.000 A 
ATOM     24  C   UNL     1       3.972  15.167  19.116  0.00  0.00    +0.000 A 
ATOM     25 CL   UNL     1       4.187  15.516  17.431  0.00  0.00    +0.000 Cl
ATOM     26  C   UNL     1       2.704  14.978  19.704  0.00  0.00    +0.000 A 
ATOM     27 CL   UNL     1       1.289  15.223  18.722  0.00  0.00    +0.000 Cl
ENDBRANCH  18  20
TORSDOF 1
ENDMDL
MODEL 8
REMARK VINA RESULT:      -6.5      9.737     12.152
REMARK  Name = 
REMARK  2 active torsions:
REMARK  status: ('A' for Active; 'I' for Inactive)
REMARK    1  A    between atoms: C_1  and  C_2
REMARK    2  A    between atoms: C_18  and  C_20
REMARK                            x       y       z     vdW  Elec       q    Type
REMARK                         _______ _______ _______ _____ _____    ______ ____
ROOT
ATOM      1  C   UNL     1       8.403  17.110  21.354  0.00  0.00    +0.000 C 
ATOM      2  C   UNL     1       8.483  15.670  20.830  0.00  0.00    +0.000 C 
ATOM      3  C   UNL     1       8.159  14.631  21.968  0.00  0.00    +0.000 C 
ATOM      4  C   UNL     1       6.688  14.463  22.078  0.00  0.00    +0.000 A 
ATOM      5  C   UNL     1       5.783  14.904  21.133  0.00  0.00    +0.000 A 
ATOM      6  N   UNL     1       4.526  14.550  21.492  0.00  0.00    +0.000 NA
ATOM      7  N   UNL     1       4.610  13.865  22.631  0.00  0.00    +0.000 NA
ATOM      8  N   UNL     1       5.917  13.794  23.011  0.00  0.00    +0.000 N 
ATOM      9  C   UNL     1       6.305  13.108  24.206  0.00  0.00    +0.000 A 
ATOM     10  N   UNL     1       5.335  12.456  24.898  0.00  0.00    +0.000 NA
ATOM     11  C   UNL     1       5.697  11.836  26.045  0.00  0.00    +0.000 A 
ATOM     12  C   UNL     1       6.975  11.861  26.532  0.00  0.00    +0.000 A 
ATOM     13  F   UNL     1       7.312  11.259  27.675  0.00  0.00    +0.000 F 
ATOM     14  C   UNL     1       7.897  12.546  25.773  0.00  0.00    +0.000 A 
ATOM     15  N   UNL     1       7.604  13.168  24.609  0.00  0.00    +0.000 NA
ATOM     16  C   UNL     1       6.136  15.633  19.890  0.00  0.00    +0.000 C 
ATOM     17  N   UNL     1       7.591  15.454  19.642  0.00  0.00    +0.000 N 
ATOM     18  C   UNL     1       7.937  15.042  18.349  0.00  0.00    +0.000 C 
ATOM     19  O   UNL     1       7.066  14.852  17.491  0.00  0.00    +0.000 OA
ENDROOT
BRANCH  18  20
ATOM     20  C   UNL     1       9.342  14.739  17.927  0.00  0.00    +0.000 A 
ATOM     21  C   UNL     1      10.170  15.785  17.483  0.00  0.00    +0.000 A 
ATOM     22  C   UNL     1      11.480  15.547  17.071  0.00  0.00    +0.000 A 
ATOM     23  C   UNL     1      12.028  14.280  17.216  0.00  0.00    +0.000 A 
ATOM     24  C   UNL     1      11.261  13.246  17.758  0.00  0.00    +0.000 A 
ATOM     25 CL   UNL     1      12.072  11.734  18.007  0.00  0.00    +0.000 Cl
ATOM     26  C   UNL     1       9.906  13.454  18.091  0.00  0.00    +0.000 A 
ATOM     27 CL   UNL     1       8.977  12.100  18.665  0.00  0.00    +0.000 Cl
ENDBRANCH  18  20
TORSDOF 1
ENDMDL
MODEL 9
REMARK VINA RESULT:      -6.3      4.050      5.856
REMARK  Name = 
REMARK  2 active torsions:
REMARK  status: ('A' for Active; 'I' for Inactive)
REMARK    1  A    between atoms: C_1  and  C_2
REMARK    2  A    between atoms: C_18  and  C_20
REMARK                            x       y       z     vdW  Elec       q    Type
REMARK                         _______ _______ _______ _____ _____    ______ ____
ROOT
ATOM      1  C   UNL     1      -3.151  12.106  23.692  0.00  0.00    +0.000 C 
ATOM      2  C   UNL     1      -3.366  13.379  22.865  0.00  0.00    +0.000 C 
ATOM      3  C   UNL     1      -3.332  13.068  21.321  0.00  0.00    +0.000 C 
ATOM      4  C   UNL     1      -4.673  12.607  20.881  0.00  0.00    +0.000 A 
ATOM      5  C   UNL     1      -5.824  12.736  21.633  0.00  0.00    +0.000 A 
ATOM      6  N   UNL     1      -6.890  12.275  20.936  0.00  0.00    +0.000 NA
ATOM      7  N   UNL     1      -6.451  11.884  19.742  0.00  0.00    +0.000 NA
ATOM      8  N   UNL     1      -5.103  12.077  19.679  0.00  0.00    +0.000 N 
ATOM      9  C   UNL     1      -4.361  11.745  18.501  0.00  0.00    +0.000 A 
ATOM     10  N   UNL     1      -5.061  11.315  17.419  0.00  0.00    +0.000 NA
ATOM     11  C   UNL     1      -4.356  10.969  16.317  0.00  0.00    +0.000 A 
ATOM     12  C   UNL     1      -2.989  11.017  16.264  0.00  0.00    +0.000 A 
ATOM     13  F   UNL     1      -2.308  10.656  15.174  0.00  0.00    +0.000 F 
ATOM     14  C   UNL     1      -2.356  11.461  17.402  0.00  0.00    +0.000 A 
ATOM     15  N   UNL     1      -3.003  11.840  18.527  0.00  0.00    +0.000 NA
ATOM     16  C   UNL     1      -5.892  13.320  22.996  0.00  0.00    +0.000 C 
ATOM     17  N   UNL     1      -4.639  14.084  23.238  0.00  0.00    +0.000 N 
ATOM     18  C   UNL     1      -4.810  15.388  23.720  0.00  0.00    +0.000 C 
ATOM     19  O   UNL     1      -5.943  15.842  23.925  0.00  0.00    +0.000 OA
ENDROOT
BRANCH  18  20
ATOM     20  C   UNL     1      -3.676  16.337  23.955  0.00  0.00    +0.000 A 
ATOM     21  C   UNL     1      -3.135  16.460  25.247  0.00  0.00    +0.000 A 
ATOM     22  C   UNL     1      -2.087  17.338  25.514  0.00  0.00    +0.000 A 
ATOM     23  C   UNL     1      -1.474  18.016  24.469  0.00  0.00    +0.000 A 
ATOM     24  C   UNL     1      -1.920  17.828  23.159  0.00  0.00    +0.000 A 
ATOM     25 CL   UNL     1      -1.015  18.627  21.915  0.00  0.00    +0.000 Cl
ATOM     26  C   UNL     1      -3.040  17.014  22.890  0.00  0.00    +0.000 A 
ATOM     27 CL   UNL     1      -3.609  16.902  21.250  0.00  0.00    +0.000 Cl
ENDBRANCH  18  20
TORSDOF 1
ENDMDL
