MODEL 1
REMARK VINA RESULT:      -6.6      0.000      0.000
REMARK  Name = 
REMARK  6 active torsions:
REMARK  status: ('A' for Active; 'I' for Inactive)
REMARK    1  A    between atoms: C_1  and  C_2
REMARK    2  A    between atoms: C_2  and  C_4
REMARK    3  A    between atoms: N_7  and  C_8
REMARK    4  A    between atoms: C_11  and  C_12
REMARK    5  A    between atoms: C_13  and  C_14
REMARK    6  A    between atoms: C_17  and  C_18
REMARK                            x       y       z     vdW  Elec       q    Type
REMARK                         _______ _______ _______ _____ _____    ______ ____
ROOT
ATOM      1  C   UNL     1       2.790   4.473  19.040  0.00  0.00    +0.000 A 
ATOM      2  S   UNL     1       3.981   3.255  18.828  0.00  0.00    +0.000 S 
ATOM      3  C   UNL     1       4.848   4.263  17.736  0.00  0.00    +0.000 A 
ATOM      4  N   UNL     1       5.948   3.785  17.102  0.00  0.00    +0.000 N 
ATOM      5  N   UNL     1       4.338   5.465  17.609  0.00  0.00    +0.000 NA
ATOM      6  C   UNL     1       3.165   5.600  18.327  0.00  0.00    +0.000 A 
ATOM      7  C   UNL     1       2.453   6.904  18.233  0.00  0.00    +0.000 C 
ATOM      8  H   UNL     1       6.263   2.865  17.377  0.00  0.00    +0.000 HD
ENDROOT
BRANCH   4   9
ATOM      9  C   UNL     1       6.352   4.123  15.790  0.00  0.00    +0.000 A 
ATOM     10  C   UNL     1       7.400   5.001  15.505  0.00  0.00    +0.000 A 
ATOM     11  C   UNL     1       7.747   5.318  14.191  0.00  0.00    +0.000 A 
ATOM     12  C   UNL     1       7.068   4.747  13.110  0.00  0.00    +0.000 A 
ATOM     13  C   UNL     1       7.458   5.165  11.719  0.00  0.00    +0.000 C 
ATOM     14  C   UNL     1       6.050   3.812  13.366  0.00  0.00    +0.000 A 
ATOM     15  C   UNL     1       5.291   3.111  12.272  0.00  0.00    +0.000 C 
ATOM     16  C   UNL     1       5.714   3.506  14.701  0.00  0.00    +0.000 A 
ENDBRANCH   4   9
BRANCH   1  18
ATOM     17  C   UNL     1       0.756   3.048  19.629  0.00  0.00    +0.000 C 
ATOM     18  C   UNL     1       1.600   4.281  19.854  0.00  0.00    +0.000 C 
ATOM     19  O   UNL     1       1.249   5.094  20.712  0.00  0.00    +0.000 OA
ENDBRANCH   1  18
TORSDOF 2
ENDMDL
MODEL 2
REMARK VINA RESULT:      -6.6      4.646      8.244
REMARK  Name = 
REMARK  6 active torsions:
REMARK  status: ('A' for Active; 'I' for Inactive)
REMARK    1  A    between atoms: C_1  and  C_2
REMARK    2  A    between atoms: C_2  and  C_4
REMARK    3  A    between atoms: N_7  and  C_8
REMARK    4  A    between atoms: C_11  and  C_12
REMARK    5  A    between atoms: C_13  and  C_14
REMARK    6  A    between atoms: C_17  and  C_18
REMARK                            x       y       z     vdW  Elec       q    Type
REMARK                         _______ _______ _______ _____ _____    ______ ____
ROOT
ATOM      1  C   UNL     1       2.097   3.951  19.117  0.00  0.00    +0.000 A 
ATOM      2  S   UNL     1       2.351   5.416  18.259  0.00  0.00    +0.000 S 
ATOM      3  C   UNL     1       2.136   6.325  19.705  0.00  0.00    +0.000 A 
ATOM      4  N   UNL     1       2.138   7.680  19.659  0.00  0.00    +0.000 N 
ATOM      5  N   UNL     1       1.981   5.583  20.776  0.00  0.00    +0.000 NA
ATOM      6  C   UNL     1       1.941   4.238  20.464  0.00  0.00    +0.000 A 
ATOM      7  C   UNL     1       1.721   3.283  21.584  0.00  0.00    +0.000 C 
ATOM      8  H   UNL     1       2.360   8.101  18.766  0.00  0.00    +0.000 HD
ENDROOT
BRANCH   4   9
ATOM      9  C   UNL     1       1.362   8.532  20.478  0.00  0.00    +0.000 A 
ATOM     10  C   UNL     1       1.400   8.510  21.873  0.00  0.00    +0.000 A 
ATOM     11  C   UNL     1       0.598   9.359  22.637  0.00  0.00    +0.000 A 
ATOM     12  C   UNL     1      -0.260  10.279  22.027  0.00  0.00    +0.000 A 
ATOM     13  C   UNL     1      -1.134  11.132  22.904  0.00  0.00    +0.000 C 
ATOM     14  C   UNL     1      -0.274  10.367  20.624  0.00  0.00    +0.000 A 
ATOM     15  C   UNL     1      -1.128  11.354  19.876  0.00  0.00    +0.000 C 
ATOM     16  C   UNL     1       0.544   9.500  19.870  0.00  0.00    +0.000 A 
ENDBRANCH   4   9
BRANCH   1  18
ATOM     17  C   UNL     1       3.370   1.987  18.100  0.00  0.00    +0.000 C 
ATOM     18  C   UNL     1       2.063   2.650  18.467  0.00  0.00    +0.000 C 
ATOM     19  O   UNL     1       1.007   2.076  18.194  0.00  0.00    +0.000 OA
ENDBRANCH   1  18
TORSDOF 2
ENDMDL
MODEL 3
REMARK VINA RESULT:      -6.4      4.601      6.679
REMARK  Name = 
REMARK  6 active torsions:
REMARK  status: ('A' for Active; 'I' for Inactive)
REMARK    1  A    between atoms: C_1  and  C_2
REMARK    2  A    between atoms: C_2  and  C_4
REMARK    3  A    between atoms: N_7  and  C_8
REMARK    4  A    between atoms: C_11  and  C_12
REMARK    5  A    between atoms: C_13  and  C_14
REMARK    6  A    between atoms: C_17  and  C_18
REMARK                            x       y       z     vdW  Elec       q    Type
REMARK                         _______ _______ _______ _____ _____    ______ ____
ROOT
ATOM      1  C   UNL     1       0.357   9.851  20.259  0.00  0.00    +0.000 A 
ATOM      2  S   UNL     1       0.415   8.734  21.562  0.00  0.00    +0.000 S 
ATOM      3  C   UNL     1       1.488   7.722  20.674  0.00  0.00    +0.000 A 
ATOM      4  N   UNL     1       1.869   6.526  21.187  0.00  0.00    +0.000 N 
ATOM      5  N   UNL     1       1.856   8.228  19.521  0.00  0.00    +0.000 NA
ATOM      6  C   UNL     1       1.217   9.425  19.260  0.00  0.00    +0.000 A 
ATOM      7  C   UNL     1       1.508  10.085  17.959  0.00  0.00    +0.000 C 
ATOM      8  H   UNL     1       1.566   6.323  22.130  0.00  0.00    +0.000 HD
ENDROOT
BRANCH   4   9
ATOM      9  C   UNL     1       2.125   5.355  20.438  0.00  0.00    +0.000 A 
ATOM     10  C   UNL     1       1.185   4.342  20.241  0.00  0.00    +0.000 A 
ATOM     11  C   UNL     1       1.494   3.194  19.509  0.00  0.00    +0.000 A 
ATOM     12  C   UNL     1       2.755   3.030  18.929  0.00  0.00    +0.000 A 
ATOM     13  C   UNL     1       3.043   1.750  18.193  0.00  0.00    +0.000 C 
ATOM     14  C   UNL     1       3.702   4.061  19.058  0.00  0.00    +0.000 A 
ATOM     15  C   UNL     1       5.069   3.999  18.434  0.00  0.00    +0.000 C 
ATOM     16  C   UNL     1       3.370   5.213  19.802  0.00  0.00    +0.000 A 
ENDBRANCH   4   9
BRANCH   1  18
ATOM     17  C   UNL     1      -0.198  12.123  21.281  0.00  0.00    +0.000 C 
ATOM     18  C   UNL     1      -0.486  11.036  20.272  0.00  0.00    +0.000 C 
ATOM     19  O   UNL     1      -1.434  11.180  19.497  0.00  0.00    +0.000 OA
ENDBRANCH   1  18
TORSDOF 2
ENDMDL
MODEL 4
REMARK VINA RESULT:      -6.4      2.810      6.992
REMARK  Name = 
REMARK  6 active torsions:
REMARK  status: ('A' for Active; 'I' for Inactive)
REMARK    1  A    between atoms: C_1  and  C_2
REMARK    2  A    between atoms: C_2  and  C_4
REMARK    3  A    between atoms: N_7  and  C_8
REMARK    4  A    between atoms: C_11  and  C_12
REMARK    5  A    between atoms: C_13  and  C_14
REMARK    6  A    between atoms: C_17  and  C_18
REMARK                            x       y       z     vdW  Elec       q    Type
REMARK                         _______ _______ _______ _____ _____    ______ ____
ROOT
ATOM      1  C   UNL     1       6.399   5.255  15.379  0.00  0.00    +0.000 A 
ATOM      2  S   UNL     1       4.830   5.952  15.323  0.00  0.00    +0.000 S 
ATOM      3  C   UNL     1       4.612   5.647  17.003  0.00  0.00    +0.000 A 
ATOM      4  N   UNL     1       3.422   5.925  17.591  0.00  0.00    +0.000 N 
ATOM      5  N   UNL     1       5.672   5.147  17.591  0.00  0.00    +0.000 NA
ATOM      6  C   UNL     1       6.690   4.904  16.688  0.00  0.00    +0.000 A 
ATOM      7  C   UNL     1       7.939   4.289  17.215  0.00  0.00    +0.000 C 
ATOM      8  H   UNL     1       2.733   6.392  17.017  0.00  0.00    +0.000 HD
ENDROOT
BRANCH   4   9
ATOM      9  C   UNL     1       2.835   5.189  18.646  0.00  0.00    +0.000 A 
ATOM     10  C   UNL     1       2.941   5.546  19.992  0.00  0.00    +0.000 A 
ATOM     11  C   UNL     1       2.359   4.773  20.998  0.00  0.00    +0.000 A 
ATOM     12  C   UNL     1       1.629   3.622  20.689  0.00  0.00    +0.000 A 
ATOM     13  C   UNL     1       1.067   2.806  21.820  0.00  0.00    +0.000 C 
ATOM     14  C   UNL     1       1.453   3.272  19.339  0.00  0.00    +0.000 A 
ATOM     15  C   UNL     1       0.647   2.079  18.903  0.00  0.00    +0.000 C 
ATOM     16  C   UNL     1       2.049   4.066  18.337  0.00  0.00    +0.000 A 
ENDBRANCH   4   9
BRANCH   1  18
ATOM     17  C   UNL     1       6.811   4.098  13.142  0.00  0.00    +0.000 C 
ATOM     18  C   UNL     1       7.233   5.091  14.200  0.00  0.00    +0.000 C 
ATOM     19  O   UNL     1       8.278   5.725  14.037  0.00  0.00    +0.000 OA
ENDBRANCH   1  18
TORSDOF 2
ENDMDL
MODEL 5
REMARK VINA RESULT:      -6.4      4.718      7.692
REMARK  Name = 
REMARK  6 active torsions:
REMARK  status: ('A' for Active; 'I' for Inactive)
REMARK    1  A    between atoms: C_1  and  C_2
REMARK    2  A    between atoms: C_2  and  C_4
REMARK    3  A    between atoms: N_7  and  C_8
REMARK    4  A    between atoms: C_11  and  C_12
REMARK    5  A    between atoms: C_13  and  C_14
REMARK    6  A    between atoms: C_17  and  C_18
REMARK                            x       y       z     vdW  Elec       q    Type
REMARK                         _______ _______ _______ _____ _____    ______ ____
ROOT
ATOM      1  C   UNL     1       2.580   3.841  18.683  0.00  0.00    +0.000 A 
ATOM      2  S   UNL     1       3.274   5.216  17.923  0.00  0.00    +0.000 S 
ATOM      3  C   UNL     1       2.553   6.252  19.093  0.00  0.00    +0.000 A 
ATOM      4  N   UNL     1       2.676   7.597  18.972  0.00  0.00    +0.000 N 
ATOM      5  N   UNL     1       1.916   5.612  20.044  0.00  0.00    +0.000 NA
ATOM      6  C   UNL     1       1.907   4.248  19.824  0.00  0.00    +0.000 A 
ATOM      7  C   UNL     1       1.174   3.402  20.805  0.00  0.00    +0.000 C 
ATOM      8  H   UNL     1       3.277   7.930  18.229  0.00  0.00    +0.000 HD
ENDROOT
BRANCH   4   9
ATOM      9  C   UNL     1       1.699   8.549  19.342  0.00  0.00    +0.000 A 
ATOM     10  C   UNL     1       1.093   9.428  18.441  0.00  0.00    +0.000 A 
ATOM     11  C   UNL     1       0.147  10.364  18.861  0.00  0.00    +0.000 A 
ATOM     12  C   UNL     1      -0.245  10.438  20.201  0.00  0.00    +0.000 A 
ATOM     13  C   UNL     1      -1.233  11.499  20.599  0.00  0.00    +0.000 C 
ATOM     14  C   UNL     1       0.301   9.525  21.120  0.00  0.00    +0.000 A 
ATOM     15  C   UNL     1      -0.089   9.495  22.572  0.00  0.00    +0.000 C 
ATOM     16  C   UNL     1       1.257   8.587  20.675  0.00  0.00    +0.000 A 
ENDBRANCH   4   9
BRANCH   1  18
ATOM     17  C   UNL     1       3.737   1.568  18.781  0.00  0.00    +0.000 C 
ATOM     18  C   UNL     1       2.719   2.493  18.156  0.00  0.00    +0.000 C 
ATOM     19  O   UNL     1       2.044   2.082  17.210  0.00  0.00    +0.000 OA
ENDBRANCH   1  18
TORSDOF 2
ENDMDL
MODEL 6
REMARK VINA RESULT:      -6.3      5.322      7.399
REMARK  Name = 
REMARK  6 active torsions:
REMARK  status: ('A' for Active; 'I' for Inactive)
REMARK    1  A    between atoms: C_1  and  C_2
REMARK    2  A    between atoms: C_2  and  C_4
REMARK    3  A    between atoms: N_7  and  C_8
REMARK    4  A    between atoms: C_11  and  C_12
REMARK    5  A    between atoms: C_13  and  C_14
REMARK    6  A    between atoms: C_17  and  C_18
REMARK                            x       y       z     vdW  Elec       q    Type
REMARK                         _______ _______ _______ _____ _____    ______ ____
ROOT
ATOM      1  C   UNL     1      -0.220  10.662  21.117  0.00  0.00    +0.000 A 
ATOM      2  S   UNL     1       0.828   9.717  22.096  0.00  0.00    +0.000 S 
ATOM      3  C   UNL     1       1.302   8.787  20.727  0.00  0.00    +0.000 A 
ATOM      4  N   UNL     1       2.132   7.726  20.884  0.00  0.00    +0.000 N 
ATOM      5  N   UNL     1       0.788   9.212  19.597  0.00  0.00    +0.000 NA
ATOM      6  C   UNL     1      -0.087  10.263  19.797  0.00  0.00    +0.000 A 
ATOM      7  C   UNL     1      -0.780  10.812  18.600  0.00  0.00    +0.000 C 
ATOM      8  H   UNL     1       2.511   7.584  21.811  0.00  0.00    +0.000 HD
ENDROOT
BRANCH   4   9
ATOM      9  C   UNL     1       2.090   6.531  20.130  0.00  0.00    +0.000 A 
ATOM     10  C   UNL     1       2.472   6.449  18.789  0.00  0.00    +0.000 A 
ATOM     11  C   UNL     1       2.394   5.248  18.082  0.00  0.00    +0.000 A 
ATOM     12  C   UNL     1       1.949   4.077  18.702  0.00  0.00    +0.000 A 
ATOM     13  C   UNL     1       1.841   2.826  17.875  0.00  0.00    +0.000 C 
ATOM     14  C   UNL     1       1.616   4.115  20.068  0.00  0.00    +0.000 A 
ATOM     15  C   UNL     1       1.170   2.901  20.835  0.00  0.00    +0.000 C 
ATOM     16  C   UNL     1       1.702   5.339  20.764  0.00  0.00    +0.000 A 
ENDBRANCH   4   9
BRANCH   1  18
ATOM     17  C   UNL     1      -0.877  13.127  21.202  0.00  0.00    +0.000 C 
ATOM     18  C   UNL     1      -1.082  11.701  21.658  0.00  0.00    +0.000 C 
ATOM     19  O   UNL     1      -1.966  11.461  22.483  0.00  0.00    +0.000 OA
ENDBRANCH   1  18
TORSDOF 2
ENDMDL
MODEL 7
REMARK VINA RESULT:      -6.3      3.420      7.701
REMARK  Name = 
REMARK  6 active torsions:
REMARK  status: ('A' for Active; 'I' for Inactive)
REMARK    1  A    between atoms: C_1  and  C_2
REMARK    2  A    between atoms: C_2  and  C_4
REMARK    3  A    between atoms: N_7  and  C_8
REMARK    4  A    between atoms: C_11  and  C_12
REMARK    5  A    between atoms: C_13  and  C_14
REMARK    6  A    between atoms: C_17  and  C_18
REMARK                            x       y       z     vdW  Elec       q    Type
REMARK                         _______ _______ _______ _____ _____    ______ ____
ROOT
ATOM      1  C   UNL     1       5.644   5.305  17.848  0.00  0.00    +0.000 A 
ATOM      2  S   UNL     1       4.876   5.024  19.358  0.00  0.00    +0.000 S 
ATOM      3  C   UNL     1       3.590   6.082  18.924  0.00  0.00    +0.000 A 
ATOM      4  N   UNL     1       2.616   6.367  19.824  0.00  0.00    +0.000 N 
ATOM      5  N   UNL     1       3.675   6.541  17.699  0.00  0.00    +0.000 NA
ATOM      6  C   UNL     1       4.837   6.125  17.077  0.00  0.00    +0.000 A 
ATOM      7  C   UNL     1       5.084   6.615  15.693  0.00  0.00    +0.000 C 
ATOM      8  H   UNL     1       2.648   5.860  20.699  0.00  0.00    +0.000 HD
ENDROOT
BRANCH   4   9
ATOM      9  C   UNL     1       1.943   7.604  19.943  0.00  0.00    +0.000 A 
ATOM     10  C   UNL     1       1.810   8.516  18.894  0.00  0.00    +0.000 A 
ATOM     11  C   UNL     1       1.152   9.735  19.068  0.00  0.00    +0.000 A 
ATOM     12  C   UNL     1       0.582  10.075  20.299  0.00  0.00    +0.000 A 
ATOM     13  C   UNL     1      -0.071  11.422  20.437  0.00  0.00    +0.000 C 
ATOM     14  C   UNL     1       0.646   9.150  21.355  0.00  0.00    +0.000 A 
ATOM     15  C   UNL     1       0.026   9.403  22.702  0.00  0.00    +0.000 C 
ATOM     16  C   UNL     1       1.316   7.924  21.159  0.00  0.00    +0.000 A 
ENDBRANCH   4   9
BRANCH   1  18
ATOM     17  C   UNL     1       7.179   4.290  16.079  0.00  0.00    +0.000 C 
ATOM     18  C   UNL     1       6.938   4.738  17.502  0.00  0.00    +0.000 C 
ATOM     19  O   UNL     1       7.840   4.599  18.331  0.00  0.00    +0.000 OA
ENDBRANCH   1  18
TORSDOF 2
ENDMDL
MODEL 8
REMARK VINA RESULT:      -6.3      5.000      6.584
REMARK  Name = 
REMARK  6 active torsions:
REMARK  status: ('A' for Active; 'I' for Inactive)
REMARK    1  A    between atoms: C_1  and  C_2
REMARK    2  A    between atoms: C_2  and  C_4
REMARK    3  A    between atoms: N_7  and  C_8
REMARK    4  A    between atoms: C_11  and  C_12
REMARK    5  A    between atoms: C_13  and  C_14
REMARK    6  A    between atoms: C_17  and  C_18
REMARK                            x       y       z     vdW  Elec       q    Type
REMARK                         _______ _______ _______ _____ _____    ______ ____
ROOT
ATOM      1  C   UNL     1       0.217   9.926  19.926  0.00  0.00    +0.000 A 
ATOM      2  S   UNL     1       0.175   8.779  21.203  0.00  0.00    +0.000 S 
ATOM      3  C   UNL     1       1.422   7.863  20.448  0.00  0.00    +0.000 A 
ATOM      4  N   UNL     1       1.811   6.679  20.985  0.00  0.00    +0.000 N 
ATOM      5  N   UNL     1       1.906   8.423  19.365  0.00  0.00    +0.000 NA
ATOM      6  C   UNL     1       1.229   9.584  19.044  0.00  0.00    +0.000 A 
ATOM      7  C   UNL     1       1.646  10.298  17.806  0.00  0.00    +0.000 C 
ATOM      8  H   UNL     1       1.399   6.430  21.874  0.00  0.00    +0.000 HD
ENDROOT
BRANCH   4   9
ATOM      9  C   UNL     1       2.242   5.548  20.255  0.00  0.00    +0.000 A 
ATOM     10  C   UNL     1       3.565   5.342  19.857  0.00  0.00    +0.000 A 
ATOM     11  C   UNL     1       3.935   4.216  19.119  0.00  0.00    +0.000 A 
ATOM     12  C   UNL     1       2.995   3.243  18.771  0.00  0.00    +0.000 A 
ATOM     13  C   UNL     1       3.447   2.078  17.935  0.00  0.00    +0.000 C 
ATOM     14  C   UNL     1       1.668   3.393  19.211  0.00  0.00    +0.000 A 
ATOM     15  C   UNL     1       0.593   2.379  18.926  0.00  0.00    +0.000 C 
ATOM     16  C   UNL     1       1.313   4.537  19.955  0.00  0.00    +0.000 A 
ENDBRANCH   4   9
BRANCH   1  18
ATOM     17  C   UNL     1      -1.861  10.983  18.886  0.00  0.00    +0.000 C 
ATOM     18  C   UNL     1      -0.698  11.054  19.848  0.00  0.00    +0.000 C 
ATOM     19  O   UNL     1      -0.551  12.071  20.529  0.00  0.00    +0.000 OA
ENDBRANCH   1  18
TORSDOF 2
ENDMDL
MODEL 9
REMARK VINA RESULT:      -6.2      4.435      6.834
REMARK  Name = 
REMARK  6 active torsions:
REMARK  status: ('A' for Active; 'I' for Inactive)
REMARK    1  A    between atoms: C_1  and  C_2
REMARK    2  A    between atoms: C_2  and  C_4
REMARK    3  A    between atoms: N_7  and  C_8
REMARK    4  A    between atoms: C_11  and  C_12
REMARK    5  A    between atoms: C_13  and  C_14
REMARK    6  A    between atoms: C_17  and  C_18
REMARK                            x       y       z     vdW  Elec       q    Type
REMARK                         _______ _______ _______ _____ _____    ______ ____
ROOT
ATOM      1  C   UNL     1       0.355  10.255  20.937  0.00  0.00    +0.000 A 
ATOM      2  S   UNL     1       0.756   9.055  22.098  0.00  0.00    +0.000 S 
ATOM      3  C   UNL     1       1.510   8.100  20.881  0.00  0.00    +0.000 A 
ATOM      4  N   UNL     1       1.995   6.871  21.190  0.00  0.00    +0.000 N 
ATOM      5  N   UNL     1       1.547   8.678  19.704  0.00  0.00    +0.000 NA
ATOM      6  C   UNL     1       0.887   9.892  19.711  0.00  0.00    +0.000 A 
ATOM      7  C   UNL     1       0.811  10.635  18.423  0.00  0.00    +0.000 C 
ATOM      8  H   UNL     1       1.967   6.607  22.166  0.00  0.00    +0.000 HD
ENDROOT
BRANCH   4   9
ATOM      9  C   UNL     1       2.002   5.750  20.328  0.00  0.00    +0.000 A 
ATOM     10  C   UNL     1       1.108   4.683  20.440  0.00  0.00    +0.000 A 
ATOM     11  C   UNL     1       1.170   3.588  19.576  0.00  0.00    +0.000 A 
ATOM     12  C   UNL     1       2.119   3.535  18.551  0.00  0.00    +0.000 A 
ATOM     13  C   UNL     1       2.165   2.308  17.683  0.00  0.00    +0.000 C 
ATOM     14  C   UNL     1       2.991   4.623  18.375  0.00  0.00    +0.000 A 
ATOM     15  C   UNL     1       4.015   4.680  17.275  0.00  0.00    +0.000 C 
ATOM     16  C   UNL     1       2.912   5.720  19.259  0.00  0.00    +0.000 A 
ENDBRANCH   4   9
BRANCH   1  18
ATOM     17  C   UNL     1      -1.631  11.771  20.417  0.00  0.00    +0.000 C 
ATOM     18  C   UNL     1      -0.423  11.440  21.262  0.00  0.00    +0.000 C 
ATOM     19  O   UNL     1      -0.125  12.190  22.195  0.00  0.00    +0.000 OA
ENDBRANCH   1  18
TORSDOF 2
ENDMDL
