MODEL 1
REMARK VINA RESULT:      -8.5      0.000      0.000
REMARK  Name = 
REMARK  4 active torsions:
REMARK  status: ('A' for Active; 'I' for Inactive)
REMARK    1  A    between atoms: C_1  and  N_2
REMARK    2  A    between atoms: N_5  and  C_6
REMARK    3  A    between atoms: C_9  and  N_10
REMARK    4  A    between atoms: N_17  and  C_18
REMARK                            x       y       z     vdW  Elec       q    Type
REMARK                         _______ _______ _______ _____ _____    ______ ____
ROOT
ATOM      1  N   UNL     1      -0.051  10.155  19.355  0.00  0.00    +0.000 N 
ATOM      2  C   UNL     1       0.076  11.375  20.034  0.00  0.00    +0.000 A 
ATOM      3  N   UNL     1       1.263  12.016  20.067  0.00  0.00    +0.000 NA
ATOM      4  C   UNL     1       1.418  13.118  20.827  0.00  0.00    +0.000 A 
ATOM      5  C   UNL     1       0.343  13.590  21.560  0.00  0.00    +0.000 A 
ATOM      6  C   UNL     1       0.108  14.646  22.471  0.00  0.00    +0.000 A 
ATOM      7  C   UNL     1      -1.211  14.557  22.867  0.00  0.00    +0.000 A 
ATOM      8  N   UNL     1      -1.770  13.463  22.251  0.00  0.00    +0.000 N 
ATOM      9  C   UNL     1      -0.836  12.878  21.429  0.00  0.00    +0.000 A 
ATOM     10  N   UNL     1      -1.031  11.782  20.676  0.00  0.00    +0.000 NA
ATOM     11  H   UNL     1      -0.968   9.787  19.564  0.00  0.00    +0.000 HD
ENDROOT
BRANCH   8  12
ATOM     12  C   UNL     1      -3.098  12.907  22.448  0.00  0.00    +0.000 C 
ATOM     13  C   UNL     1      -4.062  13.187  21.266  0.00  0.00    +0.000 C 
ATOM     14  C   UNL     1      -5.398  13.064  21.938  0.00  0.00    +0.000 A 
ATOM     15  C   UNL     1      -6.649  13.007  21.352  0.00  0.00    +0.000 A 
ATOM     16  C   UNL     1      -7.753  12.784  22.177  0.00  0.00    +0.000 A 
ATOM     17  C   UNL     1      -7.590  12.598  23.560  0.00  0.00    +0.000 A 
ATOM     18  C   UNL     1      -6.332  12.726  24.151  0.00  0.00    +0.000 A 
ATOM     19  C   UNL     1      -5.254  13.000  23.329  0.00  0.00    +0.000 A 
ATOM     20  C   UNL     1      -3.852  13.343  23.719  0.00  0.00    +0.000 C 
ENDBRANCH   8  12
BRANCH   1  24
ATOM     21  C   UNL     1       2.912   7.183  18.559  0.00  0.00    +0.000 A 
ATOM     22  C   UNL     1       2.549   8.146  17.608  0.00  0.00    +0.000 A 
ATOM     23  C   UNL     1       1.588   9.136  17.883  0.00  0.00    +0.000 A 
ATOM     24  C   UNL     1       0.944   9.189  19.122  0.00  0.00    +0.000 A 
ATOM     25  C   UNL     1       1.359   8.279  20.091  0.00  0.00    +0.000 A 
ATOM     26  C   UNL     1       2.302   7.291  19.810  0.00  0.00    +0.000 A 
BRANCH  21  31
ATOM     27  C   UNL     1       7.803   4.700  17.958  0.00  0.00    +0.000 C 
ATOM     28  N   UNL     1       6.345   4.765  17.987  0.00  0.00    +0.000 NA
ATOM     29  C   UNL     1       5.845   5.717  16.967  0.00  0.00    +0.000 C 
ATOM     30  C   UNL     1       4.302   5.853  16.969  0.00  0.00    +0.000 C 
ATOM     31  N   UNL     1       3.844   6.202  18.317  0.00  0.00    +0.000 N 
ATOM     32  C   UNL     1       4.325   5.297  19.374  0.00  0.00    +0.000 C 
ATOM     33  C   UNL     1       5.866   5.195  19.320  0.00  0.00    +0.000 C 
ENDBRANCH  21  31
ENDBRANCH   1  24
TORSDOF 3
ENDMDL
MODEL 2
REMARK VINA RESULT:      -8.5      2.130      3.260
REMARK  Name = 
REMARK  4 active torsions:
REMARK  status: ('A' for Active; 'I' for Inactive)
REMARK    1  A    between atoms: C_1  and  N_2
REMARK    2  A    between atoms: N_5  and  C_6
REMARK    3  A    between atoms: C_9  and  N_10
REMARK    4  A    between atoms: N_17  and  C_18
REMARK                            x       y       z     vdW  Elec       q    Type
REMARK                         _______ _______ _______ _____ _____    ______ ____
ROOT
ATOM      1  N   UNL     1       0.146  10.804  19.638  0.00  0.00    +0.000 N 
ATOM      2  C   UNL     1      -0.586  11.215  20.761  0.00  0.00    +0.000 A 
ATOM      3  N   UNL     1      -0.215  10.822  21.997  0.00  0.00    +0.000 NA
ATOM      4  C   UNL     1      -0.991  11.107  23.061  0.00  0.00    +0.000 A 
ATOM      5  C   UNL     1      -2.163  11.818  22.871  0.00  0.00    +0.000 A 
ATOM      6  C   UNL     1      -3.230  12.272  23.682  0.00  0.00    +0.000 A 
ATOM      7  C   UNL     1      -4.120  12.927  22.856  0.00  0.00    +0.000 A 
ATOM      8  N   UNL     1      -3.642  12.856  21.569  0.00  0.00    +0.000 N 
ATOM      9  C   UNL     1      -2.432  12.202  21.569  0.00  0.00    +0.000 A 
ATOM     10  N   UNL     1      -1.680  11.944  20.486  0.00  0.00    +0.000 NA
ATOM     11  H   UNL     1      -0.370  11.094  18.818  0.00  0.00    +0.000 HD
ENDROOT
BRANCH   8  12
ATOM     12  C   UNL     1      -4.289  13.303  20.348  0.00  0.00    +0.000 C 
ATOM     13  C   UNL     1      -5.286  14.469  20.572  0.00  0.00    +0.000 C 
ATOM     14  C   UNL     1      -6.185  14.325  19.380  0.00  0.00    +0.000 A 
ATOM     15  C   UNL     1      -7.146  15.207  18.920  0.00  0.00    +0.000 A 
ATOM     16  C   UNL     1      -7.793  14.909  17.719  0.00  0.00    +0.000 A 
ATOM     17  C   UNL     1      -7.456  13.757  16.990  0.00  0.00    +0.000 A 
ATOM     18  C   UNL     1      -6.535  12.838  17.496  0.00  0.00    +0.000 A 
ATOM     19  C   UNL     1      -5.941  13.120  18.712  0.00  0.00    +0.000 A 
ATOM     20  C   UNL     1      -5.060  12.240  19.542  0.00  0.00    +0.000 C 
ENDBRANCH   8  12
BRANCH   1  24
ATOM     21  C   UNL     1       2.386   7.210  19.088  0.00  0.00    +0.000 A 
ATOM     22  C   UNL     1       2.230   8.154  18.065  0.00  0.00    +0.000 A 
ATOM     23  C   UNL     1       1.510   9.346  18.258  0.00  0.00    +0.000 A 
ATOM     24  C   UNL     1       0.905   9.631  19.485  0.00  0.00    +0.000 A 
ATOM     25  C   UNL     1       1.123   8.728  20.522  0.00  0.00    +0.000 A 
ATOM     26  C   UNL     1       1.827   7.541  20.323  0.00  0.00    +0.000 A 
BRANCH  21  31
ATOM     27  C   UNL     1       3.431   1.903  17.995  0.00  0.00    +0.000 C 
ATOM     28  N   UNL     1       3.776   3.272  18.364  0.00  0.00    +0.000 NA
ATOM     29  C   UNL     1       3.079   3.668  19.609  0.00  0.00    +0.000 C 
ATOM     30  C   UNL     1       3.382   5.126  20.037  0.00  0.00    +0.000 C 
ATOM     31  N   UNL     1       3.081   6.034  18.927  0.00  0.00    +0.000 N 
ATOM     32  C   UNL     1       3.736   5.677  17.657  0.00  0.00    +0.000 C 
ATOM     33  C   UNL     1       3.405   4.215  17.285  0.00  0.00    +0.000 C 
ENDBRANCH  21  31
ENDBRANCH   1  24
TORSDOF 3
ENDMDL
MODEL 3
REMARK VINA RESULT:      -8.4      2.876     11.847
REMARK  Name = 
REMARK  4 active torsions:
REMARK  status: ('A' for Active; 'I' for Inactive)
REMARK    1  A    between atoms: C_1  and  N_2
REMARK    2  A    between atoms: N_5  and  C_6
REMARK    3  A    between atoms: C_9  and  N_10
REMARK    4  A    between atoms: N_17  and  C_18
REMARK                            x       y       z     vdW  Elec       q    Type
REMARK                         _______ _______ _______ _____ _____    ______ ____
ROOT
ATOM      1  N   UNL     1       1.743   8.659  17.617  0.00  0.00    +0.000 N 
ATOM      2  C   UNL     1       2.373   7.559  18.217  0.00  0.00    +0.000 A 
ATOM      3  N   UNL     1       2.197   7.307  19.531  0.00  0.00    +0.000 NA
ATOM      4  C   UNL     1       2.902   6.331  20.135  0.00  0.00    +0.000 A 
ATOM      5  C   UNL     1       3.798   5.585  19.390  0.00  0.00    +0.000 A 
ATOM      6  C   UNL     1       4.719   4.540  19.639  0.00  0.00    +0.000 A 
ATOM      7  C   UNL     1       5.332   4.242  18.439  0.00  0.00    +0.000 A 
ATOM      8  N   UNL     1       4.836   5.094  17.482  0.00  0.00    +0.000 N 
ATOM      9  C   UNL     1       3.877   5.904  18.046  0.00  0.00    +0.000 A 
ATOM     10  N   UNL     1       3.185   6.861  17.407  0.00  0.00    +0.000 NA
ATOM     11  H   UNL     1       2.109   8.741  16.678  0.00  0.00    +0.000 HD
ENDROOT
BRANCH   8  12
ATOM     12  C   UNL     1       5.260   5.231  16.099  0.00  0.00    +0.000 C 
ATOM     13  C   UNL     1       4.802   4.057  15.196  0.00  0.00    +0.000 C 
ATOM     14  C   UNL     1       5.807   4.129  14.084  0.00  0.00    +0.000 A 
ATOM     15  C   UNL     1       5.791   3.463  12.872  0.00  0.00    +0.000 A 
ATOM     16  C   UNL     1       6.786   3.768  11.940  0.00  0.00    +0.000 A 
ATOM     17  C   UNL     1       7.758   4.742  12.221  0.00  0.00    +0.000 A 
ATOM     18  C   UNL     1       7.806   5.357  13.473  0.00  0.00    +0.000 A 
ATOM     19  C   UNL     1       6.847   5.007  14.405  0.00  0.00    +0.000 A 
ATOM     20  C   UNL     1       6.773   5.388  15.850  0.00  0.00    +0.000 C 
ENDBRANCH   8  12
BRANCH   1  24
ATOM     21  C   UNL     1       0.680  12.338  19.508  0.00  0.00    +0.000 A 
ATOM     22  C   UNL     1       1.851  12.201  18.749  0.00  0.00    +0.000 A 
ATOM     23  C   UNL     1       2.185  10.994  18.111  0.00  0.00    +0.000 A 
ATOM     24  C   UNL     1       1.362   9.870  18.220  0.00  0.00    +0.000 A 
ATOM     25  C   UNL     1       0.163  10.028  18.911  0.00  0.00    +0.000 A 
ATOM     26  C   UNL     1      -0.158  11.224  19.554  0.00  0.00    +0.000 A 
BRANCH  21  31
ATOM     27  C   UNL     1      -2.153  15.909  22.617  0.00  0.00    +0.000 C 
ATOM     28  N   UNL     1      -1.048  15.480  21.767  0.00  0.00    +0.000 NA
ATOM     29  C   UNL     1      -1.543  15.076  20.430  0.00  0.00    +0.000 C 
ATOM     30  C   UNL     1      -0.417  14.580  19.489  0.00  0.00    +0.000 C 
ATOM     31  N   UNL     1       0.331  13.504  20.146  0.00  0.00    +0.000 N 
ATOM     32  C   UNL     1       0.834  13.847  21.488  0.00  0.00    +0.000 C 
ATOM     33  C   UNL     1      -0.329  14.339  22.377  0.00  0.00    +0.000 C 
ENDBRANCH  21  31
ENDBRANCH   1  24
TORSDOF 3
ENDMDL
MODEL 4
REMARK VINA RESULT:      -8.3      3.578     11.818
REMARK  Name = 
REMARK  4 active torsions:
REMARK  status: ('A' for Active; 'I' for Inactive)
REMARK    1  A    between atoms: C_1  and  N_2
REMARK    2  A    between atoms: N_5  and  C_6
REMARK    3  A    between atoms: C_9  and  N_10
REMARK    4  A    between atoms: N_17  and  C_18
REMARK                            x       y       z     vdW  Elec       q    Type
REMARK                         _______ _______ _______ _____ _____    ______ ____
ROOT
ATOM      1  N   UNL     1       1.720   8.640  17.592  0.00  0.00    +0.000 N 
ATOM      2  C   UNL     1       2.355   7.545  18.197  0.00  0.00    +0.000 A 
ATOM      3  N   UNL     1       2.172   7.292  19.510  0.00  0.00    +0.000 NA
ATOM      4  C   UNL     1       2.882   6.322  20.119  0.00  0.00    +0.000 A 
ATOM      5  C   UNL     1       3.789   5.583  19.380  0.00  0.00    +0.000 A 
ATOM      6  C   UNL     1       4.716   4.546  19.635  0.00  0.00    +0.000 A 
ATOM      7  C   UNL     1       5.339   4.252  18.440  0.00  0.00    +0.000 A 
ATOM      8  N   UNL     1       4.842   5.100  17.479  0.00  0.00    +0.000 N 
ATOM      9  C   UNL     1       3.874   5.902  18.036  0.00  0.00    +0.000 A 
ATOM     10  N   UNL     1       3.178   6.854  17.393  0.00  0.00    +0.000 NA
ATOM     11  H   UNL     1       2.091   8.724  16.656  0.00  0.00    +0.000 HD
ENDROOT
BRANCH   8  12
ATOM     12  C   UNL     1       5.275   5.240  16.098  0.00  0.00    +0.000 C 
ATOM     13  C   UNL     1       4.800   4.081  15.185  0.00  0.00    +0.000 C 
ATOM     14  C   UNL     1       5.810   4.144  14.077  0.00  0.00    +0.000 A 
ATOM     15  C   UNL     1       5.787   3.488  12.860  0.00  0.00    +0.000 A 
ATOM     16  C   UNL     1       6.791   3.782  11.935  0.00  0.00    +0.000 A 
ATOM     17  C   UNL     1       7.779   4.737  12.227  0.00  0.00    +0.000 A 
ATOM     18  C   UNL     1       7.833   5.342  13.484  0.00  0.00    +0.000 A 
ATOM     19  C   UNL     1       6.864   5.002  14.409  0.00  0.00    +0.000 A 
ATOM     20  C   UNL     1       6.791   5.372  15.857  0.00  0.00    +0.000 C 
ENDBRANCH   8  12
BRANCH   1  24
ATOM     21  C   UNL     1       0.610  12.306  19.481  0.00  0.00    +0.000 A 
ATOM     22  C   UNL     1       1.830  12.154  18.808  0.00  0.00    +0.000 A 
ATOM     23  C   UNL     1       2.181  10.951  18.170  0.00  0.00    +0.000 A 
ATOM     24  C   UNL     1       1.325   9.848  18.192  0.00  0.00    +0.000 A 
ATOM     25  C   UNL     1       0.082  10.023  18.796  0.00  0.00    +0.000 A 
ATOM     26  C   UNL     1      -0.257  11.213  19.441  0.00  0.00    +0.000 A 
BRANCH  21  31
ATOM     27  C   UNL     1       0.928  17.392  21.597  0.00  0.00    +0.000 C 
ATOM     28  N   UNL     1       0.264  16.138  21.258  0.00  0.00    +0.000 NA
ATOM     29  C   UNL     1       0.936  14.996  21.920  0.00  0.00    +0.000 C 
ATOM     30  C   UNL     1       0.294  13.629  21.574  0.00  0.00    +0.000 C 
ATOM     31  N   UNL     1       0.243  13.468  20.118  0.00  0.00    +0.000 N 
ATOM     32  C   UNL     1      -0.401  14.584  19.406  0.00  0.00    +0.000 C 
ATOM     33  C   UNL     1       0.274  15.918  19.794  0.00  0.00    +0.000 C 
ENDBRANCH  21  31
ENDBRANCH   1  24
TORSDOF 3
ENDMDL
MODEL 5
REMARK VINA RESULT:      -8.3      2.981     11.926
REMARK  Name = 
REMARK  4 active torsions:
REMARK  status: ('A' for Active; 'I' for Inactive)
REMARK    1  A    between atoms: C_1  and  N_2
REMARK    2  A    between atoms: N_5  and  C_6
REMARK    3  A    between atoms: C_9  and  N_10
REMARK    4  A    between atoms: N_17  and  C_18
REMARK                            x       y       z     vdW  Elec       q    Type
REMARK                         _______ _______ _______ _____ _____    ______ ____
ROOT
ATOM      1  N   UNL     1       1.771   8.688  17.567  0.00  0.00    +0.000 N 
ATOM      2  C   UNL     1       2.396   7.591  18.177  0.00  0.00    +0.000 A 
ATOM      3  N   UNL     1       2.219   7.349  19.493  0.00  0.00    +0.000 NA
ATOM      4  C   UNL     1       2.922   6.377  20.105  0.00  0.00    +0.000 A 
ATOM      5  C   UNL     1       3.815   5.622  19.366  0.00  0.00    +0.000 A 
ATOM      6  C   UNL     1       4.733   4.577  19.624  0.00  0.00    +0.000 A 
ATOM      7  C   UNL     1       5.345   4.267  18.427  0.00  0.00    +0.000 A 
ATOM      8  N   UNL     1       4.852   5.112  17.463  0.00  0.00    +0.000 N 
ATOM      9  C   UNL     1       3.896   5.929  18.020  0.00  0.00    +0.000 A 
ATOM     10  N   UNL     1       3.207   6.884  17.373  0.00  0.00    +0.000 NA
ATOM     11  H   UNL     1       2.137   8.761  16.628  0.00  0.00    +0.000 HD
ENDROOT
BRANCH   8  12
ATOM     12  C   UNL     1       5.278   5.237  16.079  0.00  0.00    +0.000 C 
ATOM     13  C   UNL     1       4.799   4.068  15.181  0.00  0.00    +0.000 C 
ATOM     14  C   UNL     1       5.803   4.118  14.068  0.00  0.00    +0.000 A 
ATOM     15  C   UNL     1       5.774   3.448  12.858  0.00  0.00    +0.000 A 
ATOM     16  C   UNL     1       6.774   3.732  11.925  0.00  0.00    +0.000 A 
ATOM     17  C   UNL     1       7.763   4.690  12.201  0.00  0.00    +0.000 A 
ATOM     18  C   UNL     1       7.823   5.309  13.451  0.00  0.00    +0.000 A 
ATOM     19  C   UNL     1       6.859   4.979  14.385  0.00  0.00    +0.000 A 
ATOM     20  C   UNL     1       6.793   5.366  15.829  0.00  0.00    +0.000 C 
ENDBRANCH   8  12
BRANCH   1  24
ATOM     21  C   UNL     1       0.534  12.391  19.298  0.00  0.00    +0.000 A 
ATOM     22  C   UNL     1      -0.298  11.263  19.280  0.00  0.00    +0.000 A 
ATOM     23  C   UNL     1       0.123  10.040  18.727  0.00  0.00    +0.000 A 
ATOM     24  C   UNL     1       1.392   9.905  18.160  0.00  0.00    +0.000 A 
ATOM     25  C   UNL     1       2.244  11.003  18.246  0.00  0.00    +0.000 A 
ATOM     26  C   UNL     1       1.819  12.219  18.782  0.00  0.00    +0.000 A 
BRANCH  21  31
ATOM     27  C   UNL     1      -2.365  17.015  20.111  0.00  0.00    +0.000 C 
ATOM     28  N   UNL     1      -1.293  16.060  20.374  0.00  0.00    +0.000 NA
ATOM     29  C   UNL     1      -0.429  15.905  19.182  0.00  0.00    +0.000 C 
ATOM     30  C   UNL     1       0.713  14.879  19.389  0.00  0.00    +0.000 C 
ATOM     31  N   UNL     1       0.147  13.600  19.827  0.00  0.00    +0.000 N 
ATOM     32  C   UNL     1      -0.735  13.698  21.002  0.00  0.00    +0.000 C 
ATOM     33  C   UNL     1      -1.848  14.737  20.741  0.00  0.00    +0.000 C 
ENDBRANCH  21  31
ENDBRANCH   1  24
TORSDOF 3
ENDMDL
MODEL 6
REMARK VINA RESULT:      -8.2      0.838      1.106
REMARK  Name = 
REMARK  4 active torsions:
REMARK  status: ('A' for Active; 'I' for Inactive)
REMARK    1  A    between atoms: C_1  and  N_2
REMARK    2  A    between atoms: N_5  and  C_6
REMARK    3  A    between atoms: C_9  and  N_10
REMARK    4  A    between atoms: N_17  and  C_18
REMARK                            x       y       z     vdW  Elec       q    Type
REMARK                         _______ _______ _______ _____ _____    ______ ____
ROOT
ATOM      1  N   UNL     1      -0.154  10.315  19.355  0.00  0.00    +0.000 N 
ATOM      2  C   UNL     1      -0.053  11.512  20.078  0.00  0.00    +0.000 A 
ATOM      3  N   UNL     1       1.116  12.186  20.120  0.00  0.00    +0.000 NA
ATOM      4  C   UNL     1       1.250  13.263  20.919  0.00  0.00    +0.000 A 
ATOM      5  C   UNL     1       0.172  13.676  21.682  0.00  0.00    +0.000 A 
ATOM      6  C   UNL     1      -0.082  14.691  22.634  0.00  0.00    +0.000 A 
ATOM      7  C   UNL     1      -1.392  14.550  23.042  0.00  0.00    +0.000 A 
ATOM      8  N   UNL     1      -1.927  13.463  22.393  0.00  0.00    +0.000 N 
ATOM      9  C   UNL     1      -0.988  12.935  21.539  0.00  0.00    +0.000 A 
ATOM     10  N   UNL     1      -1.162  11.863  20.748  0.00  0.00    +0.000 NA
ATOM     11  H   UNL     1      -1.058   9.913  19.561  0.00  0.00    +0.000 HD
ENDROOT
BRANCH   8  12
ATOM     12  C   UNL     1      -3.237  12.862  22.585  0.00  0.00    +0.000 C 
ATOM     13  C   UNL     1      -4.129  12.918  21.319  0.00  0.00    +0.000 C 
ATOM     14  C   UNL     1      -5.501  12.810  21.918  0.00  0.00    +0.000 A 
ATOM     15  C   UNL     1      -6.704  12.599  21.270  0.00  0.00    +0.000 A 
ATOM     16  C   UNL     1      -7.850  12.427  22.049  0.00  0.00    +0.000 A 
ATOM     17  C   UNL     1      -7.773  12.445  23.452  0.00  0.00    +0.000 A 
ATOM     18  C   UNL     1      -6.567  12.728  24.095  0.00  0.00    +0.000 A 
ATOM     19  C   UNL     1      -5.451  12.948  23.310  0.00  0.00    +0.000 A 
ATOM     20  C   UNL     1      -4.097  13.425  23.732  0.00  0.00    +0.000 C 
ENDBRANCH   8  12
BRANCH   1  24
ATOM     21  C   UNL     1       2.883   7.464  18.411  0.00  0.00    +0.000 A 
ATOM     22  C   UNL     1       2.509   8.477  17.518  0.00  0.00    +0.000 A 
ATOM     23  C   UNL     1       1.523   9.426  17.843  0.00  0.00    +0.000 A 
ATOM     24  C   UNL     1       0.865   9.388  19.074  0.00  0.00    +0.000 A 
ATOM     25  C   UNL     1       1.289   8.428  19.989  0.00  0.00    +0.000 A 
ATOM     26  C   UNL     1       2.258   7.479  19.658  0.00  0.00    +0.000 A 
BRANCH  21  31
ATOM     27  C   UNL     1       5.777   3.702  15.598  0.00  0.00    +0.000 C 
ATOM     28  N   UNL     1       5.460   4.538  16.751  0.00  0.00    +0.000 NA
ATOM     29  C   UNL     1       4.106   4.227  17.264  0.00  0.00    +0.000 C 
ATOM     30  C   UNL     1       3.698   5.105  18.473  0.00  0.00    +0.000 C 
ATOM     31  N   UNL     1       3.839   6.521  18.119  0.00  0.00    +0.000 N 
ATOM     32  C   UNL     1       5.164   6.883  17.587  0.00  0.00    +0.000 C 
ATOM     33  C   UNL     1       5.519   5.973  16.391  0.00  0.00    +0.000 C 
ENDBRANCH  21  31
ENDBRANCH   1  24
TORSDOF 3
ENDMDL
MODEL 7
REMARK VINA RESULT:      -8.1      1.526      2.016
REMARK  Name = 
REMARK  4 active torsions:
REMARK  status: ('A' for Active; 'I' for Inactive)
REMARK    1  A    between atoms: C_1  and  N_2
REMARK    2  A    between atoms: N_5  and  C_6
REMARK    3  A    between atoms: C_9  and  N_10
REMARK    4  A    between atoms: N_17  and  C_18
REMARK                            x       y       z     vdW  Elec       q    Type
REMARK                         _______ _______ _______ _____ _____    ______ ____
ROOT
ATOM      1  N   UNL     1       0.088  10.799  19.373  0.00  0.00    +0.000 N 
ATOM      2  C   UNL     1       0.426  12.012  19.991  0.00  0.00    +0.000 A 
ATOM      3  N   UNL     1       1.716  12.400  20.071  0.00  0.00    +0.000 NA
ATOM      4  C   UNL     1       2.052  13.497  20.778  0.00  0.00    +0.000 A 
ATOM      5  C   UNL     1       1.057  14.226  21.406  0.00  0.00    +0.000 A 
ATOM      6  C   UNL     1       0.994  15.368  22.238  0.00  0.00    +0.000 A 
ATOM      7  C   UNL     1      -0.335  15.576  22.545  0.00  0.00    +0.000 A 
ATOM      8  N   UNL     1      -1.072  14.579  21.953  0.00  0.00    +0.000 N 
ATOM      9  C   UNL     1      -0.234  13.760  21.232  0.00  0.00    +0.000 A 
ATOM     10  N   UNL     1      -0.608  12.678  20.530  0.00  0.00    +0.000 NA
ATOM     11  H   UNL     1      -0.896  10.640  19.537  0.00  0.00    +0.000 HD
ENDROOT
BRANCH   8  12
ATOM     12  C   UNL     1      -2.496  14.318  22.086  0.00  0.00    +0.000 C 
ATOM     13  C   UNL     1      -3.330  15.595  22.361  0.00  0.00    +0.000 C 
ATOM     14  C   UNL     1      -4.551  15.016  23.015  0.00  0.00    +0.000 A 
ATOM     15  C   UNL     1      -5.748  15.646  23.304  0.00  0.00    +0.000 A 
ATOM     16  C   UNL     1      -6.789  14.875  23.824  0.00  0.00    +0.000 A 
ATOM     17  C   UNL     1      -6.628  13.494  24.023  0.00  0.00    +0.000 A 
ATOM     18  C   UNL     1      -5.395  12.881  23.794  0.00  0.00    +0.000 A 
ATOM     19  C   UNL     1      -4.357  13.667  23.330  0.00  0.00    +0.000 A 
ATOM     20  C   UNL     1      -2.916  13.300  23.164  0.00  0.00    +0.000 C 
ENDBRANCH   8  12
BRANCH   1  24
ATOM     21  C   UNL     1       2.405   7.235  18.962  0.00  0.00    +0.000 A 
ATOM     22  C   UNL     1       2.203   8.119  17.894  0.00  0.00    +0.000 A 
ATOM     23  C   UNL     1       1.457   9.302  18.040  0.00  0.00    +0.000 A 
ATOM     24  C   UNL     1       0.873   9.638  19.264  0.00  0.00    +0.000 A 
ATOM     25  C   UNL     1       1.137   8.798  20.343  0.00  0.00    +0.000 A 
ATOM     26  C   UNL     1       1.866   7.618  20.191  0.00  0.00    +0.000 A 
BRANCH  21  31
ATOM     27  C   UNL     1       3.572   1.920  18.046  0.00  0.00    +0.000 C 
ATOM     28  N   UNL     1       3.885   3.306  18.378  0.00  0.00    +0.000 NA
ATOM     29  C   UNL     1       3.160   3.726  19.600  0.00  0.00    +0.000 C 
ATOM     30  C   UNL     1       3.427   5.202  19.988  0.00  0.00    +0.000 C 
ATOM     31  N   UNL     1       3.126   6.069  18.846  0.00  0.00    +0.000 N 
ATOM     32  C   UNL     1       3.807   5.688  17.598  0.00  0.00    +0.000 C 
ATOM     33  C   UNL     1       3.511   4.209  17.265  0.00  0.00    +0.000 C 
ENDBRANCH  21  31
ENDBRANCH   1  24
TORSDOF 3
ENDMDL
MODEL 8
REMARK VINA RESULT:      -7.9      1.476      2.025
REMARK  Name = 
REMARK  4 active torsions:
REMARK  status: ('A' for Active; 'I' for Inactive)
REMARK    1  A    between atoms: C_1  and  N_2
REMARK    2  A    between atoms: N_5  and  C_6
REMARK    3  A    between atoms: C_9  and  N_10
REMARK    4  A    between atoms: N_17  and  C_18
REMARK                            x       y       z     vdW  Elec       q    Type
REMARK                         _______ _______ _______ _____ _____    ______ ____
ROOT
ATOM      1  N   UNL     1      -0.433  11.087  19.536  0.00  0.00    +0.000 N 
ATOM      2  C   UNL     1      -0.164  12.267  20.244  0.00  0.00    +0.000 A 
ATOM      3  N   UNL     1       1.105  12.704  20.384  0.00  0.00    +0.000 NA
ATOM      4  C   UNL     1       1.375  13.762  21.173  0.00  0.00    +0.000 A 
ATOM      5  C   UNL     1       0.335  14.401  21.826  0.00  0.00    +0.000 A 
ATOM      6  C   UNL     1       0.202  15.478  22.733  0.00  0.00    +0.000 A 
ATOM      7  C   UNL     1      -1.141  15.606  23.020  0.00  0.00    +0.000 A 
ATOM      8  N   UNL     1      -1.819  14.621  22.343  0.00  0.00    +0.000 N 
ATOM      9  C   UNL     1      -0.929  13.893  21.588  0.00  0.00    +0.000 A 
ATOM     10  N   UNL     1      -1.239  12.848  20.803  0.00  0.00    +0.000 NA
ATOM     11  H   UNL     1      -1.413  10.874  19.664  0.00  0.00    +0.000 HD
ENDROOT
BRANCH   8  12
ATOM     12  C   UNL     1      -3.232  14.290  22.422  0.00  0.00    +0.000 C 
ATOM     13  C   UNL     1      -4.138  15.522  22.677  0.00  0.00    +0.000 C 
ATOM     14  C   UNL     1      -5.351  14.878  23.281  0.00  0.00    +0.000 A 
ATOM     15  C   UNL     1      -6.587  15.446  23.531  0.00  0.00    +0.000 A 
ATOM     16  C   UNL     1      -7.607  14.619  24.007  0.00  0.00    +0.000 A 
ATOM     17  C   UNL     1      -7.386  13.246  24.200  0.00  0.00    +0.000 A 
ATOM     18  C   UNL     1      -6.117  12.696  24.012  0.00  0.00    +0.000 A 
ATOM     19  C   UNL     1      -5.103  13.537  23.591  0.00  0.00    +0.000 A 
ATOM     20  C   UNL     1      -3.641  13.242  23.475  0.00  0.00    +0.000 C 
ENDBRANCH   8  12
BRANCH   1  24
ATOM     21  C   UNL     1       2.184   7.741  19.100  0.00  0.00    +0.000 A 
ATOM     22  C   UNL     1       1.580   8.060  20.324  0.00  0.00    +0.000 A 
ATOM     23  C   UNL     1       0.703   9.150  20.456  0.00  0.00    +0.000 A 
ATOM     24  C   UNL     1       0.405   9.972  19.366  0.00  0.00    +0.000 A 
ATOM     25  C   UNL     1       0.947   9.610  18.135  0.00  0.00    +0.000 A 
ATOM     26  C   UNL     1       1.828   8.536  18.010  0.00  0.00    +0.000 A 
BRANCH  21  31
ATOM     27  C   UNL     1       4.155   2.830  17.535  0.00  0.00    +0.000 C 
ATOM     28  N   UNL     1       4.221   4.142  18.170  0.00  0.00    +0.000 NA
ATOM     29  C   UNL     1       3.217   4.248  19.254  0.00  0.00    +0.000 C 
ATOM     30  C   UNL     1       3.217   5.633  19.949  0.00  0.00    +0.000 C 
ATOM     31  N   UNL     1       3.050   6.684  18.942  0.00  0.00    +0.000 N 
ATOM     32  C   UNL     1       4.014   6.618  17.830  0.00  0.00    +0.000 C 
ATOM     33  C   UNL     1       3.975   5.216  17.182  0.00  0.00    +0.000 C 
ENDBRANCH  21  31
ENDBRANCH   1  24
TORSDOF 3
ENDMDL
MODEL 9
REMARK VINA RESULT:      -7.9      1.969      2.935
REMARK  Name = 
REMARK  4 active torsions:
REMARK  status: ('A' for Active; 'I' for Inactive)
REMARK    1  A    between atoms: C_1  and  N_2
REMARK    2  A    between atoms: N_5  and  C_6
REMARK    3  A    between atoms: C_9  and  N_10
REMARK    4  A    between atoms: N_17  and  C_18
REMARK                            x       y       z     vdW  Elec       q    Type
REMARK                         _______ _______ _______ _____ _____    ______ ____
ROOT
ATOM      1  N   UNL     1       0.102  10.888  19.551  0.00  0.00    +0.000 N 
ATOM      2  C   UNL     1      -0.606  11.268  20.700  0.00  0.00    +0.000 A 
ATOM      3  N   UNL     1      -0.195  10.861  21.920  0.00  0.00    +0.000 NA
ATOM      4  C   UNL     1      -0.946  11.115  23.009  0.00  0.00    +0.000 A 
ATOM      5  C   UNL     1      -2.134  11.809  22.863  0.00  0.00    +0.000 A 
ATOM      6  C   UNL     1      -3.186  12.230  23.710  0.00  0.00    +0.000 A 
ATOM      7  C   UNL     1      -4.109  12.884  22.920  0.00  0.00    +0.000 A 
ATOM      8  N   UNL     1      -3.666  12.842  21.620  0.00  0.00    +0.000 N 
ATOM      9  C   UNL     1      -2.445  12.209  21.576  0.00  0.00    +0.000 A 
ATOM     10  N   UNL     1      -1.720  11.982  20.468  0.00  0.00    +0.000 NA
ATOM     11  H   UNL     1      -0.441  11.182  18.751  0.00  0.00    +0.000 HD
ENDROOT
BRANCH   8  12
ATOM     12  C   UNL     1      -4.355  13.297  20.424  0.00  0.00    +0.000 C 
ATOM     13  C   UNL     1      -5.085  14.651  20.615  0.00  0.00    +0.000 C 
ATOM     14  C   UNL     1      -6.125  14.582  19.536  0.00  0.00    +0.000 A 
ATOM     15  C   UNL     1      -6.952  15.591  19.077  0.00  0.00    +0.000 A 
ATOM     16  C   UNL     1      -7.776  15.320  17.982  0.00  0.00    +0.000 A 
ATOM     17  C   UNL     1      -7.745  14.065  17.354  0.00  0.00    +0.000 A 
ATOM     18  C   UNL     1      -6.959  13.032  17.867  0.00  0.00    +0.000 A 
ATOM     19  C   UNL     1      -6.187  13.298  18.983  0.00  0.00    +0.000 A 
ATOM     20  C   UNL     1      -5.397  12.339  19.816  0.00  0.00    +0.000 C 
ENDBRANCH   8  12
BRANCH   1  24
ATOM     21  C   UNL     1       2.385   7.342  18.882  0.00  0.00    +0.000 A 
ATOM     22  C   UNL     1       2.163   8.287  17.871  0.00  0.00    +0.000 A 
ATOM     23  C   UNL     1       1.428   9.463  18.102  0.00  0.00    +0.000 A 
ATOM     24  C   UNL     1       0.876   9.732  19.357  0.00  0.00    +0.000 A 
ATOM     25  C   UNL     1       1.161   8.830  20.380  0.00  0.00    +0.000 A 
ATOM     26  C   UNL     1       1.878   7.657  20.143  0.00  0.00    +0.000 A 
BRANCH  21  31
ATOM     27  C   UNL     1       5.557   3.550  16.431  0.00  0.00    +0.000 C 
ATOM     28  N   UNL     1       4.766   4.110  17.521  0.00  0.00    +0.000 NA
ATOM     29  C   UNL     1       3.363   4.318  17.095  0.00  0.00    +0.000 C 
ATOM     30  C   UNL     1       2.478   4.941  18.204  0.00  0.00    +0.000 C 
ATOM     31  N   UNL     1       3.095   6.181  18.682  0.00  0.00    +0.000 N 
ATOM     32  C   UNL     1       4.498   6.036  19.105  0.00  0.00    +0.000 C 
ATOM     33  C   UNL     1       5.330   5.406  17.965  0.00  0.00    +0.000 C 
ENDBRANCH  21  31
ENDBRANCH   1  24
TORSDOF 3
ENDMDL
