MODEL 1
REMARK VINA RESULT:      -8.5      0.000      0.000
REMARK  Name = 
REMARK  7 active torsions:
REMARK  status: ('A' for Active; 'I' for Inactive)
REMARK    1  A    between atoms: C_1  and  C_2
REMARK    2  A    between atoms: C_7  and  C_8
REMARK    3  A    between atoms: C_8  and  C_9
REMARK    4  A    between atoms: C_12  and  C_13
REMARK    5  A    between atoms: N_16  and  C_17
REMARK    6  A    between atoms: N_23  and  C_24
REMARK    7  A    between atoms: C_29  and  O_30
REMARK                            x       y       z     vdW  Elec       q    Type
REMARK                         _______ _______ _______ _____ _____    ______ ____
ROOT
ATOM      1  C   UNL     1       0.307  10.616  21.610  0.00  0.00    +0.000 C 
ATOM      2  C   UNL     1       0.834   9.532  20.702  0.00  0.00    +0.000 A 
ATOM      3  C   UNL     1       1.014   8.212  21.223  0.00  0.00    +0.000 A 
ATOM      4  C   UNL     1       1.666   7.266  20.443  0.00  0.00    +0.000 A 
ATOM      5  C   UNL     1       2.190   7.683  19.227  0.00  0.00    +0.000 A 
ATOM      6  C   UNL     1       1.966   8.909  18.653  0.00  0.00    +0.000 A 
ATOM      7  C   UNL     1       1.237   9.848  19.369  0.00  0.00    +0.000 A 
ATOM      8  C   UNL     1       2.928   6.593  18.621  0.00  0.00    +0.000 C 
ATOM      9  O   UNL     1       3.627   6.719  17.628  0.00  0.00    +0.000 OA
ATOM     10  N   UNL     1       2.665   5.474  19.358  0.00  0.00    +0.000 N 
ATOM     11  C   UNL     1       1.953   5.788  20.602  0.00  0.00    +0.000 C 
ENDROOT
BRANCH  10  12
ATOM     12  C   UNL     1       3.036   4.173  18.817  0.00  0.00    +0.000 C 
ATOM     13  C   UNL     1       3.982   3.407  19.727  0.00  0.00    +0.000 C 
ATOM     14  C   UNL     1       4.322   2.060  19.108  0.00  0.00    +0.000 C 
ATOM     15  O   UNL     1       3.133   1.328  18.811  0.00  0.00    +0.000 OA
ATOM     16  C   UNL     1       2.350   1.978  17.808  0.00  0.00    +0.000 C 
ATOM     17  C   UNL     1       1.847   3.343  18.287  0.00  0.00    +0.000 C 
BRANCH  17  18
ATOM     18  O   UNL     1       1.195   4.014  17.199  0.00  0.00    +0.000 OA
ATOM     19  H   UNL     1       1.861   4.549  16.726  0.00  0.00    +0.000 HD
ENDBRANCH  17  18
ENDBRANCH  10  12
BRANCH   7  20
ATOM     20  C   UNL     1       0.872  11.115  18.610  0.00  0.00    +0.000 C 
BRANCH  20  21
ATOM     21  C   UNL     1      -0.633  11.322  18.517  0.00  0.00    +0.000 A 
ATOM     22  C   UNL     1      -1.229  12.432  19.128  0.00  0.00    +0.000 A 
ATOM     23  C   UNL     1      -2.619  12.574  19.165  0.00  0.00    +0.000 A 
ATOM     24  C   UNL     1      -3.454  11.608  18.596  0.00  0.00    +0.000 A 
ATOM     25  C   UNL     1      -2.866  10.533  17.921  0.00  0.00    +0.000 A 
ATOM     26  C   UNL     1      -1.467  10.385  17.887  0.00  0.00    +0.000 A 
BRANCH  24  27
ATOM     27  C   UNL     1      -4.894  11.709  18.765  0.00  0.00    +0.000 A 
ATOM     28  C   UNL     1      -5.964  11.242  17.963  0.00  0.00    +0.000 A 
ATOM     29  N   UNL     1      -7.162  11.620  18.421  0.00  0.00    +0.000 NA
ATOM     30  N   UNL     1      -6.863  12.347  19.511  0.00  0.00    +0.000 N 
ATOM     31  C   UNL     1      -7.914  12.951  20.293  0.00  0.00    +0.000 C 
ATOM     32  C   UNL     1      -5.523  12.437  19.755  0.00  0.00    +0.000 A 
ENDBRANCH  24  27
ENDBRANCH  20  21
ENDBRANCH   7  20
TORSDOF 5
ENDMDL
MODEL 2
REMARK VINA RESULT:      -8.1      4.321      6.244
REMARK  Name = 
REMARK  7 active torsions:
REMARK  status: ('A' for Active; 'I' for Inactive)
REMARK    1  A    between atoms: C_1  and  C_2
REMARK    2  A    between atoms: C_7  and  C_8
REMARK    3  A    between atoms: C_8  and  C_9
REMARK    4  A    between atoms: C_12  and  C_13
REMARK    5  A    between atoms: N_16  and  C_17
REMARK    6  A    between atoms: N_23  and  C_24
REMARK    7  A    between atoms: C_29  and  O_30
REMARK                            x       y       z     vdW  Elec       q    Type
REMARK                         _______ _______ _______ _____ _____    ______ ____
ROOT
ATOM      1  C   UNL     1      -0.176  10.574  22.033  0.00  0.00    +0.000 C 
ATOM      2  C   UNL     1       0.436   9.583  21.073  0.00  0.00    +0.000 A 
ATOM      3  C   UNL     1       0.626   8.229  21.494  0.00  0.00    +0.000 A 
ATOM      4  C   UNL     1       1.350   7.368  20.680  0.00  0.00    +0.000 A 
ATOM      5  C   UNL     1       1.929   7.899  19.535  0.00  0.00    +0.000 A 
ATOM      6  C   UNL     1       1.700   9.162  19.050  0.00  0.00    +0.000 A 
ATOM      7  C   UNL     1       0.903  10.019  19.796  0.00  0.00    +0.000 A 
ATOM      8  C   UNL     1       2.734   6.883  18.887  0.00  0.00    +0.000 C 
ATOM      9  O   UNL     1       3.483   7.108  17.950  0.00  0.00    +0.000 OA
ATOM     10  N   UNL     1       2.464   5.700  19.514  0.00  0.00    +0.000 N 
ATOM     11  C   UNL     1       1.673   5.891  20.735  0.00  0.00    +0.000 C 
ENDROOT
BRANCH  10  12
ATOM     12  C   UNL     1       2.905   4.458  18.891  0.00  0.00    +0.000 C 
ATOM     13  C   UNL     1       3.889   3.686  19.754  0.00  0.00    +0.000 C 
ATOM     14  C   UNL     1       4.302   2.402  19.052  0.00  0.00    +0.000 C 
ATOM     15  O   UNL     1       3.154   1.629  18.702  0.00  0.00    +0.000 OA
ATOM     16  C   UNL     1       2.339   2.300  17.739  0.00  0.00    +0.000 C 
ATOM     17  C   UNL     1       1.763   3.603  18.302  0.00  0.00    +0.000 C 
BRANCH  17  18
ATOM     18  O   UNL     1       1.079   4.307  17.256  0.00  0.00    +0.000 OA
ATOM     19  H   UNL     1       1.280   5.258  17.345  0.00  0.00    +0.000 HD
ENDBRANCH  17  18
ENDBRANCH  10  12
BRANCH   7  20
ATOM     20  C   UNL     1       0.543  11.334  19.123  0.00  0.00    +0.000 C 
BRANCH  20  21
ATOM     21  C   UNL     1       1.664  12.360  19.217  0.00  0.00    +0.000 A 
ATOM     22  C   UNL     1       1.987  12.936  20.451  0.00  0.00    +0.000 A 
ATOM     23  C   UNL     1       2.923  13.970  20.541  0.00  0.00    +0.000 A 
ATOM     24  C   UNL     1       3.559  14.462  19.397  0.00  0.00    +0.000 A 
ATOM     25  C   UNL     1       3.295  13.846  18.170  0.00  0.00    +0.000 A 
ATOM     26  C   UNL     1       2.350  12.808  18.077  0.00  0.00    +0.000 A 
BRANCH  24  27
ATOM     27  C   UNL     1       4.425  15.626  19.498  0.00  0.00    +0.000 A 
ATOM     28  C   UNL     1       4.128  17.010  19.533  0.00  0.00    +0.000 A 
ATOM     29  N   UNL     1       5.222  17.778  19.540  0.00  0.00    +0.000 NA
ATOM     30  N   UNL     1       6.227  16.887  19.492  0.00  0.00    +0.000 N 
ATOM     31  C   UNL     1       7.598  17.337  19.472  0.00  0.00    +0.000 C 
ATOM     32  C   UNL     1       5.804  15.590  19.458  0.00  0.00    +0.000 A 
ENDBRANCH  24  27
ENDBRANCH  20  21
ENDBRANCH   7  20
TORSDOF 5
ENDMDL
MODEL 3
REMARK VINA RESULT:      -7.8      4.800     10.420
REMARK  Name = 
REMARK  7 active torsions:
REMARK  status: ('A' for Active; 'I' for Inactive)
REMARK    1  A    between atoms: C_1  and  C_2
REMARK    2  A    between atoms: C_7  and  C_8
REMARK    3  A    between atoms: C_8  and  C_9
REMARK    4  A    between atoms: C_12  and  C_13
REMARK    5  A    between atoms: N_16  and  C_17
REMARK    6  A    between atoms: N_23  and  C_24
REMARK    7  A    between atoms: C_29  and  O_30
REMARK                            x       y       z     vdW  Elec       q    Type
REMARK                         _______ _______ _______ _____ _____    ______ ____
ROOT
ATOM      1  C   UNL     1       2.626  12.294  18.144  0.00  0.00    +0.000 C 
ATOM      2  C   UNL     1       1.529  12.392  19.176  0.00  0.00    +0.000 A 
ATOM      3  C   UNL     1       1.446  13.561  19.997  0.00  0.00    +0.000 A 
ATOM      4  C   UNL     1       0.554  13.571  21.061  0.00  0.00    +0.000 A 
ATOM      5  C   UNL     1      -0.149  12.403  21.325  0.00  0.00    +0.000 A 
ATOM      6  C   UNL     1      -0.166  11.295  20.515  0.00  0.00    +0.000 A 
ATOM      7  C   UNL     1       0.647  11.290  19.390  0.00  0.00    +0.000 A 
ATOM      8  C   UNL     1      -0.930  12.574  22.533  0.00  0.00    +0.000 C 
ATOM      9  O   UNL     1      -1.521  11.663  23.090  0.00  0.00    +0.000 OA
ATOM     10  N   UNL     1      -0.868  13.897  22.866  0.00  0.00    +0.000 N 
ATOM     11  C   UNL     1       0.125  14.620  22.064  0.00  0.00    +0.000 C 
ENDROOT
BRANCH  10  12
ATOM     12  C   UNL     1      -1.792  14.413  23.867  0.00  0.00    +0.000 C 
ATOM     13  C   UNL     1      -1.094  15.217  24.951  0.00  0.00    +0.000 C 
ATOM     14  C   UNL     1      -2.113  15.732  25.955  0.00  0.00    +0.000 C 
ATOM     15  O   UNL     1      -3.138  16.475  25.296  0.00  0.00    +0.000 OA
ATOM     16  C   UNL     1      -3.908  15.650  24.419  0.00  0.00    +0.000 C 
ATOM     17  C   UNL     1      -3.050  15.090  23.280  0.00  0.00    +0.000 C 
BRANCH  17  18
ATOM     18  O   UNL     1      -3.829  14.156  22.518  0.00  0.00    +0.000 OA
ATOM     19  H   UNL     1      -3.518  14.180  21.593  0.00  0.00    +0.000 HD
ENDBRANCH  17  18
ENDBRANCH  10  12
BRANCH   7  20
ATOM     20  C   UNL     1       0.450  10.116  18.443  0.00  0.00    +0.000 C 
BRANCH  20  21
ATOM     21  C   UNL     1       1.417   8.974  18.726  0.00  0.00    +0.000 A 
ATOM     22  C   UNL     1       2.285   8.524  17.725  0.00  0.00    +0.000 A 
ATOM     23  C   UNL     1       3.089   7.397  17.921  0.00  0.00    +0.000 A 
ATOM     24  C   UNL     1       3.044   6.685  19.124  0.00  0.00    +0.000 A 
ATOM     25  C   UNL     1       2.233   7.170  20.155  0.00  0.00    +0.000 A 
ATOM     26  C   UNL     1       1.420   8.300  19.958  0.00  0.00    +0.000 A 
BRANCH  24  27
ATOM     27  C   UNL     1       3.787   5.442  19.254  0.00  0.00    +0.000 A 
ATOM     28  C   UNL     1       5.175   5.173  19.188  0.00  0.00    +0.000 A 
ATOM     29  N   UNL     1       5.457   3.868  19.268  0.00  0.00    +0.000 NA
ATOM     30  N   UNL     1       4.246   3.294  19.369  0.00  0.00    +0.000 N 
ATOM     31  C   UNL     1       4.127   1.859  19.467  0.00  0.00    +0.000 C 
ATOM     32  C   UNL     1       3.216   4.190  19.358  0.00  0.00    +0.000 A 
ENDBRANCH  24  27
ENDBRANCH  20  21
ENDBRANCH   7  20
TORSDOF 5
ENDMDL
MODEL 4
REMARK VINA RESULT:      -7.8      4.903     10.055
REMARK  Name = 
REMARK  7 active torsions:
REMARK  status: ('A' for Active; 'I' for Inactive)
REMARK    1  A    between atoms: C_1  and  C_2
REMARK    2  A    between atoms: C_7  and  C_8
REMARK    3  A    between atoms: C_8  and  C_9
REMARK    4  A    between atoms: C_12  and  C_13
REMARK    5  A    between atoms: N_16  and  C_17
REMARK    6  A    between atoms: N_23  and  C_24
REMARK    7  A    between atoms: C_29  and  O_30
REMARK                            x       y       z     vdW  Elec       q    Type
REMARK                         _______ _______ _______ _____ _____    ______ ____
ROOT
ATOM      1  C   UNL     1       4.218   3.050  19.277  0.00  0.00    +0.000 C 
ATOM      2  C   UNL     1       3.811   4.504  19.301  0.00  0.00    +0.000 A 
ATOM      3  C   UNL     1       2.731   4.913  20.145  0.00  0.00    +0.000 A 
ATOM      4  C   UNL     1       2.243   6.208  20.030  0.00  0.00    +0.000 A 
ATOM      5  C   UNL     1       2.777   7.012  19.032  0.00  0.00    +0.000 A 
ATOM      6  C   UNL     1       3.868   6.692  18.264  0.00  0.00    +0.000 A 
ATOM      7  C   UNL     1       4.438   5.437  18.420  0.00  0.00    +0.000 A 
ATOM      8  C   UNL     1       2.063   8.272  18.996  0.00  0.00    +0.000 C 
ATOM      9  O   UNL     1       2.211   9.108  18.119  0.00  0.00    +0.000 OA
ATOM     10  N   UNL     1       1.260   8.309  20.100  0.00  0.00    +0.000 N 
ATOM     11  C   UNL     1       1.210   7.013  20.787  0.00  0.00    +0.000 C 
ENDROOT
BRANCH  10  12
ATOM     12  C   UNL     1       0.645   9.574  20.480  0.00  0.00    +0.000 C 
ATOM     13  C   UNL     1      -0.509   9.962  19.571  0.00  0.00    +0.000 C 
ATOM     14  C   UNL     1      -1.108  11.284  20.026  0.00  0.00    +0.000 C 
ATOM     15  O   UNL     1      -1.490  11.216  21.400  0.00  0.00    +0.000 OA
ATOM     16  C   UNL     1      -0.359  11.040  22.254  0.00  0.00    +0.000 C 
ATOM     17  C   UNL     1       0.343   9.704  21.988  0.00  0.00    +0.000 C 
BRANCH  17  18
ATOM     18  O   UNL     1       1.549   9.643  22.763  0.00  0.00    +0.000 OA
ATOM     19  H   UNL     1       1.652   8.732  23.097  0.00  0.00    +0.000 HD
ENDBRANCH  17  18
ENDBRANCH  10  12
BRANCH   7  20
ATOM     20  C   UNL     1       5.744   5.210  17.673  0.00  0.00    +0.000 C 
BRANCH  20  21
ATOM     21  C   UNL     1       6.713   6.373  17.835  0.00  0.00    +0.000 A 
ATOM     22  C   UNL     1       7.714   6.324  18.811  0.00  0.00    +0.000 A 
ATOM     23  C   UNL     1       8.532   7.429  19.063  0.00  0.00    +0.000 A 
ATOM     24  C   UNL     1       8.368   8.619  18.347  0.00  0.00    +0.000 A 
ATOM     25  C   UNL     1       7.418   8.654  17.320  0.00  0.00    +0.000 A 
ATOM     26  C   UNL     1       6.592   7.544  17.070  0.00  0.00    +0.000 A 
BRANCH  24  27
ATOM     27  C   UNL     1       9.137   9.796  18.718  0.00  0.00    +0.000 A 
ATOM     28  C   UNL     1       9.473  10.330  19.986  0.00  0.00    +0.000 A 
ATOM     29  N   UNL     1      10.127  11.493  19.904  0.00  0.00    +0.000 NA
ATOM     30  N   UNL     1      10.199  11.717  18.581  0.00  0.00    +0.000 N 
ATOM     31  C   UNL     1      10.840  12.909  18.080  0.00  0.00    +0.000 C 
ATOM     32  C   UNL     1       9.616  10.738  17.830  0.00  0.00    +0.000 A 
ENDBRANCH  24  27
ENDBRANCH  20  21
ENDBRANCH   7  20
TORSDOF 5
ENDMDL
MODEL 5
REMARK VINA RESULT:      -7.8      3.042      3.869
REMARK  Name = 
REMARK  7 active torsions:
REMARK  status: ('A' for Active; 'I' for Inactive)
REMARK    1  A    between atoms: C_1  and  C_2
REMARK    2  A    between atoms: C_7  and  C_8
REMARK    3  A    between atoms: C_8  and  C_9
REMARK    4  A    between atoms: C_12  and  C_13
REMARK    5  A    between atoms: N_16  and  C_17
REMARK    6  A    between atoms: N_23  and  C_24
REMARK    7  A    between atoms: C_29  and  O_30
REMARK                            x       y       z     vdW  Elec       q    Type
REMARK                         _______ _______ _______ _____ _____    ______ ____
ROOT
ATOM      1  C   UNL     1      -0.771  10.148  22.266  0.00  0.00    +0.000 C 
ATOM      2  C   UNL     1      -0.071   9.518  21.088  0.00  0.00    +0.000 A 
ATOM      3  C   UNL     1       0.788   8.395  21.305  0.00  0.00    +0.000 A 
ATOM      4  C   UNL     1       1.568   7.933  20.252  0.00  0.00    +0.000 A 
ATOM      5  C   UNL     1       1.536   8.650  19.063  0.00  0.00    +0.000 A 
ATOM      6  C   UNL     1       0.667   9.674  18.785  0.00  0.00    +0.000 A 
ATOM      7  C   UNL     1      -0.193  10.099  19.788  0.00  0.00    +0.000 A 
ATOM      8  C   UNL     1       2.497   8.087  18.137  0.00  0.00    +0.000 C 
ATOM      9  O   UNL     1       2.798   8.608  17.075  0.00  0.00    +0.000 OA
ATOM     10  N   UNL     1       2.940   6.915  18.681  0.00  0.00    +0.000 N 
ATOM     11  C   UNL     1       2.497   6.753  20.071  0.00  0.00    +0.000 C 
ENDROOT
BRANCH  10  12
ATOM     12  C   UNL     1       3.690   5.990  17.843  0.00  0.00    +0.000 C 
ATOM     13  C   UNL     1       5.193   6.191  17.946  0.00  0.00    +0.000 C 
ATOM     14  C   UNL     1       5.914   5.191  17.055  0.00  0.00    +0.000 C 
ATOM     15  O   UNL     1       5.516   3.858  17.371  0.00  0.00    +0.000 OA
ATOM     16  C   UNL     1       4.134   3.637  17.084  0.00  0.00    +0.000 C 
ATOM     17  C   UNL     1       3.233   4.519  17.955  0.00  0.00    +0.000 C 
BRANCH  17  18
ATOM     18  O   UNL     1       1.871   4.369  17.527  0.00  0.00    +0.000 OA
ATOM     19  H   UNL     1       1.858   3.779  16.750  0.00  0.00    +0.000 HD
ENDBRANCH  17  18
ENDBRANCH  10  12
BRANCH   7  20
ATOM     20  C   UNL     1      -1.248  11.109  19.365  0.00  0.00    +0.000 C 
BRANCH  20  21
ATOM     21  C   UNL     1      -1.924  10.728  18.056  0.00  0.00    +0.000 A 
ATOM     22  C   UNL     1      -1.462   9.631  17.320  0.00  0.00    +0.000 A 
ATOM     23  C   UNL     1      -1.983   9.339  16.056  0.00  0.00    +0.000 A 
ATOM     24  C   UNL     1      -2.979  10.140  15.489  0.00  0.00    +0.000 A 
ATOM     25  C   UNL     1      -3.497  11.196  16.247  0.00  0.00    +0.000 A 
ATOM     26  C   UNL     1      -2.970  11.493  17.517  0.00  0.00    +0.000 A 
BRANCH  24  27
ATOM     27  C   UNL     1      -3.408   9.898  14.121  0.00  0.00    +0.000 A 
ATOM     28  C   UNL     1      -2.667   9.631  12.944  0.00  0.00    +0.000 A 
ATOM     29  N   UNL     1      -3.434   9.555  11.852  0.00  0.00    +0.000 NA
ATOM     30  N   UNL     1      -4.670   9.791  12.323  0.00  0.00    +0.000 N 
ATOM     31  C   UNL     1      -5.800   9.806  11.425  0.00  0.00    +0.000 C 
ATOM     32  C   UNL     1      -4.707  10.010  13.670  0.00  0.00    +0.000 A 
ENDBRANCH  24  27
ENDBRANCH  20  21
ENDBRANCH   7  20
TORSDOF 5
ENDMDL
MODEL 6
REMARK VINA RESULT:      -7.7      4.339      6.250
REMARK  Name = 
REMARK  7 active torsions:
REMARK  status: ('A' for Active; 'I' for Inactive)
REMARK    1  A    between atoms: C_1  and  C_2
REMARK    2  A    between atoms: C_7  and  C_8
REMARK    3  A    between atoms: C_8  and  C_9
REMARK    4  A    between atoms: C_12  and  C_13
REMARK    5  A    between atoms: N_16  and  C_17
REMARK    6  A    between atoms: N_23  and  C_24
REMARK    7  A    between atoms: C_29  and  O_30
REMARK                            x       y       z     vdW  Elec       q    Type
REMARK                         _______ _______ _______ _____ _____    ______ ____
ROOT
ATOM      1  C   UNL     1      -0.066  10.541  22.375  0.00  0.00    +0.000 C 
ATOM      2  C   UNL     1       0.468   9.760  21.199  0.00  0.00    +0.000 A 
ATOM      3  C   UNL     1       0.910   8.414  21.398  0.00  0.00    +0.000 A 
ATOM      4  C   UNL     1       1.566   7.763  20.361  0.00  0.00    +0.000 A 
ATOM      5  C   UNL     1       1.836   8.492  19.211  0.00  0.00    +0.000 A 
ATOM      6  C   UNL     1       1.356   9.750  18.945  0.00  0.00    +0.000 A 
ATOM      7  C   UNL     1       0.617  10.393  19.928  0.00  0.00    +0.000 A 
ATOM      8  C   UNL     1       2.622   7.683  18.302  0.00  0.00    +0.000 C 
ATOM      9  O   UNL     1       3.138   8.116  17.284  0.00  0.00    +0.000 OA
ATOM     10  N   UNL     1       2.635   6.413  18.806  0.00  0.00    +0.000 N 
ATOM     11  C   UNL     1       2.081   6.354  20.163  0.00  0.00    +0.000 C 
ENDROOT
BRANCH  10  12
ATOM     12  C   UNL     1       3.102   5.325  17.956  0.00  0.00    +0.000 C 
ATOM     13  C   UNL     1       4.563   4.982  18.193  0.00  0.00    +0.000 C 
ATOM     14  C   UNL     1       4.983   3.837  17.284  0.00  0.00    +0.000 C 
ATOM     15  O   UNL     1       4.120   2.714  17.458  0.00  0.00    +0.000 OA
ATOM     16  C   UNL     1       2.783   3.006  17.047  0.00  0.00    +0.000 C 
ATOM     17  C   UNL     1       2.158   4.105  17.913  0.00  0.00    +0.000 C 
BRANCH  17  18
ATOM     18  O   UNL     1       0.879   4.462  17.369  0.00  0.00    +0.000 OA
ATOM     19  H   UNL     1       0.245   4.547  18.107  0.00  0.00    +0.000 HD
ENDBRANCH  17  18
ENDBRANCH  10  12
BRANCH   7  20
ATOM     20  C   UNL     1      -0.035  11.702  19.509  0.00  0.00    +0.000 C 
BRANCH  20  21
ATOM     21  C   UNL     1       0.951  12.863  19.497  0.00  0.00    +0.000 A 
ATOM     22  C   UNL     1       1.474  13.329  18.285  0.00  0.00    +0.000 A 
ATOM     23  C   UNL     1       2.474  14.304  18.260  0.00  0.00    +0.000 A 
ATOM     24  C   UNL     1       2.983  14.840  19.447  0.00  0.00    +0.000 A 
ATOM     25  C   UNL     1       2.417  14.433  20.659  0.00  0.00    +0.000 A 
ATOM     26  C   UNL     1       1.414  13.447  20.686  0.00  0.00    +0.000 A 
BRANCH  24  27
ATOM     27  C   UNL     1       4.114  15.752  19.399  0.00  0.00    +0.000 A 
ATOM     28  C   UNL     1       4.197  17.150  19.614  0.00  0.00    +0.000 A 
ATOM     29  N   UNL     1       5.419  17.640  19.385  0.00  0.00    +0.000 NA
ATOM     30  N   UNL     1       6.122  16.560  19.006  0.00  0.00    +0.000 N 
ATOM     31  C   UNL     1       7.516  16.686  18.655  0.00  0.00    +0.000 C 
ATOM     32  C   UNL     1       5.387  15.410  18.990  0.00  0.00    +0.000 A 
ENDBRANCH  24  27
ENDBRANCH  20  21
ENDBRANCH   7  20
TORSDOF 5
ENDMDL
MODEL 7
REMARK VINA RESULT:      -7.7      0.821      1.243
REMARK  Name = 
REMARK  7 active torsions:
REMARK  status: ('A' for Active; 'I' for Inactive)
REMARK    1  A    between atoms: C_1  and  C_2
REMARK    2  A    between atoms: C_7  and  C_8
REMARK    3  A    between atoms: C_8  and  C_9
REMARK    4  A    between atoms: C_12  and  C_13
REMARK    5  A    between atoms: N_16  and  C_17
REMARK    6  A    between atoms: N_23  and  C_24
REMARK    7  A    between atoms: C_29  and  O_30
REMARK                            x       y       z     vdW  Elec       q    Type
REMARK                         _______ _______ _______ _____ _____    ______ ____
ROOT
ATOM      1  C   UNL     1       0.535  10.889  21.559  0.00  0.00    +0.000 C 
ATOM      2  C   UNL     1       0.903   9.666  20.755  0.00  0.00    +0.000 A 
ATOM      3  C   UNL     1       1.039   8.408  21.421  0.00  0.00    +0.000 A 
ATOM      4  C   UNL     1       1.552   7.327  20.715  0.00  0.00    +0.000 A 
ATOM      5  C   UNL     1       1.992   7.554  19.418  0.00  0.00    +0.000 A 
ATOM      6  C   UNL     1       1.800   8.716  18.715  0.00  0.00    +0.000 A 
ATOM      7  C   UNL     1       1.205   9.788  19.364  0.00  0.00    +0.000 A 
ATOM      8  C   UNL     1       2.596   6.345  18.896  0.00  0.00    +0.000 C 
ATOM      9  O   UNL     1       3.209   6.296  17.842  0.00  0.00    +0.000 OA
ATOM     10  N   UNL     1       2.325   5.346  19.787  0.00  0.00    +0.000 N 
ATOM     11  C   UNL     1       1.751   5.861  21.035  0.00  0.00    +0.000 C 
ENDROOT
BRANCH  10  12
ATOM     12  C   UNL     1       2.556   3.964  19.385  0.00  0.00    +0.000 C 
ATOM     13  C   UNL     1       1.319   3.312  18.792  0.00  0.00    +0.000 C 
ATOM     14  C   UNL     1       1.630   1.879  18.387  0.00  0.00    +0.000 C 
ATOM     15  O   UNL     1       2.750   1.837  17.503  0.00  0.00    +0.000 OA
ATOM     16  C   UNL     1       3.947   2.279  18.146  0.00  0.00    +0.000 C 
ATOM     17  C   UNL     1       3.848   3.749  18.566  0.00  0.00    +0.000 C 
BRANCH  17  18
ATOM     18  O   UNL     1       5.008   4.100  19.334  0.00  0.00    +0.000 OA
ATOM     19  H   UNL     1       5.791   3.708  18.902  0.00  0.00    +0.000 HD
ENDBRANCH  17  18
ENDBRANCH  10  12
BRANCH   7  20
ATOM     20  C   UNL     1       0.860  10.980  18.484  0.00  0.00    +0.000 C 
BRANCH  20  21
ATOM     21  C   UNL     1      -0.641  11.215  18.387  0.00  0.00    +0.000 A 
ATOM     22  C   UNL     1      -1.211  12.363  18.950  0.00  0.00    +0.000 A 
ATOM     23  C   UNL     1      -2.597  12.537  18.986  0.00  0.00    +0.000 A 
ATOM     24  C   UNL     1      -3.455  11.564  18.464  0.00  0.00    +0.000 A 
ATOM     25  C   UNL     1      -2.893  10.447  17.836  0.00  0.00    +0.000 A 
ATOM     26  C   UNL     1      -1.498  10.269  17.804  0.00  0.00    +0.000 A 
BRANCH  24  27
ATOM     27  C   UNL     1      -4.892  11.703  18.634  0.00  0.00    +0.000 A 
ATOM     28  C   UNL     1      -5.970  10.923  18.150  0.00  0.00    +0.000 A 
ATOM     29  N   UNL     1      -7.165  11.439  18.454  0.00  0.00    +0.000 NA
ATOM     30  N   UNL     1      -6.857  12.563  19.122  0.00  0.00    +0.000 N 
ATOM     31  C   UNL     1      -7.903  13.424  19.619  0.00  0.00    +0.000 C 
ATOM     32  C   UNL     1      -5.514  12.770  19.250  0.00  0.00    +0.000 A 
ENDBRANCH  24  27
ENDBRANCH  20  21
ENDBRANCH   7  20
TORSDOF 5
ENDMDL
MODEL 8
REMARK VINA RESULT:      -7.7      4.434      6.066
REMARK  Name = 
REMARK  7 active torsions:
REMARK  status: ('A' for Active; 'I' for Inactive)
REMARK    1  A    between atoms: C_1  and  C_2
REMARK    2  A    between atoms: C_7  and  C_8
REMARK    3  A    between atoms: C_8  and  C_9
REMARK    4  A    between atoms: C_12  and  C_13
REMARK    5  A    between atoms: N_16  and  C_17
REMARK    6  A    between atoms: N_23  and  C_24
REMARK    7  A    between atoms: C_29  and  O_30
REMARK                            x       y       z     vdW  Elec       q    Type
REMARK                         _______ _______ _______ _____ _____    ______ ____
ROOT
ATOM      1  C   UNL     1      -0.404  11.221  21.918  0.00  0.00    +0.000 C 
ATOM      2  C   UNL     1       0.187  10.206  20.970  0.00  0.00    +0.000 A 
ATOM      3  C   UNL     1       0.603   8.935  21.477  0.00  0.00    +0.000 A 
ATOM      4  C   UNL     1       1.308   8.078  20.643  0.00  0.00    +0.000 A 
ATOM      5  C   UNL     1       1.649   8.543  19.380  0.00  0.00    +0.000 A 
ATOM      6  C   UNL     1       1.198   9.713  18.824  0.00  0.00    +0.000 A 
ATOM      7  C   UNL     1       0.412  10.552  19.602  0.00  0.00    +0.000 A 
ATOM      8  C   UNL     1       2.476   7.559  18.712  0.00  0.00    +0.000 C 
ATOM      9  O   UNL     1       3.053   7.764  17.656  0.00  0.00    +0.000 OA
ATOM     10  N   UNL     1       2.448   6.427  19.477  0.00  0.00    +0.000 N 
ATOM     11  C   UNL     1       1.818   6.660  20.781  0.00  0.00    +0.000 C 
ENDROOT
BRANCH  10  12
ATOM     12  C   UNL     1       2.950   5.183  18.908  0.00  0.00    +0.000 C 
ATOM     13  C   UNL     1       2.052   4.635  17.812  0.00  0.00    +0.000 C 
ATOM     14  C   UNL     1       2.636   3.344  17.258  0.00  0.00    +0.000 C 
ATOM     15  O   UNL     1       3.978   3.547  16.818  0.00  0.00    +0.000 OA
ATOM     16  C   UNL     1       4.846   3.876  17.904  0.00  0.00    +0.000 C 
ATOM     17  C   UNL     1       4.452   5.208  18.552  0.00  0.00    +0.000 C 
BRANCH  17  18
ATOM     18  O   UNL     1       5.256   5.420  19.722  0.00  0.00    +0.000 OA
ATOM     19  H   UNL     1       5.889   4.681  19.796  0.00  0.00    +0.000 HD
ENDBRANCH  17  18
ENDBRANCH  10  12
BRANCH   7  20
ATOM     20  C   UNL     1      -0.201  11.739  18.876  0.00  0.00    +0.000 C 
BRANCH  20  21
ATOM     21  C   UNL     1       0.710  12.958  18.885  0.00  0.00    +0.000 A 
ATOM     22  C   UNL     1       2.028  12.855  18.425  0.00  0.00    +0.000 A 
ATOM     23  C   UNL     1       2.919  13.925  18.543  0.00  0.00    +0.000 A 
ATOM     24  C   UNL     1       2.519  15.130  19.129  0.00  0.00    +0.000 A 
ATOM     25  C   UNL     1       1.184  15.267  19.526  0.00  0.00    +0.000 A 
ATOM     26  C   UNL     1       0.288  14.189  19.413  0.00  0.00    +0.000 A 
BRANCH  24  27
ATOM     27  C   UNL     1       3.498  16.178  19.362  0.00  0.00    +0.000 A 
ATOM     28  C   UNL     1       4.575  16.644  18.569  0.00  0.00    +0.000 A 
ATOM     29  N   UNL     1       5.309  17.577  19.184  0.00  0.00    +0.000 NA
ATOM     30  N   UNL     1       4.714  17.701  20.382  0.00  0.00    +0.000 N 
ATOM     31  C   UNL     1       5.234  18.628  21.359  0.00  0.00    +0.000 C 
ATOM     32  C   UNL     1       3.633  16.883  20.541  0.00  0.00    +0.000 A 
ENDBRANCH  24  27
ENDBRANCH  20  21
ENDBRANCH   7  20
TORSDOF 5
ENDMDL
MODEL 9
REMARK VINA RESULT:      -7.6      4.419      5.809
REMARK  Name = 
REMARK  7 active torsions:
REMARK  status: ('A' for Active; 'I' for Inactive)
REMARK    1  A    between atoms: C_1  and  C_2
REMARK    2  A    between atoms: C_7  and  C_8
REMARK    3  A    between atoms: C_8  and  C_9
REMARK    4  A    between atoms: C_12  and  C_13
REMARK    5  A    between atoms: N_16  and  C_17
REMARK    6  A    between atoms: N_23  and  C_24
REMARK    7  A    between atoms: C_29  and  O_30
REMARK                            x       y       z     vdW  Elec       q    Type
REMARK                         _______ _______ _______ _____ _____    ______ ____
ROOT
ATOM      1  C   UNL     1      -0.314  10.382  22.394  0.00  0.00    +0.000 C 
ATOM      2  C   UNL     1       0.271   9.656  21.207  0.00  0.00    +0.000 A 
ATOM      3  C   UNL     1       0.779   8.330  21.380  0.00  0.00    +0.000 A 
ATOM      4  C   UNL     1       1.477   7.737  20.336  0.00  0.00    +0.000 A 
ATOM      5  C   UNL     1       1.721   8.505  19.205  0.00  0.00    +0.000 A 
ATOM      6  C   UNL     1       1.180   9.742  18.963  0.00  0.00    +0.000 A 
ATOM      7  C   UNL     1       0.399  10.325  19.951  0.00  0.00    +0.000 A 
ATOM      8  C   UNL     1       2.557   7.758  18.287  0.00  0.00    +0.000 C 
ATOM      9  O   UNL     1       3.059   8.240  17.285  0.00  0.00    +0.000 OA
ATOM     10  N   UNL     1       2.630   6.480  18.763  0.00  0.00    +0.000 N 
ATOM     11  C   UNL     1       2.066   6.361  20.112  0.00  0.00    +0.000 C 
ENDROOT
BRANCH  10  12
ATOM     12  C   UNL     1       3.160   5.437  17.895  0.00  0.00    +0.000 C 
ATOM     13  C   UNL     1       4.655   5.232  18.069  0.00  0.00    +0.000 C 
ATOM     14  C   UNL     1       5.141   4.128  17.143  0.00  0.00    +0.000 C 
ATOM     15  O   UNL     1       4.395   2.930  17.354  0.00  0.00    +0.000 OA
ATOM     16  C   UNL     1       3.021   3.094  17.000  0.00  0.00    +0.000 C 
ATOM     17  C   UNL     1       2.332   4.133  17.891  0.00  0.00    +0.000 C 
BRANCH  17  18
ATOM     18  O   UNL     1       1.004   4.368  17.402  0.00  0.00    +0.000 OA
ATOM     19  H   UNL     1       0.904   5.324  17.233  0.00  0.00    +0.000 HD
ENDBRANCH  17  18
ENDBRANCH  10  12
BRANCH   7  20
ATOM     20  C   UNL     1      -0.314  11.608  19.554  0.00  0.00    +0.000 C 
BRANCH  20  21
ATOM     21  C   UNL     1       0.598  12.825  19.626  0.00  0.00    +0.000 A 
ATOM     22  C   UNL     1       1.594  12.900  20.607  0.00  0.00    +0.000 A 
ATOM     23  C   UNL     1       2.357  14.059  20.772  0.00  0.00    +0.000 A 
ATOM     24  C   UNL     1       2.143  15.180  19.964  0.00  0.00    +0.000 A 
ATOM     25  C   UNL     1       1.199  15.089  18.935  0.00  0.00    +0.000 A 
ATOM     26  C   UNL     1       0.427  13.925  18.770  0.00  0.00    +0.000 A 
BRANCH  24  27
ATOM     27  C   UNL     1       2.853  16.417  20.243  0.00  0.00    +0.000 A 
ATOM     28  C   UNL     1       2.397  17.754  20.344  0.00  0.00    +0.000 A 
ATOM     29  N   UNL     1       3.389  18.630  20.527  0.00  0.00    +0.000 NA
ATOM     30  N   UNL     1       4.489  17.859  20.527  0.00  0.00    +0.000 N 
ATOM     31  C   UNL     1       5.794  18.454  20.692  0.00  0.00    +0.000 C 
ATOM     32  C   UNL     1       4.224  16.532  20.353  0.00  0.00    +0.000 A 
ENDBRANCH  24  27
ENDBRANCH  20  21
ENDBRANCH   7  20
TORSDOF 5
ENDMDL
