MODEL 1
REMARK VINA RESULT:      -7.6      0.000      0.000
REMARK  Name = 
REMARK  6 active torsions:
REMARK  status: ('A' for Active; 'I' for Inactive)
REMARK    1  A    between atoms: C_1  and  C_2
REMARK    2  A    between atoms: C_5  and  C_6
REMARK    3  A    between atoms: C_6  and  C_7
REMARK    4  A    between atoms: C_12  and  C_13
REMARK    5  A    between atoms: C_16  and  C_17
REMARK    6  A    between atoms: C_17  and  O_19
REMARK                            x       y       z     vdW  Elec       q    Type
REMARK                         _______ _______ _______ _____ _____    ______ ____
ROOT
ATOM      1  C   UNL     1       2.736   6.594  18.348  0.00  0.00    +0.000 C 
ATOM      2  O   UNL     1       2.119   5.801  19.066  0.00  0.00    +0.000 OA
ATOM      3  N   UNL     1       3.827   6.194  17.588  0.00  0.00    +0.000 N 
ATOM      4  C   UNL     1       4.118   4.768  17.449  0.00  0.00    +0.000 C 
ATOM      5  C   UNL     1       5.552   4.462  17.871  0.00  0.00    +0.000 C 
ATOM      6  C   UNL     1       6.565   5.332  17.111  0.00  0.00    +0.000 C 
ATOM      7  C   UNL     1       6.183   6.817  17.249  0.00  0.00    +0.000 C 
ATOM      8  C   UNL     1       4.726   7.096  16.871  0.00  0.00    +0.000 C 
ENDROOT
BRANCH   6   9
ATOM      9  C   UNL     1       6.671   4.915  15.661  0.00  0.00    +0.000 A 
ATOM     10  N   UNL     1       7.515   5.442  14.801  0.00  0.00    +0.000 NA
ATOM     11  C   UNL     1       7.336   4.893  13.553  0.00  0.00    +0.000 A 
ATOM     12  C   UNL     1       6.358   3.925  13.463  0.00  0.00    +0.000 A 
ATOM     13  S   UNL     1       5.636   3.706  15.005  0.00  0.00    +0.000 S 
BRANCH  12  14
ATOM     14  C   UNL     1       5.964   3.204  12.279  0.00  0.00    +0.000 C 
ATOM     15  O   UNL     1       4.866   3.280  11.743  0.00  0.00    +0.000 OA
BRANCH  14  16
ATOM     16  O   UNL     1       6.946   2.409  11.782  0.00  0.00    +0.000 OA
ATOM     17  H   UNL     1       6.887   1.496  12.124  0.00  0.00    +0.000 HD
ENDBRANCH  14  16
ENDBRANCH  12  14
ENDBRANCH   6   9
BRANCH   1  18
ATOM     18  C   UNL     1       2.287   8.045  18.264  0.00  0.00    +0.000 C 
BRANCH  18  23
ATOM     19  C   UNL     1      -0.550  10.816  21.841  0.00  0.00    +0.000 C 
ATOM     20  C   UNL     1       0.331   9.806  21.189  0.00  0.00    +0.000 A 
ATOM     21  C   UNL     1       0.912   8.687  21.746  0.00  0.00    +0.000 A 
ATOM     22  C   UNL     1       1.676   7.945  20.799  0.00  0.00    +0.000 A 
ATOM     23  C   UNL     1       1.663   8.522  19.543  0.00  0.00    +0.000 A 
ATOM     24  S   UNL     1       0.725   9.959  19.532  0.00  0.00    +0.000 S 
ENDBRANCH  18  23
ENDBRANCH   1  18
TORSDOF 5
ENDMDL
MODEL 2
REMARK VINA RESULT:      -7.4      0.794      1.017
REMARK  Name = 
REMARK  6 active torsions:
REMARK  status: ('A' for Active; 'I' for Inactive)
REMARK    1  A    between atoms: C_1  and  C_2
REMARK    2  A    between atoms: C_5  and  C_6
REMARK    3  A    between atoms: C_6  and  C_7
REMARK    4  A    between atoms: C_12  and  C_13
REMARK    5  A    between atoms: C_16  and  C_17
REMARK    6  A    between atoms: C_17  and  O_19
REMARK                            x       y       z     vdW  Elec       q    Type
REMARK                         _______ _______ _______ _____ _____    ______ ____
ROOT
ATOM      1  C   UNL     1       2.781   6.974  18.311  0.00  0.00    +0.000 C 
ATOM      2  O   UNL     1       2.019   6.254  18.964  0.00  0.00    +0.000 OA
ATOM      3  N   UNL     1       3.850   6.448  17.598  0.00  0.00    +0.000 N 
ATOM      4  C   UNL     1       3.950   5.001  17.422  0.00  0.00    +0.000 C 
ATOM      5  C   UNL     1       5.300   4.486  17.912  0.00  0.00    +0.000 C 
ATOM      6  C   UNL     1       6.467   5.228  17.242  0.00  0.00    +0.000 C 
ATOM      7  C   UNL     1       6.285   6.747  17.414  0.00  0.00    +0.000 C 
ATOM      8  C   UNL     1       4.906   7.237  16.966  0.00  0.00    +0.000 C 
ENDROOT
BRANCH   6   9
ATOM      9  C   UNL     1       6.602   4.843  15.785  0.00  0.00    +0.000 A 
ATOM     10  N   UNL     1       7.461   5.389  14.954  0.00  0.00    +0.000 NA
ATOM     11  C   UNL     1       7.307   4.868  13.691  0.00  0.00    +0.000 A 
ATOM     12  C   UNL     1       6.332   3.901  13.561  0.00  0.00    +0.000 A 
ATOM     13  S   UNL     1       5.581   3.648  15.083  0.00  0.00    +0.000 S 
BRANCH  12  14
ATOM     14  C   UNL     1       5.962   3.206  12.354  0.00  0.00    +0.000 C 
ATOM     15  O   UNL     1       4.860   3.256  11.824  0.00  0.00    +0.000 OA
BRANCH  14  16
ATOM     16  O   UNL     1       6.973   2.469  11.826  0.00  0.00    +0.000 OA
ATOM     17  H   UNL     1       7.836   2.918  11.909  0.00  0.00    +0.000 HD
ENDBRANCH  14  16
ENDBRANCH  12  14
ENDBRANCH   6   9
BRANCH   1  18
ATOM     18  C   UNL     1       2.541   8.476  18.257  0.00  0.00    +0.000 C 
BRANCH  18  23
ATOM     19  C   UNL     1      -0.417   9.254  22.635  0.00  0.00    +0.000 C 
ATOM     20  C   UNL     1       0.101   9.278  21.238  0.00  0.00    +0.000 A 
ATOM     21  C   UNL     1      -0.395   9.966  20.150  0.00  0.00    +0.000 A 
ATOM     22  C   UNL     1       0.385   9.758  18.976  0.00  0.00    +0.000 A 
ATOM     23  C   UNL     1       1.455   8.912  19.196  0.00  0.00    +0.000 A 
ATOM     24  S   UNL     1       1.495   8.378  20.828  0.00  0.00    +0.000 S 
ENDBRANCH  18  23
ENDBRANCH   1  18
TORSDOF 5
ENDMDL
MODEL 3
REMARK VINA RESULT:      -7.3      4.218      8.637
REMARK  Name = 
REMARK  6 active torsions:
REMARK  status: ('A' for Active; 'I' for Inactive)
REMARK    1  A    between atoms: C_1  and  C_2
REMARK    2  A    between atoms: C_5  and  C_6
REMARK    3  A    between atoms: C_6  and  C_7
REMARK    4  A    between atoms: C_12  and  C_13
REMARK    5  A    between atoms: C_16  and  C_17
REMARK    6  A    between atoms: C_17  and  O_19
REMARK                            x       y       z     vdW  Elec       q    Type
REMARK                         _______ _______ _______ _____ _____    ______ ____
ROOT
ATOM      1  C   UNL     1       2.089   6.635  19.490  0.00  0.00    +0.000 C 
ATOM      2  O   UNL     1       1.908   5.951  20.502  0.00  0.00    +0.000 OA
ATOM      3  N   UNL     1       1.852   8.003  19.481  0.00  0.00    +0.000 N 
ATOM      4  C   UNL     1       1.604   8.694  20.745  0.00  0.00    +0.000 C 
ATOM      5  C   UNL     1       0.287   9.464  20.694  0.00  0.00    +0.000 C 
ATOM      6  C   UNL     1       0.236  10.423  19.495  0.00  0.00    +0.000 C 
ATOM      7  C   UNL     1       0.554   9.654  18.199  0.00  0.00    +0.000 C 
ATOM      8  C   UNL     1       1.851   8.847  18.287  0.00  0.00    +0.000 C 
ENDROOT
BRANCH   6   9
ATOM      9  C   UNL     1       1.169  11.598  19.690  0.00  0.00    +0.000 A 
ATOM     10  N   UNL     1       1.383  12.187  20.846  0.00  0.00    +0.000 NA
ATOM     11  C   UNL     1       2.236  13.254  20.692  0.00  0.00    +0.000 A 
ATOM     12  C   UNL     1       2.692  13.471  19.409  0.00  0.00    +0.000 A 
ATOM     13  S   UNL     1       2.014  12.292  18.361  0.00  0.00    +0.000 S 
BRANCH  12  14
ATOM     14  C   UNL     1       3.581  14.519  18.974  0.00  0.00    +0.000 C 
ATOM     15  O   UNL     1       4.172  15.292  19.717  0.00  0.00    +0.000 OA
BRANCH  14  16
ATOM     16  O   UNL     1       3.722  14.580  17.626  0.00  0.00    +0.000 OA
ATOM     17  H   UNL     1       4.345  15.282  17.353  0.00  0.00    +0.000 HD
ENDBRANCH  14  16
ENDBRANCH  12  14
ENDBRANCH   6   9
BRANCH   1  18
ATOM     18  C   UNL     1       2.609   5.981  18.218  0.00  0.00    +0.000 C 
BRANCH  18  23
ATOM     19  C   UNL     1       7.896   5.490  18.802  0.00  0.00    +0.000 C 
ATOM     20  C   UNL     1       6.542   5.899  18.331  0.00  0.00    +0.000 A 
ATOM     21  C   UNL     1       6.214   6.725  17.277  0.00  0.00    +0.000 A 
ATOM     22  C   UNL     1       4.805   6.866  17.118  0.00  0.00    +0.000 A 
ATOM     23  C   UNL     1       4.093   6.148  18.060  0.00  0.00    +0.000 A 
ATOM     24  S   UNL     1       5.147   5.314  19.128  0.00  0.00    +0.000 S 
ENDBRANCH  18  23
ENDBRANCH   1  18
TORSDOF 5
ENDMDL
MODEL 4
REMARK VINA RESULT:      -7.2      2.587      8.424
REMARK  Name = 
REMARK  6 active torsions:
REMARK  status: ('A' for Active; 'I' for Inactive)
REMARK    1  A    between atoms: C_1  and  C_2
REMARK    2  A    between atoms: C_5  and  C_6
REMARK    3  A    between atoms: C_6  and  C_7
REMARK    4  A    between atoms: C_12  and  C_13
REMARK    5  A    between atoms: C_16  and  C_17
REMARK    6  A    between atoms: C_17  and  O_19
REMARK                            x       y       z     vdW  Elec       q    Type
REMARK                         _______ _______ _______ _____ _____    ______ ____
ROOT
ATOM      1  C   UNL     1       7.071   4.930  16.663  0.00  0.00    +0.000 C 
ATOM      2  O   UNL     1       7.988   4.218  17.081  0.00  0.00    +0.000 OA
ATOM      3  N   UNL     1       5.845   4.999  17.312  0.00  0.00    +0.000 N 
ATOM      4  C   UNL     1       5.705   4.403  18.640  0.00  0.00    +0.000 C 
ATOM      5  C   UNL     1       4.550   3.406  18.668  0.00  0.00    +0.000 C 
ATOM      6  C   UNL     1       3.239   4.043  18.183  0.00  0.00    +0.000 C 
ATOM      7  C   UNL     1       3.456   4.699  16.807  0.00  0.00    +0.000 C 
ATOM      8  C   UNL     1       4.651   5.655  16.784  0.00  0.00    +0.000 C 
ENDROOT
BRANCH   6   9
ATOM      9  C   UNL     1       2.700   5.032  19.194  0.00  0.00    +0.000 A 
ATOM     10  N   UNL     1       2.258   4.701  20.387  0.00  0.00    +0.000 NA
ATOM     11  C   UNL     1       1.785   5.809  21.050  0.00  0.00    +0.000 A 
ATOM     12  C   UNL     1       1.885   7.000  20.363  0.00  0.00    +0.000 A 
ATOM     13  S   UNL     1       2.591   6.710  18.826  0.00  0.00    +0.000 S 
BRANCH  12  14
ATOM     14  C   UNL     1       1.457   8.299  20.821  0.00  0.00    +0.000 C 
ATOM     15  O   UNL     1       0.865   9.125  20.139  0.00  0.00    +0.000 OA
BRANCH  14  16
ATOM     16  O   UNL     1       1.769   8.540  22.120  0.00  0.00    +0.000 OA
ATOM     17  H   UNL     1       2.361   9.310  22.219  0.00  0.00    +0.000 HD
ENDBRANCH  14  16
ENDBRANCH  12  14
ENDBRANCH   6   9
BRANCH   1  18
ATOM     18  C   UNL     1       7.279   5.779  15.417  0.00  0.00    +0.000 C 
BRANCH  18  23
ATOM     19  C   UNL     1       5.439   2.425  11.691  0.00  0.00    +0.000 C 
ATOM     20  C   UNL     1       6.248   3.436  12.429  0.00  0.00    +0.000 A 
ATOM     21  C   UNL     1       7.334   4.158  11.982  0.00  0.00    +0.000 A 
ATOM     22  C   UNL     1       7.835   5.051  12.973  0.00  0.00    +0.000 A 
ATOM     23  C   UNL     1       7.121   4.984  14.154  0.00  0.00    +0.000 A 
ATOM     24  S   UNL     1       5.852   3.832  14.044  0.00  0.00    +0.000 S 
ENDBRANCH  18  23
ENDBRANCH   1  18
TORSDOF 5
ENDMDL
MODEL 5
REMARK VINA RESULT:      -7.2      4.328      8.585
REMARK  Name = 
REMARK  6 active torsions:
REMARK  status: ('A' for Active; 'I' for Inactive)
REMARK    1  A    between atoms: C_1  and  C_2
REMARK    2  A    between atoms: C_5  and  C_6
REMARK    3  A    between atoms: C_6  and  C_7
REMARK    4  A    between atoms: C_12  and  C_13
REMARK    5  A    between atoms: C_16  and  C_17
REMARK    6  A    between atoms: C_17  and  O_19
REMARK                            x       y       z     vdW  Elec       q    Type
REMARK                         _______ _______ _______ _____ _____    ______ ____
ROOT
ATOM      1  C   UNL     1       1.936   6.637  19.704  0.00  0.00    +0.000 C 
ATOM      2  O   UNL     1       1.707   5.990  20.730  0.00  0.00    +0.000 OA
ATOM      3  N   UNL     1       1.736   8.010  19.646  0.00  0.00    +0.000 N 
ATOM      4  C   UNL     1       1.471   8.747  20.880  0.00  0.00    +0.000 C 
ATOM      5  C   UNL     1       0.177   9.549  20.767  0.00  0.00    +0.000 C 
ATOM      6  C   UNL     1       0.187  10.471  19.538  0.00  0.00    +0.000 C 
ATOM      7  C   UNL     1       0.521   9.654  18.277  0.00  0.00    +0.000 C 
ATOM      8  C   UNL     1       1.793   8.816  18.428  0.00  0.00    +0.000 C 
ENDROOT
BRANCH   6   9
ATOM      9  C   UNL     1       1.145  11.627  19.724  0.00  0.00    +0.000 A 
ATOM     10  N   UNL     1       1.394  12.201  20.881  0.00  0.00    +0.000 NA
ATOM     11  C   UNL     1       2.264  13.253  20.719  0.00  0.00    +0.000 A 
ATOM     12  C   UNL     1       2.698  13.473  19.429  0.00  0.00    +0.000 A 
ATOM     13  S   UNL     1       1.977  12.318  18.385  0.00  0.00    +0.000 S 
BRANCH  12  14
ATOM     14  C   UNL     1       3.597  14.509  18.987  0.00  0.00    +0.000 C 
ATOM     15  O   UNL     1       3.742  15.595  19.533  0.00  0.00    +0.000 OA
BRANCH  14  16
ATOM     16  O   UNL     1       4.303  14.171  17.878  0.00  0.00    +0.000 OA
ATOM     17  H   UNL     1       5.243  14.429  17.948  0.00  0.00    +0.000 HD
ENDBRANCH  14  16
ENDBRANCH  12  14
ENDBRANCH   6   9
BRANCH   1  18
ATOM     18  C   UNL     1       2.474   5.931  18.468  0.00  0.00    +0.000 C 
BRANCH  18  23
ATOM     19  C   UNL     1       7.621   6.781  17.321  0.00  0.00    +0.000 C 
ATOM     20  C   UNL     1       6.357   6.278  17.930  0.00  0.00    +0.000 A 
ATOM     21  C   UNL     1       6.201   5.426  19.003  0.00  0.00    +0.000 A 
ATOM     22  C   UNL     1       4.830   5.189  19.311  0.00  0.00    +0.000 A 
ATOM     23  C   UNL     1       3.974   5.863  18.462  0.00  0.00    +0.000 A 
ATOM     24  S   UNL     1       4.848   6.773  17.298  0.00  0.00    +0.000 S 
ENDBRANCH  18  23
ENDBRANCH   1  18
TORSDOF 5
ENDMDL
MODEL 6
REMARK VINA RESULT:      -7.2      4.166      8.951
REMARK  Name = 
REMARK  6 active torsions:
REMARK  status: ('A' for Active; 'I' for Inactive)
REMARK    1  A    between atoms: C_1  and  C_2
REMARK    2  A    between atoms: C_5  and  C_6
REMARK    3  A    between atoms: C_6  and  C_7
REMARK    4  A    between atoms: C_12  and  C_13
REMARK    5  A    between atoms: C_16  and  C_17
REMARK    6  A    between atoms: C_17  and  O_19
REMARK                            x       y       z     vdW  Elec       q    Type
REMARK                         _______ _______ _______ _____ _____    ______ ____
ROOT
ATOM      1  C   UNL     1       2.247   6.602  19.310  0.00  0.00    +0.000 C 
ATOM      2  O   UNL     1       2.062   5.920  20.322  0.00  0.00    +0.000 OA
ATOM      3  N   UNL     1       1.930   7.953  19.271  0.00  0.00    +0.000 N 
ATOM      4  C   UNL     1       1.586   8.643  20.513  0.00  0.00    +0.000 C 
ATOM      5  C   UNL     1       0.230   9.332  20.394  0.00  0.00    +0.000 C 
ATOM      6  C   UNL     1       0.176  10.272  19.180  0.00  0.00    +0.000 C 
ATOM      7  C   UNL     1       0.595   9.509  17.910  0.00  0.00    +0.000 C 
ATOM      8  C   UNL     1       1.933   8.781  18.066  0.00  0.00    +0.000 C 
ENDROOT
BRANCH   6   9
ATOM      9  C   UNL     1       1.027  11.504  19.398  0.00  0.00    +0.000 A 
ATOM     10  N   UNL     1       1.863  11.991  18.507  0.00  0.00    +0.000 NA
ATOM     11  C   UNL     1       2.529  13.080  19.017  0.00  0.00    +0.000 A 
ATOM     12  C   UNL     1       2.186  13.439  20.303  0.00  0.00    +0.000 A 
ATOM     13  S   UNL     1       0.987  12.360  20.891  0.00  0.00    +0.000 S 
BRANCH  12  14
ATOM     14  C   UNL     1       2.737  14.528  21.071  0.00  0.00    +0.000 C 
ATOM     15  O   UNL     1       2.872  14.532  22.287  0.00  0.00    +0.000 OA
BRANCH  14  16
ATOM     16  O   UNL     1       3.114  15.586  20.309  0.00  0.00    +0.000 OA
ATOM     17  H   UNL     1       2.430  16.283  20.285  0.00  0.00    +0.000 HD
ENDBRANCH  14  16
ENDBRANCH  12  14
ENDBRANCH   6   9
BRANCH   1  18
ATOM     18  C   UNL     1       2.861   5.965  18.071  0.00  0.00    +0.000 C 
BRANCH  18  23
ATOM     19  C   UNL     1       8.093   5.509  19.039  0.00  0.00    +0.000 C 
ATOM     20  C   UNL     1       6.775   5.909  18.470  0.00  0.00    +0.000 A 
ATOM     21  C   UNL     1       6.519   6.731  17.394  0.00  0.00    +0.000 A 
ATOM     22  C   UNL     1       5.125   6.864  17.133  0.00  0.00    +0.000 A 
ATOM     23  C   UNL     1       4.351   6.142  18.021  0.00  0.00    +0.000 A 
ATOM     24  S   UNL     1       5.330   5.315  19.164  0.00  0.00    +0.000 S 
ENDBRANCH  18  23
ENDBRANCH   1  18
TORSDOF 5
ENDMDL
MODEL 7
REMARK VINA RESULT:      -7.2      4.762      9.448
REMARK  Name = 
REMARK  6 active torsions:
REMARK  status: ('A' for Active; 'I' for Inactive)
REMARK    1  A    between atoms: C_1  and  C_2
REMARK    2  A    between atoms: C_5  and  C_6
REMARK    3  A    between atoms: C_6  and  C_7
REMARK    4  A    between atoms: C_12  and  C_13
REMARK    5  A    between atoms: C_16  and  C_17
REMARK    6  A    between atoms: C_17  and  O_19
REMARK                            x       y       z     vdW  Elec       q    Type
REMARK                         _______ _______ _______ _____ _____    ______ ____
ROOT
ATOM      1  C   UNL     1       2.131   7.232  19.517  0.00  0.00    +0.000 C 
ATOM      2  O   UNL     1       1.964   6.527  20.517  0.00  0.00    +0.000 OA
ATOM      3  N   UNL     1       1.652   8.535  19.454  0.00  0.00    +0.000 N 
ATOM      4  C   UNL     1       1.144   9.169  20.669  0.00  0.00    +0.000 C 
ATOM      5  C   UNL     1      -0.276   9.687  20.458  0.00  0.00    +0.000 C 
ATOM      6  C   UNL     1      -0.365  10.620  19.241  0.00  0.00    +0.000 C 
ATOM      7  C   UNL     1       0.229   9.922  18.004  0.00  0.00    +0.000 C 
ATOM      8  C   UNL     1       1.633   9.364  18.251  0.00  0.00    +0.000 C 
ENDROOT
BRANCH   6   9
ATOM      9  C   UNL     1       0.312  11.946  19.513  0.00  0.00    +0.000 A 
ATOM     10  N   UNL     1       0.871  12.693  18.587  0.00  0.00    +0.000 NA
ATOM     11  C   UNL     1       1.447  13.807  19.150  0.00  0.00    +0.000 A 
ATOM     12  C   UNL     1       1.311  13.921  20.517  0.00  0.00    +0.000 A 
ATOM     13  S   UNL     1       0.433  12.572  21.112  0.00  0.00    +0.000 S 
BRANCH  12  14
ATOM     14  C   UNL     1       1.826  14.978  21.351  0.00  0.00    +0.000 C 
ATOM     15  O   UNL     1       2.324  14.821  22.457  0.00  0.00    +0.000 OA
BRANCH  14  16
ATOM     16  O   UNL     1       1.718  16.208  20.787  0.00  0.00    +0.000 OA
ATOM     17  H   UNL     1       2.455  16.397  20.174  0.00  0.00    +0.000 HD
ENDBRANCH  14  16
ENDBRANCH  12  14
ENDBRANCH   6   9
BRANCH   1  18
ATOM     18  C   UNL     1       2.899   6.684  18.324  0.00  0.00    +0.000 C 
BRANCH  18  23
ATOM     19  C   UNL     1       3.711   1.408  18.502  0.00  0.00    +0.000 C 
ATOM     20  C   UNL     1       3.114   2.755  18.277  0.00  0.00    +0.000 A 
ATOM     21  C   UNL     1       1.860   3.068  17.796  0.00  0.00    +0.000 A 
ATOM     22  C   UNL     1       1.638   4.475  17.739  0.00  0.00    +0.000 A 
ATOM     23  C   UNL     1       2.731   5.200  18.174  0.00  0.00    +0.000 A 
ATOM     24  S   UNL     1       4.015   4.161  18.642  0.00  0.00    +0.000 S 
ENDBRANCH  18  23
ENDBRANCH   1  18
TORSDOF 5
ENDMDL
MODEL 8
REMARK VINA RESULT:      -7.1      1.951      2.516
REMARK  Name = 
REMARK  6 active torsions:
REMARK  status: ('A' for Active; 'I' for Inactive)
REMARK    1  A    between atoms: C_1  and  C_2
REMARK    2  A    between atoms: C_5  and  C_6
REMARK    3  A    between atoms: C_6  and  C_7
REMARK    4  A    between atoms: C_12  and  C_13
REMARK    5  A    between atoms: C_16  and  C_17
REMARK    6  A    between atoms: C_17  and  O_19
REMARK                            x       y       z     vdW  Elec       q    Type
REMARK                         _______ _______ _______ _____ _____    ______ ____
ROOT
ATOM      1  C   UNL     1       1.988   5.998  20.209  0.00  0.00    +0.000 C 
ATOM      2  O   UNL     1       1.013   5.293  20.484  0.00  0.00    +0.000 OA
ATOM      3  N   UNL     1       3.003   5.546  19.375  0.00  0.00    +0.000 N 
ATOM      4  C   UNL     1       2.812   4.307  18.623  0.00  0.00    +0.000 C 
ATOM      5  C   UNL     1       3.947   3.325  18.898  0.00  0.00    +0.000 C 
ATOM      6  C   UNL     1       5.322   3.956  18.628  0.00  0.00    +0.000 C 
ATOM      7  C   UNL     1       5.449   5.280  19.403  0.00  0.00    +0.000 C 
ATOM      8  C   UNL     1       4.275   6.231  19.155  0.00  0.00    +0.000 C 
ENDROOT
BRANCH   6   9
ATOM      9  C   UNL     1       5.557   4.151  17.146  0.00  0.00    +0.000 A 
ATOM     10  N   UNL     1       4.669   3.880  16.215  0.00  0.00    +0.000 NA
ATOM     11  C   UNL     1       5.194   4.111  14.967  0.00  0.00    +0.000 A 
ATOM     12  C   UNL     1       6.490   4.582  14.944  0.00  0.00    +0.000 A 
ATOM     13  S   UNL     1       7.066   4.729  16.554  0.00  0.00    +0.000 S 
BRANCH  12  14
ATOM     14  C   UNL     1       7.274   4.893  13.775  0.00  0.00    +0.000 C 
ATOM     15  O   UNL     1       8.185   5.710  13.737  0.00  0.00    +0.000 OA
BRANCH  14  16
ATOM     16  O   UNL     1       6.914   4.177  12.679  0.00  0.00    +0.000 OA
ATOM     17  H   UNL     1       7.659   4.058  12.058  0.00  0.00    +0.000 HD
ENDBRANCH  14  16
ENDBRANCH  12  14
ENDBRANCH   6   9
BRANCH   1  18
ATOM     18  C   UNL     1       2.085   7.409  20.769  0.00  0.00    +0.000 C 
BRANCH  18  23
ATOM     19  C   UNL     1      -1.057  11.341  18.981  0.00  0.00    +0.000 C 
ATOM     20  C   UNL     1      -0.044  10.252  19.074  0.00  0.00    +0.000 A 
ATOM     21  C   UNL     1       0.835   9.814  18.107  0.00  0.00    +0.000 A 
ATOM     22  C   UNL     1       1.673   8.760  18.574  0.00  0.00    +0.000 A 
ATOM     23  C   UNL     1       1.408   8.417  19.886  0.00  0.00    +0.000 A 
ATOM     24  S   UNL     1       0.142   9.379  20.532  0.00  0.00    +0.000 S 
ENDBRANCH  18  23
ENDBRANCH   1  18
TORSDOF 5
ENDMDL
MODEL 9
REMARK VINA RESULT:      -7.1      4.794      9.349
REMARK  Name = 
REMARK  6 active torsions:
REMARK  status: ('A' for Active; 'I' for Inactive)
REMARK    1  A    between atoms: C_1  and  C_2
REMARK    2  A    between atoms: C_5  and  C_6
REMARK    3  A    between atoms: C_6  and  C_7
REMARK    4  A    between atoms: C_12  and  C_13
REMARK    5  A    between atoms: C_16  and  C_17
REMARK    6  A    between atoms: C_17  and  O_19
REMARK                            x       y       z     vdW  Elec       q    Type
REMARK                         _______ _______ _______ _____ _____    ______ ____
ROOT
ATOM      1  C   UNL     1       2.104   7.160  19.655  0.00  0.00    +0.000 C 
ATOM      2  O   UNL     1       1.969   6.406  20.623  0.00  0.00    +0.000 OA
ATOM      3  N   UNL     1       1.638   8.468  19.677  0.00  0.00    +0.000 N 
ATOM      4  C   UNL     1       1.185   9.044  20.942  0.00  0.00    +0.000 C 
ATOM      5  C   UNL     1      -0.236   9.584  20.814  0.00  0.00    +0.000 C 
ATOM      6  C   UNL     1      -0.363  10.580  19.651  0.00  0.00    +0.000 C 
ATOM      7  C   UNL     1       0.174   9.941  18.357  0.00  0.00    +0.000 C 
ATOM      8  C   UNL     1       1.580   9.358  18.519  0.00  0.00    +0.000 C 
ENDROOT
BRANCH   6   9
ATOM      9  C   UNL     1       0.339  11.884  19.962  0.00  0.00    +0.000 A 
ATOM     10  N   UNL     1       0.660  12.278  21.175  0.00  0.00    +0.000 NA
ATOM     11  C   UNL     1       1.237  13.524  21.139  0.00  0.00    +0.000 A 
ATOM     12  C   UNL     1       1.375  14.080  19.884  0.00  0.00    +0.000 A 
ATOM     13  S   UNL     1       0.747  12.995  18.713  0.00  0.00    +0.000 S 
BRANCH  12  14
ATOM     14  C   UNL     1       1.934  15.372  19.569  0.00  0.00    +0.000 C 
ATOM     15  O   UNL     1       2.351  15.707  18.469  0.00  0.00    +0.000 OA
BRANCH  14  16
ATOM     16  O   UNL     1       1.955  16.221  20.628  0.00  0.00    +0.000 OA
ATOM     17  H   UNL     1       1.073  16.598  20.814  0.00  0.00    +0.000 HD
ENDBRANCH  14  16
ENDBRANCH  12  14
ENDBRANCH   6   9
BRANCH   1  18
ATOM     18  C   UNL     1       2.819   6.667  18.405  0.00  0.00    +0.000 C 
BRANCH  18  23
ATOM     19  C   UNL     1       3.724   1.403  18.454  0.00  0.00    +0.000 C 
ATOM     20  C   UNL     1       3.103   2.745  18.262  0.00  0.00    +0.000 A 
ATOM     21  C   UNL     1       1.845   3.047  17.787  0.00  0.00    +0.000 A 
ATOM     22  C   UNL     1       1.598   4.451  17.765  0.00  0.00    +0.000 A 
ATOM     23  C   UNL     1       2.678   5.184  18.219  0.00  0.00    +0.000 A 
ATOM     24  S   UNL     1       3.979   4.157  18.663  0.00  0.00    +0.000 S 
ENDBRANCH  18  23
ENDBRANCH   1  18
TORSDOF 5
ENDMDL
