MODEL 1
REMARK VINA RESULT:      -7.6      0.000      0.000
REMARK  Name = 
REMARK  12 active torsions:
REMARK  status: ('A' for Active; 'I' for Inactive)
REMARK    1  A    between atoms: C_1  and  C_2
REMARK    2  A    between atoms: C_2  and  C_3
REMARK    3  A    between atoms: C_3  and  C_4
REMARK    4  A    between atoms: C_4  and  C_5
REMARK    5  A    between atoms: C_5  and  C_6
REMARK    6  A    between atoms: C_5  and  N_16
REMARK    7  A    between atoms: N_7  and  N_8
REMARK    8  A    between atoms: C_17  and  O_19
REMARK    9  A    between atoms: O_19  and  C_20
REMARK   10  A    between atoms: C_20  and  C_21
REMARK   11  A    between atoms: C_20  and  C_22
REMARK   12  A    between atoms: C_20  and  C_23
REMARK                            x       y       z     vdW  Elec       q    Type
REMARK                         _______ _______ _______ _____ _____    ______ ____
ROOT
ATOM      1  C   UNL     1       5.476   4.684  14.645  0.00  0.00    +0.000 C 
ENDROOT
BRANCH   1   2
ATOM      2  N   UNL     1       6.365   5.748  15.065  0.00  0.00    +0.000 N 
ATOM      3  C   UNL     1       7.316   5.534  16.012  0.00  0.00    +0.000 C 
ATOM      4  O   UNL     1       7.576   4.420  16.454  0.00  0.00    +0.000 OA
ATOM      5  H   UNL     1       6.284   6.673  14.658  0.00  0.00    +0.000 HD
BRANCH   3   6
ATOM      6  O   UNL     1       7.871   6.697  16.418  0.00  0.00    +0.000 OA
BRANCH   6   7
ATOM      7  C   UNL     1       7.485   7.242  17.708  0.00  0.00    +0.000 C 
ATOM      8  C   UNL     1       8.064   8.650  17.886  0.00  0.00    +0.000 C 
ATOM      9  C   UNL     1       5.950   7.337  17.715  0.00  0.00    +0.000 C 
ATOM     10  C   UNL     1       7.888   6.300  18.854  0.00  0.00    +0.000 C 
ENDBRANCH   6   7
ENDBRANCH   3   6
ENDBRANCH   1   2
BRANCH   1  11
ATOM     11  C   UNL     1       4.632   4.194  15.813  0.00  0.00    +0.000 C 
ATOM     12  N   UNL     1       4.101   5.007  16.667  0.00  0.00    +0.000 NA
BRANCH  12  13
ATOM     13  N   UNL     1       3.306   4.419  17.613  0.00  0.00    +0.000 N 
ATOM     14  C   UNL     1       3.860   3.989  18.807  0.00  0.00    +0.000 C 
ATOM     15  O   UNL     1       5.055   4.084  19.080  0.00  0.00    +0.000 OA
ATOM     16  N   UNL     1       2.964   3.403  19.681  0.00  0.00    +0.000 N 
ATOM     17  C   UNL     1       1.550   3.136  19.504  0.00  0.00    +0.000 C 
ATOM     18  C   UNL     1       1.040   3.037  20.930  0.00  0.00    +0.000 C 
ATOM     19  C   UNL     1       2.193   2.368  21.671  0.00  0.00    +0.000 C 
ATOM     20  C   UNL     1       3.445   2.798  20.911  0.00  0.00    +0.000 C 
ATOM     21  H   UNL     1       2.312   4.578  17.570  0.00  0.00    +0.000 HD
ENDBRANCH  12  13
ENDBRANCH   1  11
BRANCH   1  22
ATOM     22  C   UNL     1       6.290   3.568  13.979  0.00  0.00    +0.000 C 
BRANCH  22  23
ATOM     23  C   UNL     1       6.277   3.642  12.451  0.00  0.00    +0.000 C 
BRANCH  23  25
ATOM     24  C   UNL     1       4.139   3.219  11.210  0.00  0.00    +0.000 C 
ATOM     25  C   UNL     1       5.370   2.576  11.835  0.00  0.00    +0.000 C 
ENDBRANCH  23  25
ENDBRANCH  22  23
ENDBRANCH   1  22
TORSDOF 8
ENDMDL
MODEL 2
REMARK VINA RESULT:      -7.5      2.695      7.057
REMARK  Name = 
REMARK  12 active torsions:
REMARK  status: ('A' for Active; 'I' for Inactive)
REMARK    1  A    between atoms: C_1  and  C_2
REMARK    2  A    between atoms: C_2  and  C_3
REMARK    3  A    between atoms: C_3  and  C_4
REMARK    4  A    between atoms: C_4  and  C_5
REMARK    5  A    between atoms: C_5  and  C_6
REMARK    6  A    between atoms: C_5  and  N_16
REMARK    7  A    between atoms: N_7  and  N_8
REMARK    8  A    between atoms: C_17  and  O_19
REMARK    9  A    between atoms: O_19  and  C_20
REMARK   10  A    between atoms: C_20  and  C_21
REMARK   11  A    between atoms: C_20  and  C_22
REMARK   12  A    between atoms: C_20  and  C_23
REMARK                            x       y       z     vdW  Elec       q    Type
REMARK                         _______ _______ _______ _____ _____    ______ ____
ROOT
ATOM      1  C   UNL     1       6.395   4.658  18.819  0.00  0.00    +0.000 C 
ENDROOT
BRANCH   1   2
ATOM      2  N   UNL     1       4.982   4.711  19.137  0.00  0.00    +0.000 N 
ATOM      3  C   UNL     1       4.335   3.627  19.638  0.00  0.00    +0.000 C 
ATOM      4  O   UNL     1       4.918   2.606  19.985  0.00  0.00    +0.000 OA
ATOM      5  H   UNL     1       4.454   5.563  18.983  0.00  0.00    +0.000 HD
BRANCH   3   6
ATOM      6  O   UNL     1       2.997   3.816  19.644  0.00  0.00    +0.000 OA
BRANCH   6   7
ATOM      7  C   UNL     1       2.215   3.308  18.530  0.00  0.00    +0.000 C 
ATOM      8  C   UNL     1       2.997   2.224  17.781  0.00  0.00    +0.000 C 
ATOM      9  C   UNL     1       0.945   2.676  19.124  0.00  0.00    +0.000 C 
ATOM     10  C   UNL     1       1.765   4.446  17.600  0.00  0.00    +0.000 C 
ENDBRANCH   6   7
ENDBRANCH   3   6
ENDBRANCH   1   2
BRANCH   1  11
ATOM     11  C   UNL     1       7.083   5.959  19.203  0.00  0.00    +0.000 C 
ATOM     12  N   UNL     1       8.071   6.443  18.523  0.00  0.00    +0.000 NA
BRANCH  12  13
ATOM     13  N   UNL     1       8.530   7.659  18.949  0.00  0.00    +0.000 N 
ATOM     14  C   UNL     1       8.293   8.790  18.186  0.00  0.00    +0.000 C 
ATOM     15  O   UNL     1       7.697   8.776  17.110  0.00  0.00    +0.000 OA
ATOM     16  N   UNL     1       8.811   9.959  18.710  0.00  0.00    +0.000 N 
ATOM     17  C   UNL     1       9.600  10.157  19.910  0.00  0.00    +0.000 C 
ATOM     18  C   UNL     1       9.366  11.621  20.234  0.00  0.00    +0.000 C 
ATOM     19  C   UNL     1       9.287  12.278  18.860  0.00  0.00    +0.000 C 
ATOM     20  C   UNL     1       8.740  11.189  17.940  0.00  0.00    +0.000 C 
ATOM     21  H   UNL     1       8.755   7.772  19.925  0.00  0.00    +0.000 HD
ENDBRANCH  12  13
ENDBRANCH   1  11
BRANCH   1  22
ATOM     22  C   UNL     1       6.573   4.293  17.339  0.00  0.00    +0.000 C 
BRANCH  22  23
ATOM     23  C   UNL     1       5.594   5.021  16.417  0.00  0.00    +0.000 C 
BRANCH  23  25
ATOM     24  C   UNL     1       6.092   4.189  14.105  0.00  0.00    +0.000 C 
ATOM     25  C   UNL     1       5.116   4.128  15.272  0.00  0.00    +0.000 C 
ENDBRANCH  23  25
ENDBRANCH  22  23
ENDBRANCH   1  22
TORSDOF 8
ENDMDL
MODEL 3
REMARK VINA RESULT:      -7.5      4.733      6.772
REMARK  Name = 
REMARK  12 active torsions:
REMARK  status: ('A' for Active; 'I' for Inactive)
REMARK    1  A    between atoms: C_1  and  C_2
REMARK    2  A    between atoms: C_2  and  C_3
REMARK    3  A    between atoms: C_3  and  C_4
REMARK    4  A    between atoms: C_4  and  C_5
REMARK    5  A    between atoms: C_5  and  C_6
REMARK    6  A    between atoms: C_5  and  N_16
REMARK    7  A    between atoms: N_7  and  N_8
REMARK    8  A    between atoms: C_17  and  O_19
REMARK    9  A    between atoms: O_19  and  C_20
REMARK   10  A    between atoms: C_20  and  C_21
REMARK   11  A    between atoms: C_20  and  C_22
REMARK   12  A    between atoms: C_20  and  C_23
REMARK                            x       y       z     vdW  Elec       q    Type
REMARK                         _______ _______ _______ _____ _____    ______ ____
ROOT
ATOM      1  C   UNL     1       2.512   5.353  20.026  0.00  0.00    +0.000 C 
ENDROOT
BRANCH   1   2
ATOM      2  N   UNL     1       3.937   5.576  19.886  0.00  0.00    +0.000 N 
ATOM      3  C   UNL     1       4.669   4.884  18.974  0.00  0.00    +0.000 C 
ATOM      4  O   UNL     1       4.161   4.154  18.130  0.00  0.00    +0.000 OA
ATOM      5  H   UNL     1       4.409   6.253  20.475  0.00  0.00    +0.000 HD
BRANCH   3   6
ATOM      6  O   UNL     1       5.992   5.072  19.166  0.00  0.00    +0.000 OA
BRANCH   6   7
ATOM      7  C   UNL     1       6.776   5.664  18.096  0.00  0.00    +0.000 C 
ATOM      8  C   UNL     1       5.926   6.660  17.301  0.00  0.00    +0.000 C 
ATOM      9  C   UNL     1       7.936   6.427  18.758  0.00  0.00    +0.000 C 
ATOM     10  C   UNL     1       7.398   4.583  17.196  0.00  0.00    +0.000 C 
ENDBRANCH   6   7
ENDBRANCH   3   6
ENDBRANCH   1   2
BRANCH   1  11
ATOM     11  C   UNL     1       1.792   6.655  20.343  0.00  0.00    +0.000 C 
ATOM     12  N   UNL     1       2.107   7.773  19.775  0.00  0.00    +0.000 NA
BRANCH  12  13
ATOM     13  N   UNL     1       1.315   8.839  20.107  0.00  0.00    +0.000 N 
ATOM     14  C   UNL     1       0.809   9.657  19.112  0.00  0.00    +0.000 C 
ATOM     15  O   UNL     1       1.041   9.500  17.914  0.00  0.00    +0.000 OA
ATOM     16  N   UNL     1       0.031  10.705  19.565  0.00  0.00    +0.000 N 
ATOM     17  C   UNL     1      -0.286  11.091  20.926  0.00  0.00    +0.000 C 
ATOM     18  C   UNL     1      -1.565  11.891  20.765  0.00  0.00    +0.000 C 
ATOM     19  C   UNL     1      -1.359  12.623  19.443  0.00  0.00    +0.000 C 
ATOM     20  C   UNL     1      -0.451  11.705  18.629  0.00  0.00    +0.000 C 
ATOM     21  H   UNL     1       0.867   8.840  21.010  0.00  0.00    +0.000 HD
ENDBRANCH  12  13
ENDBRANCH   1  11
BRANCH   1  22
ATOM     22  C   UNL     1       2.265   4.256  21.069  0.00  0.00    +0.000 C 
BRANCH  22  23
ATOM     23  C   UNL     1       1.028   3.407  20.769  0.00  0.00    +0.000 C 
BRANCH  23  25
ATOM     24  C   UNL     1       1.858   1.835  19.001  0.00  0.00    +0.000 C 
ATOM     25  C   UNL     1       0.945   3.018  19.293  0.00  0.00    +0.000 C 
ENDBRANCH  23  25
ENDBRANCH  22  23
ENDBRANCH   1  22
TORSDOF 8
ENDMDL
MODEL 4
REMARK VINA RESULT:      -7.3      4.753      6.976
REMARK  Name = 
REMARK  12 active torsions:
REMARK  status: ('A' for Active; 'I' for Inactive)
REMARK    1  A    between atoms: C_1  and  C_2
REMARK    2  A    between atoms: C_2  and  C_3
REMARK    3  A    between atoms: C_3  and  C_4
REMARK    4  A    between atoms: C_4  and  C_5
REMARK    5  A    between atoms: C_5  and  C_6
REMARK    6  A    between atoms: C_5  and  N_16
REMARK    7  A    between atoms: N_7  and  N_8
REMARK    8  A    between atoms: C_17  and  O_19
REMARK    9  A    between atoms: O_19  and  C_20
REMARK   10  A    between atoms: C_20  and  C_21
REMARK   11  A    between atoms: C_20  and  C_22
REMARK   12  A    between atoms: C_20  and  C_23
REMARK                            x       y       z     vdW  Elec       q    Type
REMARK                         _______ _______ _______ _____ _____    ______ ____
ROOT
ATOM      1  C   UNL     1       2.575   5.545  19.718  0.00  0.00    +0.000 C 
ENDROOT
BRANCH   1   2
ATOM      2  N   UNL     1       4.019   5.436  19.672  0.00  0.00    +0.000 N 
ATOM      3  C   UNL     1       4.635   4.664  18.739  0.00  0.00    +0.000 C 
ATOM      4  O   UNL     1       4.034   4.142  17.806  0.00  0.00    +0.000 OA
ATOM      5  H   UNL     1       4.592   5.934  20.345  0.00  0.00    +0.000 HD
BRANCH   3   6
ATOM      6  O   UNL     1       5.949   4.519  19.015  0.00  0.00    +0.000 OA
BRANCH   6   7
ATOM      7  C   UNL     1       6.905   5.374  18.333  0.00  0.00    +0.000 C 
ATOM      8  C   UNL     1       7.976   5.865  19.312  0.00  0.00    +0.000 C 
ATOM      9  C   UNL     1       7.584   4.515  17.252  0.00  0.00    +0.000 C 
ATOM     10  C   UNL     1       6.200   6.536  17.614  0.00  0.00    +0.000 C 
ENDBRANCH   6   7
ENDBRANCH   3   6
ENDBRANCH   1   2
BRANCH   1  11
ATOM     11  C   UNL     1       2.132   6.964  19.395  0.00  0.00    +0.000 C 
ATOM     12  N   UNL     1       1.795   7.807  20.316  0.00  0.00    +0.000 NA
BRANCH  12  13
ATOM     13  N   UNL     1       1.497   9.067  19.872  0.00  0.00    +0.000 N 
ATOM     14  C   UNL     1       0.320   9.676  20.270  0.00  0.00    +0.000 C 
ATOM     15  O   UNL     1      -0.512   9.144  21.003  0.00  0.00    +0.000 OA
ATOM     16  N   UNL     1       0.120  10.942  19.752  0.00  0.00    +0.000 N 
ATOM     17  C   UNL     1       0.941  11.693  18.822  0.00  0.00    +0.000 C 
ATOM     18  C   UNL     1       0.533  13.129  19.090  0.00  0.00    +0.000 C 
ATOM     19  C   UNL     1      -0.959  13.023  19.388  0.00  0.00    +0.000 C 
ATOM     20  C   UNL     1      -1.135  11.632  19.992  0.00  0.00    +0.000 C 
ATOM     21  H   UNL     1       2.248   9.643  19.525  0.00  0.00    +0.000 HD
ENDBRANCH  12  13
ENDBRANCH   1  11
BRANCH   1  22
ATOM     22  C   UNL     1       2.066   5.047  21.076  0.00  0.00    +0.000 C 
BRANCH  22  23
ATOM     23  C   UNL     1       1.666   3.571  21.066  0.00  0.00    +0.000 C 
BRANCH  23  25
ATOM     24  C   UNL     1       1.588   2.017  19.100  0.00  0.00    +0.000 C 
ATOM     25  C   UNL     1       0.912   3.192  19.791  0.00  0.00    +0.000 C 
ENDBRANCH  23  25
ENDBRANCH  22  23
ENDBRANCH   1  22
TORSDOF 8
ENDMDL
MODEL 5
REMARK VINA RESULT:      -7.3      4.804      6.665
REMARK  Name = 
REMARK  12 active torsions:
REMARK  status: ('A' for Active; 'I' for Inactive)
REMARK    1  A    between atoms: C_1  and  C_2
REMARK    2  A    between atoms: C_2  and  C_3
REMARK    3  A    between atoms: C_3  and  C_4
REMARK    4  A    between atoms: C_4  and  C_5
REMARK    5  A    between atoms: C_5  and  C_6
REMARK    6  A    between atoms: C_5  and  N_16
REMARK    7  A    between atoms: N_7  and  N_8
REMARK    8  A    between atoms: C_17  and  O_19
REMARK    9  A    between atoms: O_19  and  C_20
REMARK   10  A    between atoms: C_20  and  C_21
REMARK   11  A    between atoms: C_20  and  C_22
REMARK   12  A    between atoms: C_20  and  C_23
REMARK                            x       y       z     vdW  Elec       q    Type
REMARK                         _______ _______ _______ _____ _____    ______ ____
ROOT
ATOM      1  C   UNL     1       2.553   5.315  20.020  0.00  0.00    +0.000 C 
ENDROOT
BRANCH   1   2
ATOM      2  N   UNL     1       3.948   5.670  19.848  0.00  0.00    +0.000 N 
ATOM      3  C   UNL     1       4.785   4.888  19.117  0.00  0.00    +0.000 C 
ATOM      4  O   UNL     1       4.393   3.937  18.449  0.00  0.00    +0.000 OA
ATOM      5  H   UNL     1       4.319   6.509  20.279  0.00  0.00    +0.000 HD
BRANCH   3   6
ATOM      6  O   UNL     1       6.071   5.269  19.276  0.00  0.00    +0.000 OA
BRANCH   6   7
ATOM      7  C   UNL     1       6.786   5.808  18.132  0.00  0.00    +0.000 C 
ATOM      8  C   UNL     1       7.907   6.743  18.597  0.00  0.00    +0.000 C 
ATOM      9  C   UNL     1       7.416   4.616  17.392  0.00  0.00    +0.000 C 
ATOM     10  C   UNL     1       5.826   6.498  17.149  0.00  0.00    +0.000 C 
ENDBRANCH   6   7
ENDBRANCH   3   6
ENDBRANCH   1   2
BRANCH   1  11
ATOM     11  C   UNL     1       1.697   6.561  20.188  0.00  0.00    +0.000 C 
ATOM     12  N   UNL     1       2.150   7.747  19.938  0.00  0.00    +0.000 NA
BRANCH  12  13
ATOM     13  N   UNL     1       1.235   8.757  20.060  0.00  0.00    +0.000 N 
ATOM     14  C   UNL     1       0.925   9.257  21.313  0.00  0.00    +0.000 C 
ATOM     15  O   UNL     1       1.415   8.833  22.359  0.00  0.00    +0.000 OA
ATOM     16  N   UNL     1      -0.017  10.268  21.315  0.00  0.00    +0.000 N 
ATOM     17  C   UNL     1      -0.754  10.838  20.204  0.00  0.00    +0.000 C 
ATOM     18  C   UNL     1      -1.155  12.205  20.727  0.00  0.00    +0.000 C 
ATOM     19  C   UNL     1      -1.434  11.950  22.204  0.00  0.00    +0.000 C 
ATOM     20  C   UNL     1      -0.519  10.785  22.576  0.00  0.00    +0.000 C 
ATOM     21  H   UNL     1       1.033   9.321  19.250  0.00  0.00    +0.000 HD
ENDBRANCH  12  13
ENDBRANCH   1  11
BRANCH   1  22
ATOM     22  C   UNL     1       2.416   4.327  21.185  0.00  0.00    +0.000 C 
BRANCH  22  23
ATOM     23  C   UNL     1       1.290   3.311  20.984  0.00  0.00    +0.000 C 
BRANCH  23  25
ATOM     24  C   UNL     1       0.748   2.404  18.710  0.00  0.00    +0.000 C 
ATOM     25  C   UNL     1       1.648   2.263  19.930  0.00  0.00    +0.000 C 
ENDBRANCH  23  25
ENDBRANCH  22  23
ENDBRANCH   1  22
TORSDOF 8
ENDMDL
MODEL 6
REMARK VINA RESULT:      -7.3      2.488      6.816
REMARK  Name = 
REMARK  12 active torsions:
REMARK  status: ('A' for Active; 'I' for Inactive)
REMARK    1  A    between atoms: C_1  and  C_2
REMARK    2  A    between atoms: C_2  and  C_3
REMARK    3  A    between atoms: C_3  and  C_4
REMARK    4  A    between atoms: C_4  and  C_5
REMARK    5  A    between atoms: C_5  and  C_6
REMARK    6  A    between atoms: C_5  and  N_16
REMARK    7  A    between atoms: N_7  and  N_8
REMARK    8  A    between atoms: C_17  and  O_19
REMARK    9  A    between atoms: O_19  and  C_20
REMARK   10  A    between atoms: C_20  and  C_21
REMARK   11  A    between atoms: C_20  and  C_22
REMARK   12  A    between atoms: C_20  and  C_23
REMARK                            x       y       z     vdW  Elec       q    Type
REMARK                         _______ _______ _______ _____ _____    ______ ____
ROOT
ATOM      1  C   UNL     1       5.632   5.660  16.824  0.00  0.00    +0.000 C 
ENDROOT
BRANCH   1   2
ATOM      2  N   UNL     1       4.394   5.433  17.541  0.00  0.00    +0.000 N 
ATOM      3  C   UNL     1       4.378   4.742  18.711  0.00  0.00    +0.000 C 
ATOM      4  O   UNL     1       5.400   4.404  19.298  0.00  0.00    +0.000 OA
ATOM      5  H   UNL     1       3.517   5.784  17.172  0.00  0.00    +0.000 HD
BRANCH   3   6
ATOM      6  O   UNL     1       3.114   4.447  19.087  0.00  0.00    +0.000 OA
BRANCH   6   7
ATOM      7  C   UNL     1       2.735   3.053  19.227  0.00  0.00    +0.000 C 
ATOM      8  C   UNL     1       1.212   2.923  19.343  0.00  0.00    +0.000 C 
ATOM      9  C   UNL     1       3.193   2.331  17.948  0.00  0.00    +0.000 C 
ATOM     10  C   UNL     1       3.465   2.392  20.408  0.00  0.00    +0.000 C 
ENDBRANCH   6   7
ENDBRANCH   3   6
ENDBRANCH   1   2
BRANCH   1  11
ATOM     11  C   UNL     1       6.194   7.037  17.142  0.00  0.00    +0.000 C 
ATOM     12  N   UNL     1       7.442   7.329  16.969  0.00  0.00    +0.000 NA
BRANCH  12  13
ATOM     13  N   UNL     1       7.777   8.630  17.227  0.00  0.00    +0.000 N 
ATOM     14  C   UNL     1       8.522   8.940  18.352  0.00  0.00    +0.000 C 
ATOM     15  O   UNL     1       8.901   8.106  19.172  0.00  0.00    +0.000 OA
ATOM     16  N   UNL     1       8.791  10.286  18.513  0.00  0.00    +0.000 N 
ATOM     17  C   UNL     1       8.366  11.411  17.704  0.00  0.00    +0.000 C 
ATOM     18  C   UNL     1       9.401  12.473  18.027  0.00  0.00    +0.000 C 
ATOM     19  C   UNL     1       9.694  12.243  19.505  0.00  0.00    +0.000 C 
ATOM     20  C   UNL     1       9.453  10.750  19.720  0.00  0.00    +0.000 C 
ATOM     21  H   UNL     1       7.750   9.292  16.466  0.00  0.00    +0.000 HD
ENDBRANCH  12  13
ENDBRANCH   1  11
BRANCH   1  22
ATOM     22  C   UNL     1       5.405   5.432  15.324  0.00  0.00    +0.000 C 
BRANCH  22  23
ATOM     23  C   UNL     1       5.802   4.030  14.860  0.00  0.00    +0.000 C 
BRANCH  23  25
ATOM     24  C   UNL     1       5.700   3.401  12.435  0.00  0.00    +0.000 C 
ATOM     25  C   UNL     1       6.540   4.058  13.521  0.00  0.00    +0.000 C 
ENDBRANCH  23  25
ENDBRANCH  22  23
ENDBRANCH   1  22
TORSDOF 8
ENDMDL
MODEL 7
REMARK VINA RESULT:      -7.2      3.075      7.282
REMARK  Name = 
REMARK  12 active torsions:
REMARK  status: ('A' for Active; 'I' for Inactive)
REMARK    1  A    between atoms: C_1  and  C_2
REMARK    2  A    between atoms: C_2  and  C_3
REMARK    3  A    between atoms: C_3  and  C_4
REMARK    4  A    between atoms: C_4  and  C_5
REMARK    5  A    between atoms: C_5  and  C_6
REMARK    6  A    between atoms: C_5  and  N_16
REMARK    7  A    between atoms: N_7  and  N_8
REMARK    8  A    between atoms: C_17  and  O_19
REMARK    9  A    between atoms: O_19  and  C_20
REMARK   10  A    between atoms: C_20  and  C_21
REMARK   11  A    between atoms: C_20  and  C_22
REMARK   12  A    between atoms: C_20  and  C_23
REMARK                            x       y       z     vdW  Elec       q    Type
REMARK                         _______ _______ _______ _____ _____    ______ ____
ROOT
ATOM      1  C   UNL     1       6.276   6.330  17.393  0.00  0.00    +0.000 C 
ENDROOT
BRANCH   1   2
ATOM      2  N   UNL     1       5.119   6.033  18.213  0.00  0.00    +0.000 N 
ATOM      3  C   UNL     1       5.049   4.886  18.938  0.00  0.00    +0.000 C 
ATOM      4  O   UNL     1       5.998   4.118  19.061  0.00  0.00    +0.000 OA
ATOM      5  H   UNL     1       4.338   6.679  18.251  0.00  0.00    +0.000 HD
BRANCH   3   6
ATOM      6  O   UNL     1       3.808   4.698  19.438  0.00  0.00    +0.000 OA
BRANCH   6   7
ATOM      7  C   UNL     1       2.937   3.729  18.797  0.00  0.00    +0.000 C 
ATOM      8  C   UNL     1       3.213   3.678  17.290  0.00  0.00    +0.000 C 
ATOM      9  C   UNL     1       3.270   2.355  19.403  0.00  0.00    +0.000 C 
ATOM     10  C   UNL     1       1.458   4.017  19.106  0.00  0.00    +0.000 C 
ENDBRANCH   6   7
ENDBRANCH   3   6
ENDBRANCH   1   2
BRANCH   1  11
ATOM     11  C   UNL     1       6.685   7.787  17.548  0.00  0.00    +0.000 C 
ATOM     12  N   UNL     1       7.898   8.187  17.346  0.00  0.00    +0.000 NA
BRANCH  12  13
ATOM     13  N   UNL     1       8.090   9.539  17.448  0.00  0.00    +0.000 N 
ATOM     14  C   UNL     1       8.813  10.053  18.511  0.00  0.00    +0.000 C 
ATOM     15  O   UNL     1       9.295   9.363  19.407  0.00  0.00    +0.000 OA
ATOM     16  N   UNL     1       8.934  11.430  18.515  0.00  0.00    +0.000 N 
ATOM     17  C   UNL     1       8.374  12.403  17.597  0.00  0.00    +0.000 C 
ATOM     18  C   UNL     1       9.289  13.601  17.771  0.00  0.00    +0.000 C 
ATOM     19  C   UNL     1       9.629  13.573  19.258  0.00  0.00    +0.000 C 
ATOM     20  C   UNL     1       9.559  12.097  19.643  0.00  0.00    +0.000 C 
ATOM     21  H   UNL     1       7.977  10.103  16.620  0.00  0.00    +0.000 HD
ENDBRANCH  12  13
ENDBRANCH   1  11
BRANCH   1  22
ATOM     22  C   UNL     1       5.989   5.934  15.939  0.00  0.00    +0.000 C 
BRANCH  22  23
ATOM     23  C   UNL     1       6.866   4.783  15.445  0.00  0.00    +0.000 C 
BRANCH  23  25
ATOM     24  C   UNL     1       6.177   3.838  13.227  0.00  0.00    +0.000 C 
ATOM     25  C   UNL     1       6.047   3.703  14.737  0.00  0.00    +0.000 C 
ENDBRANCH  23  25
ENDBRANCH  22  23
ENDBRANCH   1  22
TORSDOF 8
ENDMDL
MODEL 8
REMARK VINA RESULT:      -7.2      5.088      7.327
REMARK  Name = 
REMARK  12 active torsions:
REMARK  status: ('A' for Active; 'I' for Inactive)
REMARK    1  A    between atoms: C_1  and  C_2
REMARK    2  A    between atoms: C_2  and  C_3
REMARK    3  A    between atoms: C_3  and  C_4
REMARK    4  A    between atoms: C_4  and  C_5
REMARK    5  A    between atoms: C_5  and  C_6
REMARK    6  A    between atoms: C_5  and  N_16
REMARK    7  A    between atoms: N_7  and  N_8
REMARK    8  A    between atoms: C_17  and  O_19
REMARK    9  A    between atoms: O_19  and  C_20
REMARK   10  A    between atoms: C_20  and  C_21
REMARK   11  A    between atoms: C_20  and  C_22
REMARK   12  A    between atoms: C_20  and  C_23
REMARK                            x       y       z     vdW  Elec       q    Type
REMARK                         _______ _______ _______ _____ _____    ______ ____
ROOT
ATOM      1  C   UNL     1       2.407   6.026  19.576  0.00  0.00    +0.000 C 
ENDROOT
BRANCH   1   2
ATOM      2  N   UNL     1       3.855   6.005  19.612  0.00  0.00    +0.000 N 
ATOM      3  C   UNL     1       4.563   5.139  18.840  0.00  0.00    +0.000 C 
ATOM      4  O   UNL     1       4.043   4.440  17.976  0.00  0.00    +0.000 OA
ATOM      5  H   UNL     1       4.362   6.637  20.222  0.00  0.00    +0.000 HD
BRANCH   3   6
ATOM      6  O   UNL     1       5.867   5.124  19.193  0.00  0.00    +0.000 OA
BRANCH   6   7
ATOM      7  C   UNL     1       6.850   5.641  18.257  0.00  0.00    +0.000 C 
ATOM      8  C   UNL     1       6.262   6.809  17.458  0.00  0.00    +0.000 C 
ATOM      9  C   UNL     1       8.034   6.161  19.090  0.00  0.00    +0.000 C 
ATOM     10  C   UNL     1       7.390   4.528  17.343  0.00  0.00    +0.000 C 
ENDBRANCH   6   7
ENDBRANCH   3   6
ENDBRANCH   1   2
BRANCH   1  11
ATOM     11  C   UNL     1       1.892   7.453  19.456  0.00  0.00    +0.000 C 
ATOM     12  N   UNL     1       1.560   8.154  20.490  0.00  0.00    +0.000 NA
BRANCH  12  13
ATOM     13  N   UNL     1       1.191   9.445  20.224  0.00  0.00    +0.000 N 
ATOM     14  C   UNL     1       0.793  10.275  21.258  0.00  0.00    +0.000 C 
ATOM     15  O   UNL     1       0.727   9.919  22.433  0.00  0.00    +0.000 OA
ATOM     16  N   UNL     1       0.435  11.552  20.870  0.00  0.00    +0.000 N 
ATOM     17  C   UNL     1       0.374  12.123  19.538  0.00  0.00    +0.000 C 
ATOM     18  C   UNL     1       0.487  13.613  19.801  0.00  0.00    +0.000 C 
ATOM     19  C   UNL     1      -0.282  13.801  21.105  0.00  0.00    +0.000 C 
ATOM     20  C   UNL     1      -0.122  12.474  21.843  0.00  0.00    +0.000 C 
ATOM     21  H   UNL     1       1.497   9.862  19.359  0.00  0.00    +0.000 HD
ENDBRANCH  12  13
ENDBRANCH   1  11
BRANCH   1  22
ATOM     22  C   UNL     1       1.854   5.285  20.800  0.00  0.00    +0.000 C 
BRANCH  22  23
ATOM     23  C   UNL     1       1.014   4.060  20.433  0.00  0.00    +0.000 C 
BRANCH  23  25
ATOM     24  C   UNL     1       2.787   2.517  21.308  0.00  0.00    +0.000 C 
ATOM     25  C   UNL     1       1.307   2.871  21.349  0.00  0.00    +0.000 C 
ENDBRANCH  23  25
ENDBRANCH  22  23
ENDBRANCH   1  22
TORSDOF 8
ENDMDL
MODEL 9
REMARK VINA RESULT:      -7.2      3.551      7.632
REMARK  Name = 
REMARK  12 active torsions:
REMARK  status: ('A' for Active; 'I' for Inactive)
REMARK    1  A    between atoms: C_1  and  C_2
REMARK    2  A    between atoms: C_2  and  C_3
REMARK    3  A    between atoms: C_3  and  C_4
REMARK    4  A    between atoms: C_4  and  C_5
REMARK    5  A    between atoms: C_5  and  C_6
REMARK    6  A    between atoms: C_5  and  N_16
REMARK    7  A    between atoms: N_7  and  N_8
REMARK    8  A    between atoms: C_17  and  O_19
REMARK    9  A    between atoms: O_19  and  C_20
REMARK   10  A    between atoms: C_20  and  C_21
REMARK   11  A    between atoms: C_20  and  C_22
REMARK   12  A    between atoms: C_20  and  C_23
REMARK                            x       y       z     vdW  Elec       q    Type
REMARK                         _______ _______ _______ _____ _____    ______ ____
ROOT
ATOM      1  C   UNL     1       7.110   6.552  17.596  0.00  0.00    +0.000 C 
ENDROOT
BRANCH   1   2
ATOM      2  N   UNL     1       5.806   6.390  18.207  0.00  0.00    +0.000 N 
ATOM      3  C   UNL     1       5.623   5.551  19.260  0.00  0.00    +0.000 C 
ATOM      4  O   UNL     1       6.553   5.003  19.843  0.00  0.00    +0.000 OA
ATOM      5  H   UNL     1       5.006   6.901  17.849  0.00  0.00    +0.000 HD
BRANCH   3   6
ATOM      6  O   UNL     1       4.310   5.374  19.522  0.00  0.00    +0.000 OA
BRANCH   6   7
ATOM      7  C   UNL     1       3.652   4.181  19.017  0.00  0.00    +0.000 C 
ATOM      8  C   UNL     1       4.413   2.926  19.458  0.00  0.00    +0.000 C 
ATOM      9  C   UNL     1       2.246   4.147  19.639  0.00  0.00    +0.000 C 
ATOM     10  C   UNL     1       3.474   4.246  17.491  0.00  0.00    +0.000 C 
ENDBRANCH   6   7
ENDBRANCH   3   6
ENDBRANCH   1   2
BRANCH   1  11
ATOM     11  C   UNL     1       7.502   8.021  17.544  0.00  0.00    +0.000 C 
ATOM     12  N   UNL     1       8.402   8.522  18.325  0.00  0.00    +0.000 NA
BRANCH  12  13
ATOM     13  N   UNL     1       8.698   9.840  18.101  0.00  0.00    +0.000 N 
ATOM     14  C   UNL     1       9.215  10.613  19.127  0.00  0.00    +0.000 C 
ATOM     15  O   UNL     1       9.416  10.192  20.265  0.00  0.00    +0.000 OA
ATOM     16  N   UNL     1       9.466  11.929  18.788  0.00  0.00    +0.000 N 
ATOM     17  C   UNL     1       9.221  12.617  17.536  0.00  0.00    +0.000 C 
ATOM     18  C   UNL     1      10.188  13.785  17.595  0.00  0.00    +0.000 C 
ATOM     19  C   UNL     1      10.186  14.171  19.070  0.00  0.00    +0.000 C 
ATOM     20  C   UNL     1       9.888  12.870  19.811  0.00  0.00    +0.000 C 
ATOM     21  H   UNL     1       8.827  10.148  17.150  0.00  0.00    +0.000 HD
ENDBRANCH  12  13
ENDBRANCH   1  11
BRANCH   1  22
ATOM     22  C   UNL     1       7.120   5.874  16.221  0.00  0.00    +0.000 C 
BRANCH  22  23
ATOM     23  C   UNL     1       7.121   4.346  16.301  0.00  0.00    +0.000 C 
BRANCH  23  25
ATOM     24  C   UNL     1       5.474   4.764  14.457  0.00  0.00    +0.000 C 
ATOM     25  C   UNL     1       6.321   3.713  15.162  0.00  0.00    +0.000 C 
ENDBRANCH  23  25
ENDBRANCH  22  23
ENDBRANCH   1  22
TORSDOF 8
ENDMDL
