MODEL 1
REMARK VINA RESULT:      -7.1      0.000      0.000
REMARK  Name = 
REMARK  1 active torsions:
REMARK  status: ('A' for Active; 'I' for Inactive)
REMARK    1  A    between atoms: C_8  and  C_9
REMARK                            x       y       z     vdW  Elec       q    Type
REMARK                         _______ _______ _______ _____ _____    ______ ____
ROOT
ATOM      1  N   UNL     1       5.390   5.795  15.667  0.00  0.00    +0.000 NA
ATOM      2  C   UNL     1       6.136   4.904  16.211  0.00  0.00    +0.000 C 
ATOM      3  N   UNL     1       7.446   4.967  15.864  0.00  0.00    +0.000 N 
ATOM      4  N   UNL     1       5.893   3.970  17.169  0.00  0.00    +0.000 N 
ATOM      5  C   UNL     1       4.679   3.750  17.817  0.00  0.00    +0.000 A 
ATOM      6  C   UNL     1       3.472   3.765  17.119  0.00  0.00    +0.000 A 
ATOM      7  C   UNL     1       2.282   3.589  17.814  0.00  0.00    +0.000 A 
ATOM      8  C   UNL     1       2.314   3.373  19.191  0.00  0.00    +0.000 A 
ATOM      9  C   UNL     1       3.548   3.332  19.803  0.00  0.00    +0.000 A 
ATOM     10  N   UNL     1       4.724   3.506  19.144  0.00  0.00    +0.000 NA
ATOM     11  H   UNL     1       4.453   5.784  16.077  0.00  0.00    +0.000 HD
ATOM     12  H   UNL     1       7.520   5.648  15.102  0.00  0.00    +0.000 HD
ATOM     13  H   UNL     1       7.785   4.073  15.509  0.00  0.00    +0.000 HD
ATOM     14  H   UNL     1       6.621   3.838  17.868  0.00  0.00    +0.000 HD
ENDROOT
BRANCH   8  15
ATOM     15  C   UNL     1       1.055   3.172  19.985  0.00  0.00    +0.000 C 
ATOM     16  F   UNL     1       0.482   4.343  20.388  0.00  0.00    +0.000 F 
ATOM     17  F   UNL     1       0.098   2.510  19.285  0.00  0.00    +0.000 F 
ATOM     18  F   UNL     1       1.263   2.452  21.120  0.00  0.00    +0.000 F 
ENDBRANCH   8  15
TORSDOF 1
ENDMDL
MODEL 2
REMARK VINA RESULT:      -7.0      0.305      1.054
REMARK  Name = 
REMARK  1 active torsions:
REMARK  status: ('A' for Active; 'I' for Inactive)
REMARK    1  A    between atoms: C_8  and  C_9
REMARK                            x       y       z     vdW  Elec       q    Type
REMARK                         _______ _______ _______ _____ _____    ______ ____
ROOT
ATOM      1  N   UNL     1       5.400   6.218  15.726  0.00  0.00    +0.000 NA
ATOM      2  C   UNL     1       6.177   5.307  16.189  0.00  0.00    +0.000 C 
ATOM      3  N   UNL     1       7.482   5.444  15.849  0.00  0.00    +0.000 N 
ATOM      4  N   UNL     1       5.967   4.284  17.059  0.00  0.00    +0.000 N 
ATOM      5  C   UNL     1       4.762   3.967  17.685  0.00  0.00    +0.000 A 
ATOM      6  C   UNL     1       3.553   4.005  16.990  0.00  0.00    +0.000 A 
ATOM      7  C   UNL     1       2.371   3.728  17.666  0.00  0.00    +0.000 A 
ATOM      8  C   UNL     1       2.414   3.391  19.018  0.00  0.00    +0.000 A 
ATOM      9  C   UNL     1       3.651   3.336  19.624  0.00  0.00    +0.000 A 
ATOM     10  N   UNL     1       4.819   3.607  18.985  0.00  0.00    +0.000 NA
ATOM     11  H   UNL     1       4.465   6.140  16.133  0.00  0.00    +0.000 HD
ATOM     12  H   UNL     1       7.532   6.193  15.151  0.00  0.00    +0.000 HD
ATOM     13  H   UNL     1       7.849   4.597  15.416  0.00  0.00    +0.000 HD
ATOM     14  H   UNL     1       6.700   4.114  17.743  0.00  0.00    +0.000 HD
ENDROOT
BRANCH   8  15
ATOM     15  C   UNL     1       1.164   3.079  19.790  0.00  0.00    +0.000 C 
ATOM     16  F   UNL     1       1.393   2.311  20.894  0.00  0.00    +0.000 F 
ATOM     17  F   UNL     1       0.536   4.196  20.237  0.00  0.00    +0.000 F 
ATOM     18  F   UNL     1       0.249   2.399  19.049  0.00  0.00    +0.000 F 
ENDBRANCH   8  15
TORSDOF 1
ENDMDL
MODEL 3
REMARK VINA RESULT:      -7.0      1.073      1.894
REMARK  Name = 
REMARK  1 active torsions:
REMARK  status: ('A' for Active; 'I' for Inactive)
REMARK    1  A    between atoms: C_8  and  C_9
REMARK                            x       y       z     vdW  Elec       q    Type
REMARK                         _______ _______ _______ _____ _____    ______ ____
ROOT
ATOM      1  N   UNL     1       7.409   4.344  18.233  0.00  0.00    +0.000 NA
ATOM      2  C   UNL     1       6.843   4.535  17.097  0.00  0.00    +0.000 C 
ATOM      3  N   UNL     1       7.694   4.685  16.053  0.00  0.00    +0.000 N 
ATOM      4  N   UNL     1       5.540   4.499  16.709  0.00  0.00    +0.000 N 
ATOM      5  C   UNL     1       4.442   4.235  17.526  0.00  0.00    +0.000 A 
ATOM      6  C   UNL     1       4.344   4.781  18.806  0.00  0.00    +0.000 A 
ATOM      7  C   UNL     1       3.256   4.452  19.604  0.00  0.00    +0.000 A 
ATOM      8  C   UNL     1       2.267   3.606  19.106  0.00  0.00    +0.000 A 
ATOM      9  C   UNL     1       2.415   3.140  17.817  0.00  0.00    +0.000 A 
ATOM     10  N   UNL     1       3.473   3.444  17.020  0.00  0.00    +0.000 NA
ATOM     11  H   UNL     1       6.719   4.096  18.946  0.00  0.00    +0.000 HD
ATOM     12  H   UNL     1       8.638   4.762  16.446  0.00  0.00    +0.000 HD
ATOM     13  H   UNL     1       7.508   5.545  15.536  0.00  0.00    +0.000 HD
ATOM     14  H   UNL     1       5.346   4.055  15.814  0.00  0.00    +0.000 HD
ENDROOT
BRANCH   8  15
ATOM     15  C   UNL     1       1.069   3.226  19.928  0.00  0.00    +0.000 C 
ATOM     16  F   UNL     1       0.127   2.539  19.220  0.00  0.00    +0.000 F 
ATOM     17  F   UNL     1       1.392   2.435  20.983  0.00  0.00    +0.000 F 
ATOM     18  F   UNL     1       0.427   4.307  20.446  0.00  0.00    +0.000 F 
ENDBRANCH   8  15
TORSDOF 1
ENDMDL
MODEL 4
REMARK VINA RESULT:      -7.0      0.346      1.051
REMARK  Name = 
REMARK  1 active torsions:
REMARK  status: ('A' for Active; 'I' for Inactive)
REMARK    1  A    between atoms: C_8  and  C_9
REMARK                            x       y       z     vdW  Elec       q    Type
REMARK                         _______ _______ _______ _____ _____    ______ ____
ROOT
ATOM      1  N   UNL     1       5.512   6.306  15.880  0.00  0.00    +0.000 NA
ATOM      2  C   UNL     1       6.248   5.318  16.238  0.00  0.00    +0.000 C 
ATOM      3  N   UNL     1       7.538   5.389  15.826  0.00  0.00    +0.000 N 
ATOM      4  N   UNL     1       6.019   4.258  17.058  0.00  0.00    +0.000 N 
ATOM      5  C   UNL     1       4.833   3.982  17.738  0.00  0.00    +0.000 A 
ATOM      6  C   UNL     1       3.591   4.144  17.125  0.00  0.00    +0.000 A 
ATOM      7  C   UNL     1       2.435   3.905  17.856  0.00  0.00    +0.000 A 
ATOM      8  C   UNL     1       2.533   3.480  19.180  0.00  0.00    +0.000 A 
ATOM      9  C   UNL     1       3.797   3.305  19.703  0.00  0.00    +0.000 A 
ATOM     10  N   UNL     1       4.941   3.538  19.008  0.00  0.00    +0.000 NA
ATOM     11  H   UNL     1       4.599   6.265  16.340  0.00  0.00    +0.000 HD
ATOM     12  H   UNL     1       7.599   6.176  15.171  0.00  0.00    +0.000 HD
ATOM     13  H   UNL     1       7.819   4.549  15.321  0.00  0.00    +0.000 HD
ATOM     14  H   UNL     1       6.778   3.996  17.683  0.00  0.00    +0.000 HD
ENDROOT
BRANCH   8  15
ATOM     15  C   UNL     1       1.312   3.204  20.010  0.00  0.00    +0.000 C 
ATOM     16  F   UNL     1       0.328   2.559  19.319  0.00  0.00    +0.000 F 
ATOM     17  F   UNL     1       1.582   2.425  21.089  0.00  0.00    +0.000 F 
ATOM     18  F   UNL     1       0.742   4.339  20.494  0.00  0.00    +0.000 F 
ENDBRANCH   8  15
TORSDOF 1
ENDMDL
MODEL 5
REMARK VINA RESULT:      -7.0      1.265      1.914
REMARK  Name = 
REMARK  1 active torsions:
REMARK  status: ('A' for Active; 'I' for Inactive)
REMARK    1  A    between atoms: C_8  and  C_9
REMARK                            x       y       z     vdW  Elec       q    Type
REMARK                         _______ _______ _______ _____ _____    ______ ____
ROOT
ATOM      1  N   UNL     1       7.338   5.047  19.005  0.00  0.00    +0.000 NA
ATOM      2  C   UNL     1       7.000   4.541  17.875  0.00  0.00    +0.000 C 
ATOM      3  N   UNL     1       8.021   4.370  16.998  0.00  0.00    +0.000 N 
ATOM      4  N   UNL     1       5.827   4.027  17.419  0.00  0.00    +0.000 N 
ATOM      5  C   UNL     1       4.633   3.937  18.132  0.00  0.00    +0.000 A 
ATOM      6  C   UNL     1       4.191   4.985  18.940  0.00  0.00    +0.000 A 
ATOM      7  C   UNL     1       3.020   4.833  19.671  0.00  0.00    +0.000 A 
ATOM      8  C   UNL     1       2.290   3.650  19.564  0.00  0.00    +0.000 A 
ATOM      9  C   UNL     1       2.770   2.677  18.714  0.00  0.00    +0.000 A 
ATOM     10  N   UNL     1       3.916   2.801  17.993  0.00  0.00    +0.000 NA
ATOM     11  H   UNL     1       6.558   5.015  19.665  0.00  0.00    +0.000 HD
ATOM     12  H   UNL     1       8.840   4.839  17.399  0.00  0.00    +0.000 HD
ATOM     13  H   UNL     1       7.824   4.813  16.100  0.00  0.00    +0.000 HD
ATOM     14  H   UNL     1       5.892   3.181  16.857  0.00  0.00    +0.000 HD
ENDROOT
BRANCH   8  15
ATOM     15  C   UNL     1       1.015   3.440  20.330  0.00  0.00    +0.000 C 
ATOM     16  F   UNL     1       1.203   2.807  21.523  0.00  0.00    +0.000 F 
ATOM     17  F   UNL     1       0.386   4.607  20.622  0.00  0.00    +0.000 F 
ATOM     18  F   UNL     1       0.115   2.684  19.647  0.00  0.00    +0.000 F 
ENDBRANCH   8  15
TORSDOF 1
ENDMDL
MODEL 6
REMARK VINA RESULT:      -6.9      1.009      1.413
REMARK  Name = 
REMARK  1 active torsions:
REMARK  status: ('A' for Active; 'I' for Inactive)
REMARK    1  A    between atoms: C_8  and  C_9
REMARK                            x       y       z     vdW  Elec       q    Type
REMARK                         _______ _______ _______ _____ _____    ______ ____
ROOT
ATOM      1  N   UNL     1       5.865   3.912  15.652  0.00  0.00    +0.000 NA
ATOM      2  C   UNL     1       6.520   4.161  16.728  0.00  0.00    +0.000 C 
ATOM      3  N   UNL     1       7.787   4.603  16.535  0.00  0.00    +0.000 N 
ATOM      4  N   UNL     1       6.153   4.180  18.036  0.00  0.00    +0.000 N 
ATOM      5  C   UNL     1       4.883   3.903  18.542  0.00  0.00    +0.000 A 
ATOM      6  C   UNL     1       4.121   2.845  18.047  0.00  0.00    +0.000 A 
ATOM      7  C   UNL     1       2.843   2.636  18.546  0.00  0.00    +0.000 A 
ATOM      8  C   UNL     1       2.351   3.467  19.551  0.00  0.00    +0.000 A 
ATOM      9  C   UNL     1       3.179   4.466  20.017  0.00  0.00    +0.000 A 
ATOM     10  N   UNL     1       4.432   4.693  19.539  0.00  0.00    +0.000 NA
ATOM     11  H   UNL     1       4.881   3.724  15.861  0.00  0.00    +0.000 HD
ATOM     12  H   UNL     1       7.992   4.494  15.536  0.00  0.00    +0.000 HD
ATOM     13  H   UNL     1       8.465   4.040  17.048  0.00  0.00    +0.000 HD
ATOM     14  H   UNL     1       6.528   4.939  18.601  0.00  0.00    +0.000 HD
ENDROOT
BRANCH   8  15
ATOM     15  C   UNL     1       0.977   3.278  20.126  0.00  0.00    +0.000 C 
ATOM     16  F   UNL     1       0.976   2.578  21.297  0.00  0.00    +0.000 F 
ATOM     17  F   UNL     1       0.358   4.456  20.396  0.00  0.00    +0.000 F 
ATOM     18  F   UNL     1       0.149   2.597  19.289  0.00  0.00    +0.000 F 
ENDBRANCH   8  15
TORSDOF 1
ENDMDL
MODEL 7
REMARK VINA RESULT:      -6.9      1.150      1.644
REMARK  Name = 
REMARK  1 active torsions:
REMARK  status: ('A' for Active; 'I' for Inactive)
REMARK    1  A    between atoms: C_8  and  C_9
REMARK                            x       y       z     vdW  Elec       q    Type
REMARK                         _______ _______ _______ _____ _____    ______ ____
ROOT
ATOM      1  N   UNL     1       7.470   4.578  18.502  0.00  0.00    +0.000 NA
ATOM      2  C   UNL     1       6.922   4.567  17.342  0.00  0.00    +0.000 C 
ATOM      3  N   UNL     1       7.790   4.584  16.300  0.00  0.00    +0.000 N 
ATOM      4  N   UNL     1       5.630   4.424  16.943  0.00  0.00    +0.000 N 
ATOM      5  C   UNL     1       4.524   4.251  17.775  0.00  0.00    +0.000 A 
ATOM      6  C   UNL     1       4.381   4.986  18.952  0.00  0.00    +0.000 A 
ATOM      7  C   UNL     1       3.288   4.747  19.774  0.00  0.00    +0.000 A 
ATOM      8  C   UNL     1       2.339   3.798  19.399  0.00  0.00    +0.000 A 
ATOM      9  C   UNL     1       2.529   3.141  18.202  0.00  0.00    +0.000 A 
ATOM     10  N   UNL     1       3.593   3.356  17.384  0.00  0.00    +0.000 NA
ATOM     11  H   UNL     1       6.774   4.419  19.234  0.00  0.00    +0.000 HD
ATOM     12  H   UNL     1       8.722   4.756  16.691  0.00  0.00    +0.000 HD
ATOM     13  H   UNL     1       7.586   5.345  15.652  0.00  0.00    +0.000 HD
ATOM     14  H   UNL     1       5.470   3.839  16.126  0.00  0.00    +0.000 HD
ENDROOT
BRANCH   8  15
ATOM     15  C   UNL     1       1.137   3.507  20.252  0.00  0.00    +0.000 C 
ATOM     16  F   UNL     1       0.457   4.630  20.623  0.00  0.00    +0.000 F 
ATOM     17  F   UNL     1       0.232   2.713  19.624  0.00  0.00    +0.000 F 
ATOM     18  F   UNL     1       1.461   2.872  21.411  0.00  0.00    +0.000 F 
ENDBRANCH   8  15
TORSDOF 1
ENDMDL
MODEL 8
REMARK VINA RESULT:      -6.8      5.451      6.671
REMARK  Name = 
REMARK  1 active torsions:
REMARK  status: ('A' for Active; 'I' for Inactive)
REMARK    1  A    between atoms: C_8  and  C_9
REMARK                            x       y       z     vdW  Elec       q    Type
REMARK                         _______ _______ _______ _____ _____    ______ ____
ROOT
ATOM      1  N   UNL     1       7.105   4.354  18.573  0.00  0.00    +0.000 NA
ATOM      2  C   UNL     1       7.417   5.504  18.096  0.00  0.00    +0.000 C 
ATOM      3  N   UNL     1       7.985   6.356  18.985  0.00  0.00    +0.000 N 
ATOM      4  N   UNL     1       7.399   6.002  16.831  0.00  0.00    +0.000 N 
ATOM      5  C   UNL     1       6.996   5.324  15.682  0.00  0.00    +0.000 A 
ATOM      6  C   UNL     1       5.867   4.505  15.683  0.00  0.00    +0.000 A 
ATOM      7  C   UNL     1       5.530   3.810  14.529  0.00  0.00    +0.000 A 
ATOM      8  C   UNL     1       6.307   3.962  13.381  0.00  0.00    +0.000 A 
ATOM      9  C   UNL     1       7.384   4.821  13.448  0.00  0.00    +0.000 A 
ATOM     10  N   UNL     1       7.735   5.507  14.567  0.00  0.00    +0.000 NA
ATOM     11  H   UNL     1       6.819   3.716  17.827  0.00  0.00    +0.000 HD
ATOM     12  H   UNL     1       7.898   5.923  19.910  0.00  0.00    +0.000 HD
ATOM     13  H   UNL     1       7.492   7.248  19.018  0.00  0.00    +0.000 HD
ATOM     14  H   UNL     1       8.192   6.581  16.561  0.00  0.00    +0.000 HD
ENDROOT
BRANCH   8  15
ATOM     15  C   UNL     1       5.981   3.236  12.108  0.00  0.00    +0.000 C 
ATOM     16  F   UNL     1       5.577   1.949  12.312  0.00  0.00    +0.000 F 
ATOM     17  F   UNL     1       4.982   3.834  11.409  0.00  0.00    +0.000 F 
ATOM     18  F   UNL     1       7.044   3.160  11.263  0.00  0.00    +0.000 F 
ENDBRANCH   8  15
TORSDOF 1
ENDMDL
MODEL 9
REMARK VINA RESULT:      -6.8      5.470      6.667
REMARK  Name = 
REMARK  1 active torsions:
REMARK  status: ('A' for Active; 'I' for Inactive)
REMARK    1  A    between atoms: C_8  and  C_9
REMARK                            x       y       z     vdW  Elec       q    Type
REMARK                         _______ _______ _______ _____ _____    ______ ____
ROOT
ATOM      1  N   UNL     1       7.074   4.374  18.578  0.00  0.00    +0.000 NA
ATOM      2  C   UNL     1       7.409   5.516  18.098  0.00  0.00    +0.000 C 
ATOM      3  N   UNL     1       7.987   6.361  18.987  0.00  0.00    +0.000 N 
ATOM      4  N   UNL     1       7.406   6.010  16.832  0.00  0.00    +0.000 N 
ATOM      5  C   UNL     1       6.997   5.335  15.683  0.00  0.00    +0.000 A 
ATOM      6  C   UNL     1       5.853   4.536  15.681  0.00  0.00    +0.000 A 
ATOM      7  C   UNL     1       5.510   3.843  14.527  0.00  0.00    +0.000 A 
ATOM      8  C   UNL     1       6.295   3.977  13.384  0.00  0.00    +0.000 A 
ATOM      9  C   UNL     1       7.387   4.817  13.452  0.00  0.00    +0.000 A 
ATOM     10  N   UNL     1       7.744   5.501  14.571  0.00  0.00    +0.000 NA
ATOM     11  H   UNL     1       6.780   3.738  17.832  0.00  0.00    +0.000 HD
ATOM     12  H   UNL     1       7.888   5.933  19.913  0.00  0.00    +0.000 HD
ATOM     13  H   UNL     1       7.510   7.262  19.015  0.00  0.00    +0.000 HD
ATOM     14  H   UNL     1       8.210   6.574  16.564  0.00  0.00    +0.000 HD
ENDROOT
BRANCH   8  15
ATOM     15  C   UNL     1       5.962   3.252  12.111  0.00  0.00    +0.000 C 
ATOM     16  F   UNL     1       6.972   3.285  11.194  0.00  0.00    +0.000 F 
ATOM     17  F   UNL     1       5.687   1.939  12.317  0.00  0.00    +0.000 F 
ATOM     18  F   UNL     1       4.875   3.774  11.482  0.00  0.00    +0.000 F 
ENDBRANCH   8  15
TORSDOF 1
ENDMDL
